MODEL 1
REMARK VINA RESULT:      -8.5      0.000      0.000
REMARK  Name = 
REMARK  10 active torsions:
REMARK  status: ('A' for Active; 'I' for Inactive)
REMARK    1  A    between atoms: C_1  and  O_2
REMARK    2  A    between atoms: O_2  and  C_3
REMARK    3  A    between atoms: C_6  and  N_7
REMARK    4  A    between atoms: N_16  and  C_17
REMARK    5  A    between atoms: C_21  and  N_22
REMARK    6  A    between atoms: C_23  and  C_25
REMARK    7  A    between atoms: C_26  and  C_27
REMARK    8  A    between atoms: C_27  and  N_28
REMARK    9  A    between atoms: N_28  and  C_29
REMARK   10  A    between atoms: N_28  and  C_30
REMARK                            x       y       z     vdW  Elec       q    Type
REMARK                         _______ _______ _______ _____ _____    ______ ____
ROOT
ATOM      1  N   UNL     1       1.923   7.993  19.226  0.00  0.00    +0.000 N 
ATOM      2  C   UNL     1       1.946   6.639  19.587  0.00  0.00    +0.000 A 
ATOM      3  N   UNL     1       0.912   6.138  20.276  0.00  0.00    +0.000 NA
ATOM      4  C   UNL     1       1.014   4.882  20.735  0.00  0.00    +0.000 A 
ATOM      5  C   UNL     1       2.105   4.076  20.516  0.00  0.00    +0.000 A 
ATOM      6  N   UNL     1       2.152   2.795  21.080  0.00  0.00    +0.000 NA
ATOM      7  C   UNL     1       3.233   2.112  20.882  0.00  0.00    +0.000 A 
ATOM      8  C   UNL     1       4.413   2.598  20.085  0.00  0.00    +0.000 A 
ATOM      9  O   UNL     1       5.355   1.820  19.996  0.00  0.00    +0.000 OA
ATOM     10  N   UNL     1       4.280   3.853  19.500  0.00  0.00    +0.000 N 
ATOM     11  C   UNL     1       3.108   4.644  19.736  0.00  0.00    +0.000 A 
ATOM     12  N   UNL     1       3.038   5.924  19.280  0.00  0.00    +0.000 NA
ATOM     13  H   UNL     1       2.845   8.235  18.882  0.00  0.00    +0.000 HD
ENDROOT
BRANCH   1  17
ATOM     14  C   UNL     1       0.226  11.049  21.615  0.00  0.00    +0.000 A 
ATOM     15  C   UNL     1       0.582   9.833  22.187  0.00  0.00    +0.000 A 
ATOM     16  C   UNL     1       1.163   8.834  21.411  0.00  0.00    +0.000 A 
ATOM     17  C   UNL     1       1.357   9.007  20.033  0.00  0.00    +0.000 A 
ATOM     18  C   UNL     1       1.027  10.244  19.471  0.00  0.00    +0.000 A 
ATOM     19  C   UNL     1       0.447  11.257  20.253  0.00  0.00    +0.000 A 
BRANCH  14  21
ATOM     20  C   UNL     1      -1.502  11.452  23.170  0.00  0.00    +0.000 C 
ATOM     21  O   UNL     1      -0.361  11.935  22.475  0.00  0.00    +0.000 OA
ENDBRANCH  14  21
ENDBRANCH   1  17
BRANCH  10  22
ATOM     22  C   UNL     1       5.287   4.348  18.620  0.00  0.00    +0.000 A 
ATOM     23  C   UNL     1       5.419   3.812  17.333  0.00  0.00    +0.000 A 
ATOM     24  C   UNL     1       6.435   4.245  16.491  0.00  0.00    +0.000 A 
ATOM     25  C   UNL     1       7.313   5.242  16.916  0.00  0.00    +0.000 A 
ATOM     26  C   UNL     1       7.198   5.813  18.184  0.00  0.00    +0.000 A 
ATOM     27  C   UNL     1       6.204   5.330  19.049  0.00  0.00    +0.000 A 
BRANCH  26  28
ATOM     28  N   UNL     1       8.038   6.869  18.627  0.00  0.00    +0.000 N 
ATOM     29  C   UNL     1       8.061   8.140  18.083  0.00  0.00    +0.000 C 
ATOM     30  O   UNL     1       7.363   8.549  17.162  0.00  0.00    +0.000 OA
ATOM     31  H   UNL     1       8.584   6.693  19.459  0.00  0.00    +0.000 HD
BRANCH  29  32
ATOM     32  C   UNL     1       9.003   9.071  18.767  0.00  0.00    +0.000 C 
ATOM     33  C   UNL     1       8.858  10.387  18.532  0.00  0.00    +0.000 C 
BRANCH  33  34
ATOM     34  C   UNL     1       9.637  11.493  19.171  0.00  0.00    +0.000 C 
BRANCH  34  35
ATOM     35  N   UNL     1      11.055  11.442  18.784  0.00  0.00    +0.000 NA
ATOM     36  C   UNL     1      11.338  12.268  17.608  0.00  0.00    +0.000 C 
ATOM     37  C   UNL     1      11.900  11.862  19.903  0.00  0.00    +0.000 C 
ENDBRANCH  34  35
ENDBRANCH  33  34
ENDBRANCH  29  32
ENDBRANCH  26  28
ENDBRANCH  10  22
TORSDOF 7
ENDMDL
MODEL 2
REMARK VINA RESULT:      -8.4      0.562      1.078
REMARK  Name = 
REMARK  10 active torsions:
REMARK  status: ('A' for Active; 'I' for Inactive)
REMARK    1  A    between atoms: C_1  and  O_2
REMARK    2  A    between atoms: O_2  and  C_3
REMARK    3  A    between atoms: C_6  and  N_7
REMARK    4  A    between atoms: N_16  and  C_17
REMARK    5  A    between atoms: C_21  and  N_22
REMARK    6  A    between atoms: C_23  and  C_25
REMARK    7  A    between atoms: C_26  and  C_27
REMARK    8  A    between atoms: C_27  and  N_28
REMARK    9  A    between atoms: N_28  and  C_29
REMARK   10  A    between atoms: N_28  and  C_30
REMARK                            x       y       z     vdW  Elec       q    Type
REMARK                         _______ _______ _______ _____ _____    ______ ____
ROOT
ATOM      1  N   UNL     1       1.827   7.870  19.417  0.00  0.00    +0.000 N 
ATOM      2  C   UNL     1       1.881   6.501  19.717  0.00  0.00    +0.000 A 
ATOM      3  N   UNL     1       0.873   5.954  20.411  0.00  0.00    +0.000 NA
ATOM      4  C   UNL     1       1.007   4.681  20.811  0.00  0.00    +0.000 A 
ATOM      5  C   UNL     1       2.105   3.904  20.528  0.00  0.00    +0.000 A 
ATOM      6  N   UNL     1       2.186   2.601  21.035  0.00  0.00    +0.000 NA
ATOM      7  C   UNL     1       3.272   1.945  20.779  0.00  0.00    +0.000 A 
ATOM      8  C   UNL     1       4.423   2.484  19.973  0.00  0.00    +0.000 A 
ATOM      9  O   UNL     1       5.374   1.727  19.825  0.00  0.00    +0.000 OA
ATOM     10  N   UNL     1       4.254   3.761  19.447  0.00  0.00    +0.000 N 
ATOM     11  C   UNL     1       3.078   4.522  19.749  0.00  0.00    +0.000 A 
ATOM     12  N   UNL     1       2.975   5.818  19.351  0.00  0.00    +0.000 NA
ATOM     13  H   UNL     1       2.736   8.141  19.059  0.00  0.00    +0.000 HD
ENDROOT
BRANCH   1  17
ATOM     14  C   UNL     1       0.158  10.750  22.032  0.00  0.00    +0.000 A 
ATOM     15  C   UNL     1       0.092  10.936  20.656  0.00  0.00    +0.000 A 
ATOM     16  C   UNL     1       0.618   9.980  19.791  0.00  0.00    +0.000 A 
ATOM     17  C   UNL     1       1.267   8.838  20.281  0.00  0.00    +0.000 A 
ATOM     18  C   UNL     1       1.301   8.641  21.666  0.00  0.00    +0.000 A 
ATOM     19  C   UNL     1       0.765   9.601  22.540  0.00  0.00    +0.000 A 
BRANCH  14  21
ATOM     20  C   UNL     1      -1.779  11.760  22.924  0.00  0.00    +0.000 C 
ATOM     21  O   UNL     1      -0.366  11.772  22.773  0.00  0.00    +0.000 OA
ENDBRANCH  14  21
ENDBRANCH   1  17
BRANCH  10  22
ATOM     22  C   UNL     1       5.229   4.310  18.564  0.00  0.00    +0.000 A 
ATOM     23  C   UNL     1       5.327   3.842  17.248  0.00  0.00    +0.000 A 
ATOM     24  C   UNL     1       6.313   4.327  16.399  0.00  0.00    +0.000 A 
ATOM     25  C   UNL     1       7.195   5.310  16.847  0.00  0.00    +0.000 A 
ATOM     26  C   UNL     1       7.113   5.815  18.145  0.00  0.00    +0.000 A 
ATOM     27  C   UNL     1       6.151   5.279  19.014  0.00  0.00    +0.000 A 
BRANCH  26  28
ATOM     28  N   UNL     1       7.957   6.855  18.616  0.00  0.00    +0.000 N 
ATOM     29  C   UNL     1       8.013   8.129  18.080  0.00  0.00    +0.000 C 
ATOM     30  O   UNL     1       7.345   8.554  17.145  0.00  0.00    +0.000 OA
ATOM     31  H   UNL     1       8.479   6.667  19.461  0.00  0.00    +0.000 HD
BRANCH  29  32
ATOM     32  C   UNL     1       8.951   9.042  18.794  0.00  0.00    +0.000 C 
ATOM     33  C   UNL     1       8.911  10.348  18.477  0.00  0.00    +0.000 C 
BRANCH  33  34
ATOM     34  C   UNL     1       9.703  11.442  19.122  0.00  0.00    +0.000 C 
BRANCH  34  35
ATOM     35  N   UNL     1       9.917  12.565  18.198  0.00  0.00    +0.000 NA
ATOM     36  C   UNL     1       9.985  13.851  18.894  0.00  0.00    +0.000 C 
ATOM     37  C   UNL     1      11.140  12.354  17.422  0.00  0.00    +0.000 C 
ENDBRANCH  34  35
ENDBRANCH  33  34
ENDBRANCH  29  32
ENDBRANCH  26  28
ENDBRANCH  10  22
TORSDOF 7
ENDMDL
MODEL 3
REMARK VINA RESULT:      -8.2      0.631      1.201
REMARK  Name = 
REMARK  10 active torsions:
REMARK  status: ('A' for Active; 'I' for Inactive)
REMARK    1  A    between atoms: C_1  and  O_2
REMARK    2  A    between atoms: O_2  and  C_3
REMARK    3  A    between atoms: C_6  and  N_7
REMARK    4  A    between atoms: N_16  and  C_17
REMARK    5  A    between atoms: C_21  and  N_22
REMARK    6  A    between atoms: C_23  and  C_25
REMARK    7  A    between atoms: C_26  and  C_27
REMARK    8  A    between atoms: C_27  and  N_28
REMARK    9  A    between atoms: N_28  and  C_29
REMARK   10  A    between atoms: N_28  and  C_30
REMARK                            x       y       z     vdW  Elec       q    Type
REMARK                         _______ _______ _______ _____ _____    ______ ____
ROOT
ATOM      1  N   UNL     1       1.920   7.963  19.211  0.00  0.00    +0.000 N 
ATOM      2  C   UNL     1       1.956   6.616  19.598  0.00  0.00    +0.000 A 
ATOM      3  N   UNL     1       0.940   6.127  20.323  0.00  0.00    +0.000 NA
ATOM      4  C   UNL     1       1.057   4.881  20.804  0.00  0.00    +0.000 A 
ATOM      5  C   UNL     1       2.145   4.073  20.574  0.00  0.00    +0.000 A 
ATOM      6  N   UNL     1       2.209   2.804  21.163  0.00  0.00    +0.000 NA
ATOM      7  C   UNL     1       3.287   2.119  20.952  0.00  0.00    +0.000 A 
ATOM      8  C   UNL     1       4.446   2.592  20.116  0.00  0.00    +0.000 A 
ATOM      9  O   UNL     1       5.387   1.814  20.020  0.00  0.00    +0.000 OA
ATOM     10  N   UNL     1       4.294   3.834  19.509  0.00  0.00    +0.000 N 
ATOM     11  C   UNL     1       3.127   4.628  19.759  0.00  0.00    +0.000 A 
ATOM     12  N   UNL     1       3.041   5.897  19.279  0.00  0.00    +0.000 NA
ATOM     13  H   UNL     1       2.832   8.200  18.838  0.00  0.00    +0.000 HD
ENDROOT
BRANCH   1  17
ATOM     14  C   UNL     1       0.277  11.022  21.632  0.00  0.00    +0.000 A 
ATOM     15  C   UNL     1       0.431  11.222  20.265  0.00  0.00    +0.000 A 
ATOM     16  C   UNL     1       0.949  10.210  19.460  0.00  0.00    +0.000 A 
ATOM     17  C   UNL     1       1.371   8.991  20.010  0.00  0.00    +0.000 A 
ATOM     18  C   UNL     1       1.182   8.785  21.381  0.00  0.00    +0.000 A 
ATOM     19  C   UNL     1       0.655   9.802  22.193  0.00  0.00    +0.000 A 
BRANCH  14  21
ATOM     20  C   UNL     1      -0.024  13.362  21.689  0.00  0.00    +0.000 C 
ATOM     21  O   UNL     1      -0.212  12.100  22.315  0.00  0.00    +0.000 OA
ENDBRANCH  14  21
ENDBRANCH   1  17
BRANCH  10  22
ATOM     22  C   UNL     1       5.278   4.314  18.595  0.00  0.00    +0.000 A 
ATOM     23  C   UNL     1       5.397   3.734  17.326  0.00  0.00    +0.000 A 
ATOM     24  C   UNL     1       6.391   4.153  16.451  0.00  0.00    +0.000 A 
ATOM     25  C   UNL     1       7.260   5.178  16.825  0.00  0.00    +0.000 A 
ATOM     26  C   UNL     1       7.157   5.793  18.073  0.00  0.00    +0.000 A 
ATOM     27  C   UNL     1       6.186   5.325  18.972  0.00  0.00    +0.000 A 
BRANCH  26  28
ATOM     28  N   UNL     1       7.986   6.877  18.464  0.00  0.00    +0.000 N 
ATOM     29  C   UNL     1       7.896   8.161  17.959  0.00  0.00    +0.000 C 
ATOM     30  O   UNL     1       7.093   8.558  17.123  0.00  0.00    +0.000 OA
ATOM     31  H   UNL     1       8.620   6.707  19.234  0.00  0.00    +0.000 HD
BRANCH  29  32
ATOM     32  C   UNL     1       8.857   9.120  18.576  0.00  0.00    +0.000 C 
ATOM     33  C   UNL     1       8.812  10.398  18.162  0.00  0.00    +0.000 C 
BRANCH  33  34
ATOM     34  C   UNL     1       9.625  11.533  18.701  0.00  0.00    +0.000 C 
BRANCH  34  35
ATOM     35  N   UNL     1      10.151  11.227  20.040  0.00  0.00    +0.000 NA
ATOM     36  C   UNL     1      11.442  11.873  20.289  0.00  0.00    +0.000 C 
ATOM     37  C   UNL     1       9.187  11.628  21.066  0.00  0.00    +0.000 C 
ENDBRANCH  34  35
ENDBRANCH  33  34
ENDBRANCH  29  32
ENDBRANCH  26  28
ENDBRANCH  10  22
TORSDOF 7
ENDMDL
MODEL 4
REMARK VINA RESULT:      -7.9      0.975      1.124
REMARK  Name = 
REMARK  10 active torsions:
REMARK  status: ('A' for Active; 'I' for Inactive)
REMARK    1  A    between atoms: C_1  and  O_2
REMARK    2  A    between atoms: O_2  and  C_3
REMARK    3  A    between atoms: C_6  and  N_7
REMARK    4  A    between atoms: N_16  and  C_17
REMARK    5  A    between atoms: C_21  and  N_22
REMARK    6  A    between atoms: C_23  and  C_25
REMARK    7  A    between atoms: C_26  and  C_27
REMARK    8  A    between atoms: C_27  and  N_28
REMARK    9  A    between atoms: N_28  and  C_29
REMARK   10  A    between atoms: N_28  and  C_30
REMARK                            x       y       z     vdW  Elec       q    Type
REMARK                         _______ _______ _______ _____ _____    ______ ____
ROOT
ATOM      1  N   UNL     1       1.620   8.263  19.009  0.00  0.00    +0.000 N 
ATOM      2  C   UNL     1       1.769   6.937  19.437  0.00  0.00    +0.000 A 
ATOM      3  N   UNL     1       0.913   6.454  20.347  0.00  0.00    +0.000 NA
ATOM      4  C   UNL     1       1.155   5.235  20.850  0.00  0.00    +0.000 A 
ATOM      5  C   UNL     1       2.214   4.447  20.466  0.00  0.00    +0.000 A 
ATOM      6  N   UNL     1       2.423   3.209  21.085  0.00  0.00    +0.000 NA
ATOM      7  C   UNL     1       3.472   2.545  20.716  0.00  0.00    +0.000 A 
ATOM      8  C   UNL     1       4.450   3.010  19.672  0.00  0.00    +0.000 A 
ATOM      9  O   UNL     1       5.387   2.255  19.443  0.00  0.00    +0.000 OA
ATOM     10  N   UNL     1       4.152   4.219  19.052  0.00  0.00    +0.000 N 
ATOM     11  C   UNL     1       3.019   4.991  19.470  0.00  0.00    +0.000 A 
ATOM     12  N   UNL     1       2.807   6.235  18.962  0.00  0.00    +0.000 NA
ATOM     13  H   UNL     1       2.445   8.508  18.473  0.00  0.00    +0.000 HD
ENDROOT
BRANCH   1  17
ATOM     14  C   UNL     1       0.310  11.424  21.503  0.00  0.00    +0.000 A 
ATOM     15  C   UNL     1       0.571  10.170  22.044  0.00  0.00    +0.000 A 
ATOM     16  C   UNL     1       1.025   9.134  21.232  0.00  0.00    +0.000 A 
ATOM     17  C   UNL     1       1.183   9.312  19.850  0.00  0.00    +0.000 A 
ATOM     18  C   UNL     1       0.951  10.584  19.318  0.00  0.00    +0.000 A 
ATOM     19  C   UNL     1       0.499  11.633  20.136  0.00  0.00    +0.000 A 
BRANCH  14  21
ATOM     20  C   UNL     1      -1.471  12.115  22.888  0.00  0.00    +0.000 C 
ATOM     21  O   UNL     1      -0.157  12.346  22.396  0.00  0.00    +0.000 OA
ENDBRANCH  14  21
ENDBRANCH   1  17
BRANCH  10  22
ATOM     22  C   UNL     1       4.945   4.683  17.961  0.00  0.00    +0.000 A 
ATOM     23  C   UNL     1       5.073   3.903  16.805  0.00  0.00    +0.000 A 
ATOM     24  C   UNL     1       5.890   4.318  15.763  0.00  0.00    +0.000 A 
ATOM     25  C   UNL     1       6.567   5.534  15.851  0.00  0.00    +0.000 A 
ATOM     26  C   UNL     1       6.447   6.347  16.978  0.00  0.00    +0.000 A 
ATOM     27  C   UNL     1       5.663   5.894  18.051  0.00  0.00    +0.000 A 
BRANCH  26  28
ATOM     28  N   UNL     1       7.075   7.616  17.078  0.00  0.00    +0.000 N 
ATOM     29  C   UNL     1       8.010   7.960  18.038  0.00  0.00    +0.000 C 
ATOM     30  O   UNL     1       8.444   7.231  18.923  0.00  0.00    +0.000 OA
ATOM     31  H   UNL     1       6.887   8.274  16.334  0.00  0.00    +0.000 HD
BRANCH  29  32
ATOM     32  C   UNL     1       8.548   9.342  17.887  0.00  0.00    +0.000 C 
ATOM     33  C   UNL     1       9.072   9.928  18.978  0.00  0.00    +0.000 C 
BRANCH  33  34
ATOM     34  C   UNL     1       9.733  11.270  19.032  0.00  0.00    +0.000 C 
BRANCH  34  35
ATOM     35  N   UNL     1       9.542  12.012  17.778  0.00  0.00    +0.000 NA
ATOM     36  C   UNL     1       8.529  13.062  17.904  0.00  0.00    +0.000 C 
ATOM     37  C   UNL     1      10.810  12.595  17.336  0.00  0.00    +0.000 C 
ENDBRANCH  34  35
ENDBRANCH  33  34
ENDBRANCH  29  32
ENDBRANCH  26  28
ENDBRANCH  10  22
TORSDOF 7
ENDMDL
MODEL 5
REMARK VINA RESULT:      -7.7      4.542      9.797
REMARK  Name = 
REMARK  10 active torsions:
REMARK  status: ('A' for Active; 'I' for Inactive)
REMARK    1  A    between atoms: C_1  and  O_2
REMARK    2  A    between atoms: O_2  and  C_3
REMARK    3  A    between atoms: C_6  and  N_7
REMARK    4  A    between atoms: N_16  and  C_17
REMARK    5  A    between atoms: C_21  and  N_22
REMARK    6  A    between atoms: C_23  and  C_25
REMARK    7  A    between atoms: C_26  and  C_27
REMARK    8  A    between atoms: C_27  and  N_28
REMARK    9  A    between atoms: N_28  and  C_29
REMARK   10  A    between atoms: N_28  and  C_30
REMARK                            x       y       z     vdW  Elec       q    Type
REMARK                         _______ _______ _______ _____ _____    ______ ____
ROOT
ATOM      1  N   UNL     1       5.690  15.612  20.079  0.00  0.00    +0.000 N 
ATOM      2  C   UNL     1       6.901  15.917  19.443  0.00  0.00    +0.000 A 
ATOM      3  N   UNL     1       7.134  17.185  19.076  0.00  0.00    +0.000 NA
ATOM      4  C   UNL     1       8.230  17.434  18.344  0.00  0.00    +0.000 A 
ATOM      5  C   UNL     1       9.135  16.469  17.973  0.00  0.00    +0.000 A 
ATOM      6  N   UNL     1      10.224  16.808  17.160  0.00  0.00    +0.000 NA
ATOM      7  C   UNL     1      11.005  15.841  16.801  0.00  0.00    +0.000 A 
ATOM      8  C   UNL     1      10.824  14.404  17.211  0.00  0.00    +0.000 A 
ATOM      9  O   UNL     1      11.659  13.617  16.782  0.00  0.00    +0.000 OA
ATOM     10  N   UNL     1       9.761  14.143  18.068  0.00  0.00    +0.000 N 
ATOM     11  C   UNL     1       8.859  15.190  18.448  0.00  0.00    +0.000 A 
ATOM     12  N   UNL     1       7.742  14.909  19.172  0.00  0.00    +0.000 NA
ATOM     13  H   UNL     1       5.608  14.602  20.116  0.00  0.00    +0.000 HD
ENDROOT
BRANCH   1  17
ATOM     14  C   UNL     1       2.023  17.536  19.199  0.00  0.00    +0.000 A 
ATOM     15  C   UNL     1       2.583  16.651  18.285  0.00  0.00    +0.000 A 
ATOM     16  C   UNL     1       3.777  15.997  18.579  0.00  0.00    +0.000 A 
ATOM     17  C   UNL     1       4.465  16.249  19.775  0.00  0.00    +0.000 A 
ATOM     18  C   UNL     1       3.879  17.114  20.704  0.00  0.00    +0.000 A 
ATOM     19  C   UNL     1       2.672  17.771  20.412  0.00  0.00    +0.000 A 
BRANCH  14  21
ATOM     20  C   UNL     1       0.271  17.575  17.618  0.00  0.00    +0.000 C 
ATOM     21  O   UNL     1       0.868  18.134  18.780  0.00  0.00    +0.000 OA
ENDBRANCH  14  21
ENDBRANCH   1  17
BRANCH  10  22
ATOM     22  C   UNL     1       9.581  12.839  18.616  0.00  0.00    +0.000 A 
ATOM     23  C   UNL     1      10.059  12.546  19.900  0.00  0.00    +0.000 A 
ATOM     24  C   UNL     1       9.943  11.263  20.418  0.00  0.00    +0.000 A 
ATOM     25  C   UNL     1       9.320  10.264  19.670  0.00  0.00    +0.000 A 
ATOM     26  C   UNL     1       8.814  10.525  18.397  0.00  0.00    +0.000 A 
ATOM     27  C   UNL     1       8.986  11.810  17.858  0.00  0.00    +0.000 A 
BRANCH  26  28
ATOM     28  N   UNL     1       8.124   9.548  17.631  0.00  0.00    +0.000 N 
ATOM     29  C   UNL     1       8.077   8.199  17.932  0.00  0.00    +0.000 C 
ATOM     30  O   UNL     1       8.600   7.652  18.896  0.00  0.00    +0.000 OA
ATOM     31  H   UNL     1       7.555   9.890  16.869  0.00  0.00    +0.000 HD
BRANCH  29  32
ATOM     32  C   UNL     1       7.244   7.400  16.989  0.00  0.00    +0.000 C 
ATOM     33  C   UNL     1       6.171   6.764  17.492  0.00  0.00    +0.000 C 
BRANCH  33  34
ATOM     34  C   UNL     1       5.162   5.978  16.716  0.00  0.00    +0.000 C 
BRANCH  34  35
ATOM     35  N   UNL     1       5.440   4.536  16.781  0.00  0.00    +0.000 NA
ATOM     36  C   UNL     1       4.262   3.761  17.177  0.00  0.00    +0.000 C 
ATOM     37  C   UNL     1       5.939   4.058  15.491  0.00  0.00    +0.000 C 
ENDBRANCH  34  35
ENDBRANCH  33  34
ENDBRANCH  29  32
ENDBRANCH  26  28
ENDBRANCH  10  22
TORSDOF 7
ENDMDL
MODEL 6
REMARK VINA RESULT:      -7.7      0.985      1.068
REMARK  Name = 
REMARK  10 active torsions:
REMARK  status: ('A' for Active; 'I' for Inactive)
REMARK    1  A    between atoms: C_1  and  O_2
REMARK    2  A    between atoms: O_2  and  C_3
REMARK    3  A    between atoms: C_6  and  N_7
REMARK    4  A    between atoms: N_16  and  C_17
REMARK    5  A    between atoms: C_21  and  N_22
REMARK    6  A    between atoms: C_23  and  C_25
REMARK    7  A    between atoms: C_26  and  C_27
REMARK    8  A    between atoms: C_27  and  N_28
REMARK    9  A    between atoms: N_28  and  C_29
REMARK   10  A    between atoms: N_28  and  C_30
REMARK                            x       y       z     vdW  Elec       q    Type
REMARK                         _______ _______ _______ _____ _____    ______ ____
ROOT
ATOM      1  N   UNL     1       1.594   8.145  18.980  0.00  0.00    +0.000 N 
ATOM      2  C   UNL     1       1.747   6.825  19.425  0.00  0.00    +0.000 A 
ATOM      3  N   UNL     1       0.889   6.349  20.338  0.00  0.00    +0.000 NA
ATOM      4  C   UNL     1       1.134   5.137  20.857  0.00  0.00    +0.000 A 
ATOM      5  C   UNL     1       2.198   4.350  20.487  0.00  0.00    +0.000 A 
ATOM      6  N   UNL     1       2.411   3.120  21.122  0.00  0.00    +0.000 NA
ATOM      7  C   UNL     1       3.463   2.457  20.766  0.00  0.00    +0.000 A 
ATOM      8  C   UNL     1       4.444   2.913  19.720  0.00  0.00    +0.000 A 
ATOM      9  O   UNL     1       5.385   2.160  19.505  0.00  0.00    +0.000 OA
ATOM     10  N   UNL     1       4.144   4.113  19.084  0.00  0.00    +0.000 N 
ATOM     11  C   UNL     1       3.005   4.885  19.488  0.00  0.00    +0.000 A 
ATOM     12  N   UNL     1       2.790   6.121  18.963  0.00  0.00    +0.000 NA
ATOM     13  H   UNL     1       2.420   8.387  18.445  0.00  0.00    +0.000 HD
ENDROOT
BRANCH   1  17
ATOM     14  C   UNL     1       0.253  11.328  21.428  0.00  0.00    +0.000 A 
ATOM     15  C   UNL     1       0.732  10.158  22.006  0.00  0.00    +0.000 A 
ATOM     16  C   UNL     1       1.197   9.117  21.206  0.00  0.00    +0.000 A 
ATOM     17  C   UNL     1       1.148   9.202  19.807  0.00  0.00    +0.000 A 
ATOM     18  C   UNL     1       0.697  10.395  19.233  0.00  0.00    +0.000 A 
ATOM     19  C   UNL     1       0.233  11.449  20.038  0.00  0.00    +0.000 A 
BRANCH  14  21
ATOM     20  C   UNL     1       0.074  13.614  21.986  0.00  0.00    +0.000 C 
ATOM     21  O   UNL     1      -0.200  12.261  22.319  0.00  0.00    +0.000 OA
ENDBRANCH  14  21
ENDBRANCH   1  17
BRANCH  10  22
ATOM     22  C   UNL     1       4.939   4.567  17.991  0.00  0.00    +0.000 A 
ATOM     23  C   UNL     1       5.108   3.756  16.862  0.00  0.00    +0.000 A 
ATOM     24  C   UNL     1       5.929   4.163  15.819  0.00  0.00    +0.000 A 
ATOM     25  C   UNL     1       6.568   5.402  15.879  0.00  0.00    +0.000 A 
ATOM     26  C   UNL     1       6.406   6.245  16.979  0.00  0.00    +0.000 A 
ATOM     27  C   UNL     1       5.620   5.801  18.054  0.00  0.00    +0.000 A 
BRANCH  26  28
ATOM     28  N   UNL     1       6.995   7.535  17.049  0.00  0.00    +0.000 N 
ATOM     29  C   UNL     1       7.939   7.922  17.983  0.00  0.00    +0.000 C 
ATOM     30  O   UNL     1       8.415   7.220  18.867  0.00  0.00    +0.000 OA
ATOM     31  H   UNL     1       6.769   8.176  16.301  0.00  0.00    +0.000 HD
BRANCH  29  32
ATOM     32  C   UNL     1       8.427   9.319  17.803  0.00  0.00    +0.000 C 
ATOM     33  C   UNL     1       9.048   9.900  18.844  0.00  0.00    +0.000 C 
BRANCH  33  34
ATOM     34  C   UNL     1       9.681  11.256  18.854  0.00  0.00    +0.000 C 
BRANCH  34  35
ATOM     35  N   UNL     1      10.681  11.372  19.926  0.00  0.00    +0.000 NA
ATOM     36  C   UNL     1      11.992  11.782  19.419  0.00  0.00    +0.000 C 
ATOM     37  C   UNL     1      10.223  12.319  20.944  0.00  0.00    +0.000 C 
ENDBRANCH  34  35
ENDBRANCH  33  34
ENDBRANCH  29  32
ENDBRANCH  26  28
ENDBRANCH  10  22
TORSDOF 7
ENDMDL
MODEL 7
REMARK VINA RESULT:      -7.6      1.021      1.299
REMARK  Name = 
REMARK  10 active torsions:
REMARK  status: ('A' for Active; 'I' for Inactive)
REMARK    1  A    between atoms: C_1  and  O_2
REMARK    2  A    between atoms: O_2  and  C_3
REMARK    3  A    between atoms: C_6  and  N_7
REMARK    4  A    between atoms: N_16  and  C_17
REMARK    5  A    between atoms: C_21  and  N_22
REMARK    6  A    between atoms: C_23  and  C_25
REMARK    7  A    between atoms: C_26  and  C_27
REMARK    8  A    between atoms: C_27  and  N_28
REMARK    9  A    between atoms: N_28  and  C_29
REMARK   10  A    between atoms: N_28  and  C_30
REMARK                            x       y       z     vdW  Elec       q    Type
REMARK                         _______ _______ _______ _____ _____    ______ ____
ROOT
ATOM      1  N   UNL     1       1.641   8.458  18.917  0.00  0.00    +0.000 N 
ATOM      2  C   UNL     1       1.780   7.141  19.375  0.00  0.00    +0.000 A 
ATOM      3  N   UNL     1       0.920   6.686  20.297  0.00  0.00    +0.000 NA
ATOM      4  C   UNL     1       1.152   5.476  20.828  0.00  0.00    +0.000 A 
ATOM      5  C   UNL     1       2.203   4.671  20.461  0.00  0.00    +0.000 A 
ATOM      6  N   UNL     1       2.403   3.445  21.107  0.00  0.00    +0.000 NA
ATOM      7  C   UNL     1       3.445   2.764  20.753  0.00  0.00    +0.000 A 
ATOM      8  C   UNL     1       4.426   3.197  19.698  0.00  0.00    +0.000 A 
ATOM      9  O   UNL     1       5.356   2.429  19.486  0.00  0.00    +0.000 OA
ATOM     10  N   UNL     1       4.138   4.394  19.050  0.00  0.00    +0.000 N 
ATOM     11  C   UNL     1       3.012   5.185  19.452  0.00  0.00    +0.000 A 
ATOM     12  N   UNL     1       2.811   6.418  18.915  0.00  0.00    +0.000 NA
ATOM     13  H   UNL     1       2.468   8.683  18.375  0.00  0.00    +0.000 HD
ENDROOT
BRANCH   1  17
ATOM     14  C   UNL     1       0.355  11.644  21.390  0.00  0.00    +0.000 A 
ATOM     15  C   UNL     1       0.776  11.897  20.090  0.00  0.00    +0.000 A 
ATOM     16  C   UNL     1       1.178  10.850  19.264  0.00  0.00    +0.000 A 
ATOM     17  C   UNL     1       1.214   9.529  19.735  0.00  0.00    +0.000 A 
ATOM     18  C   UNL     1       0.757   9.278  21.032  0.00  0.00    +0.000 A 
ATOM     19  C   UNL     1       0.346  10.332  21.865  0.00  0.00    +0.000 A 
BRANCH  14  21
ATOM     20  C   UNL     1      -1.224  13.359  21.759  0.00  0.00    +0.000 C 
ATOM     21  O   UNL     1       0.015  12.757  22.107  0.00  0.00    +0.000 OA
ENDBRANCH  14  21
ENDBRANCH   1  17
BRANCH  10  22
ATOM     22  C   UNL     1       4.934   4.826  17.949  0.00  0.00    +0.000 A 
ATOM     23  C   UNL     1       5.045   4.023  16.807  0.00  0.00    +0.000 A 
ATOM     24  C   UNL     1       5.865   4.406  15.754  0.00  0.00    +0.000 A 
ATOM     25  C   UNL     1       6.561   5.613  15.818  0.00  0.00    +0.000 A 
ATOM     26  C   UNL     1       6.457   6.448  16.931  0.00  0.00    +0.000 A 
ATOM     27  C   UNL     1       5.671   6.026  18.014  0.00  0.00    +0.000 A 
BRANCH  26  28
ATOM     28  N   UNL     1       7.106   7.709  17.006  0.00  0.00    +0.000 N 
ATOM     29  C   UNL     1       8.038   8.061  17.965  0.00  0.00    +0.000 C 
ATOM     30  O   UNL     1       8.451   7.348  18.872  0.00  0.00    +0.000 OA
ATOM     31  H   UNL     1       6.936   8.351  16.244  0.00  0.00    +0.000 HD
BRANCH  29  32
ATOM     32  C   UNL     1       8.599   9.431  17.786  0.00  0.00    +0.000 C 
ATOM     33  C   UNL     1       8.899  10.130  18.895  0.00  0.00    +0.000 C 
BRANCH  33  34
ATOM     34  C   UNL     1       9.541  11.481  18.944  0.00  0.00    +0.000 C 
BRANCH  34  35
ATOM     35  N   UNL     1      10.735  11.538  18.087  0.00  0.00    +0.000 NA
ATOM     36  C   UNL     1      10.761  12.742  17.254  0.00  0.00    +0.000 C 
ATOM     37  C   UNL     1      11.948  11.471  18.903  0.00  0.00    +0.000 C 
ENDBRANCH  34  35
ENDBRANCH  33  34
ENDBRANCH  29  32
ENDBRANCH  26  28
ENDBRANCH  10  22
TORSDOF 7
ENDMDL
MODEL 8
REMARK VINA RESULT:      -7.6      3.101      5.344
REMARK  Name = 
REMARK  10 active torsions:
REMARK  status: ('A' for Active; 'I' for Inactive)
REMARK    1  A    between atoms: C_1  and  O_2
REMARK    2  A    between atoms: O_2  and  C_3
REMARK    3  A    between atoms: C_6  and  N_7
REMARK    4  A    between atoms: N_16  and  C_17
REMARK    5  A    between atoms: C_21  and  N_22
REMARK    6  A    between atoms: C_23  and  C_25
REMARK    7  A    between atoms: C_26  and  C_27
REMARK    8  A    between atoms: C_27  and  N_28
REMARK    9  A    between atoms: N_28  and  C_29
REMARK   10  A    between atoms: N_28  and  C_30
REMARK                            x       y       z     vdW  Elec       q    Type
REMARK                         _______ _______ _______ _____ _____    ______ ____
ROOT
ATOM      1  N   UNL     1       2.006   7.913  19.499  0.00  0.00    +0.000 N 
ATOM      2  C   UNL     1       1.987   6.555  19.846  0.00  0.00    +0.000 A 
ATOM      3  N   UNL     1       0.902   6.062  20.460  0.00  0.00    +0.000 NA
ATOM      4  C   UNL     1       0.957   4.800  20.911  0.00  0.00    +0.000 A 
ATOM      5  C   UNL     1       2.050   3.981  20.757  0.00  0.00    +0.000 A 
ATOM      6  N   UNL     1       2.042   2.695  21.310  0.00  0.00    +0.000 NA
ATOM      7  C   UNL     1       3.125   1.998  21.177  0.00  0.00    +0.000 A 
ATOM      8  C   UNL     1       4.361   2.475  20.465  0.00  0.00    +0.000 A 
ATOM      9  O   UNL     1       5.297   1.685  20.431  0.00  0.00    +0.000 OA
ATOM     10  N   UNL     1       4.284   3.737  19.886  0.00  0.00    +0.000 N 
ATOM     11  C   UNL     1       3.110   4.543  20.052  0.00  0.00    +0.000 A 
ATOM     12  N   UNL     1       3.087   5.827  19.605  0.00  0.00    +0.000 NA
ATOM     13  H   UNL     1       2.951   8.145  19.219  0.00  0.00    +0.000 HD
ENDROOT
BRANCH   1  17
ATOM     14  C   UNL     1       0.188  10.966  21.799  0.00  0.00    +0.000 A 
ATOM     15  C   UNL     1       0.701   9.835  22.423  0.00  0.00    +0.000 A 
ATOM     16  C   UNL     1       1.322   8.839  21.674  0.00  0.00    +0.000 A 
ATOM     17  C   UNL     1       1.400   8.926  20.276  0.00  0.00    +0.000 A 
ATOM     18  C   UNL     1       0.912  10.082  19.659  0.00  0.00    +0.000 A 
ATOM     19  C   UNL     1       0.291  11.091  20.413  0.00  0.00    +0.000 A 
BRANCH  14  21
ATOM     20  C   UNL     1      -1.773  11.563  22.969  0.00  0.00    +0.000 C 
ATOM     21  O   UNL     1      -0.422  11.855  22.640  0.00  0.00    +0.000 OA
ENDBRANCH  14  21
ENDBRANCH   1  17
BRANCH  10  22
ATOM     22  C   UNL     1       5.354   4.227  19.080  0.00  0.00    +0.000 A 
ATOM     23  C   UNL     1       6.340   5.045  19.646  0.00  0.00    +0.000 A 
ATOM     24  C   UNL     1       7.352   5.577  18.857  0.00  0.00    +0.000 A 
ATOM     25  C   UNL     1       7.407   5.271  17.498  0.00  0.00    +0.000 A 
ATOM     26  C   UNL     1       6.454   4.442  16.905  0.00  0.00    +0.000 A 
ATOM     27  C   UNL     1       5.403   3.956  17.697  0.00  0.00    +0.000 A 
BRANCH  26  28
ATOM     28  N   UNL     1       6.512   4.065  15.537  0.00  0.00    +0.000 N 
ATOM     29  C   UNL     1       6.180   4.888  14.477  0.00  0.00    +0.000 C 
ATOM     30  O   UNL     1       5.806   6.053  14.551  0.00  0.00    +0.000 OA
ATOM     31  H   UNL     1       6.916   3.160  15.334  0.00  0.00    +0.000 HD
BRANCH  29  32
ATOM     32  C   UNL     1       6.375   4.257  13.140  0.00  0.00    +0.000 C 
ATOM     33  C   UNL     1       5.562   3.239  12.807  0.00  0.00    +0.000 C 
BRANCH  33  34
ATOM     34  C   UNL     1       5.532   2.521  11.494  0.00  0.00    +0.000 C 
BRANCH  34  35
ATOM     35  N   UNL     1       6.526   1.439  11.454  0.00  0.00    +0.000 NA
ATOM     36  C   UNL     1       5.963   0.188  10.940  0.00  0.00    +0.000 C 
ATOM     37  C   UNL     1       7.676   1.837  10.641  0.00  0.00    +0.000 C 
ENDBRANCH  34  35
ENDBRANCH  33  34
ENDBRANCH  29  32
ENDBRANCH  26  28
ENDBRANCH  10  22
TORSDOF 7
ENDMDL
MODEL 9
REMARK VINA RESULT:      -7.3      5.122      9.848
REMARK  Name = 
REMARK  10 active torsions:
REMARK  status: ('A' for Active; 'I' for Inactive)
REMARK    1  A    between atoms: C_1  and  O_2
REMARK    2  A    between atoms: O_2  and  C_3
REMARK    3  A    between atoms: C_6  and  N_7
REMARK    4  A    between atoms: N_16  and  C_17
REMARK    5  A    between atoms: C_21  and  N_22
REMARK    6  A    between atoms: C_23  and  C_25
REMARK    7  A    between atoms: C_26  and  C_27
REMARK    8  A    between atoms: C_27  and  N_28
REMARK    9  A    between atoms: N_28  and  C_29
REMARK   10  A    between atoms: N_28  and  C_30
REMARK                            x       y       z     vdW  Elec       q    Type
REMARK                         _______ _______ _______ _____ _____    ______ ____
ROOT
ATOM      1  N   UNL     1       5.580  15.798  19.901  0.00  0.00    +0.000 N 
ATOM      2  C   UNL     1       6.845  16.104  19.379  0.00  0.00    +0.000 A 
ATOM      3  N   UNL     1       7.037  17.307  18.819  0.00  0.00    +0.000 NA
ATOM      4  C   UNL     1       8.205  17.530  18.200  0.00  0.00    +0.000 A 
ATOM      5  C   UNL     1       9.221  16.607  18.131  0.00  0.00    +0.000 A 
ATOM      6  N   UNL     1      10.387  16.904  17.416  0.00  0.00    +0.000 NA
ATOM      7  C   UNL     1      11.279  15.969  17.342  0.00  0.00    +0.000 A 
ATOM      8  C   UNL     1      11.144  14.613  17.981  0.00  0.00    +0.000 A 
ATOM      9  O   UNL     1      12.086  13.848  17.814  0.00  0.00    +0.000 OA
ATOM     10  N   UNL     1       9.991  14.403  18.729  0.00  0.00    +0.000 N 
ATOM     11  C   UNL     1       8.972  15.408  18.793  0.00  0.00    +0.000 A 
ATOM     12  N   UNL     1       7.786  15.150  19.407  0.00  0.00    +0.000 NA
ATOM     13  H   UNL     1       5.566  14.807  20.111  0.00  0.00    +0.000 HD
ENDROOT
BRANCH   1  17
ATOM     14  C   UNL     1       1.963  17.151  18.166  0.00  0.00    +0.000 A 
ATOM     15  C   UNL     1       2.230  17.402  19.507  0.00  0.00    +0.000 A 
ATOM     16  C   UNL     1       3.429  16.981  20.077  0.00  0.00    +0.000 A 
ATOM     17  C   UNL     1       4.369  16.254  19.331  0.00  0.00    +0.000 A 
ATOM     18  C   UNL     1       4.109  16.034  17.975  0.00  0.00    +0.000 A 
ATOM     19  C   UNL     1       2.903  16.464  17.397  0.00  0.00    +0.000 A 
BRANCH  14  21
ATOM     20  C   UNL     1       0.768  18.615  16.753  0.00  0.00    +0.000 C 
ATOM     21  O   UNL     1       0.742  17.589  17.736  0.00  0.00    +0.000 OA
ENDBRANCH  14  21
ENDBRANCH   1  17
BRANCH  10  22
ATOM     22  C   UNL     1       9.828  13.201  19.479  0.00  0.00    +0.000 A 
ATOM     23  C   UNL     1       9.894  13.232  20.877  0.00  0.00    +0.000 A 
ATOM     24  C   UNL     1       9.797  12.059  21.613  0.00  0.00    +0.000 A 
ATOM     25  C   UNL     1       9.604  10.842  20.961  0.00  0.00    +0.000 A 
ATOM     26  C   UNL     1       9.512  10.775  19.570  0.00  0.00    +0.000 A 
ATOM     27  C   UNL     1       9.668  11.958  18.831  0.00  0.00    +0.000 A 
BRANCH  26  28
ATOM     28  N   UNL     1       9.259   9.563  18.876  0.00  0.00    +0.000 N 
ATOM     29  C   UNL     1       8.204   9.358  18.006  0.00  0.00    +0.000 C 
ATOM     30  O   UNL     1       7.351  10.180  17.692  0.00  0.00    +0.000 OA
ATOM     31  H   UNL     1       9.959   8.838  18.961  0.00  0.00    +0.000 HD
BRANCH  29  32
ATOM     32  C   UNL     1       8.197   8.007  17.375  0.00  0.00    +0.000 C 
ATOM     33  C   UNL     1       7.364   7.084  17.889  0.00  0.00    +0.000 C 
BRANCH  33  34
ATOM     34  C   UNL     1       7.141   5.701  17.363  0.00  0.00    +0.000 C 
BRANCH  34  35
ATOM     35  N   UNL     1       6.630   5.727  15.985  0.00  0.00    +0.000 NA
ATOM     36  C   UNL     1       6.637   4.400  15.366  0.00  0.00    +0.000 C 
ATOM     37  C   UNL     1       5.275   6.281  15.959  0.00  0.00    +0.000 C 
ENDBRANCH  34  35
ENDBRANCH  33  34
ENDBRANCH  29  32
ENDBRANCH  26  28
ENDBRANCH  10  22
TORSDOF 7
ENDMDL
