MODEL 1
REMARK VINA RESULT:      -6.4      0.000      0.000
REMARK  Name = 
REMARK  8 active torsions:
REMARK  status: ('A' for Active; 'I' for Inactive)
REMARK    1  A    between atoms: C_1  and  C_2
REMARK    2  A    between atoms: C_4  and  N_5
REMARK    3  A    between atoms: N_9  and  C_10
REMARK    4  A    between atoms: C_10  and  C_11
REMARK    5  A    between atoms: N_13  and  C_14
REMARK    6  A    between atoms: C_14  and  C_15
REMARK    7  A    between atoms: C_15  and  C_16
REMARK    8  A    between atoms: C_16  and  O_17
REMARK                            x       y       z     vdW  Elec       q    Type
REMARK                         _______ _______ _______ _____ _____    ______ ____
ROOT
ATOM      1  C   UNL     1       5.043   5.520  18.815  0.00  0.00    +0.000 C 
ENDROOT
BRANCH   1   7
ATOM      2  C   UNL     1       7.869   6.763  18.511  0.00  0.00    +0.000 C 
ATOM      3  C   UNL     1       7.126   6.024  17.459  0.00  0.00    +0.000 A 
ATOM      4  N   UNL     1       7.558   5.824  16.223  0.00  0.00    +0.000 NA
ATOM      5  C   UNL     1       6.562   5.124  15.586  0.00  0.00    +0.000 A 
ATOM      6  C   UNL     1       5.504   4.892  16.438  0.00  0.00    +0.000 A 
ATOM      7  N   UNL     1       5.878   5.459  17.630  0.00  0.00    +0.000 N 
BRANCH   5   8
ATOM      8  N   UNL     1       6.676   4.737  14.197  0.00  0.00    +0.000 N 
ATOM      9  O   UNL     1       7.541   5.325  13.530  0.00  0.00    +0.000 OA
ATOM     10  O   UNL     1       5.920   3.851  13.776  0.00  0.00    +0.000 OA
ENDBRANCH   5   8
ENDBRANCH   1   7
BRANCH   1  11
ATOM     11  C   UNL     1       4.432   4.178  19.153  0.00  0.00    +0.000 C 
ATOM     12  O   UNL     1       5.121   3.251  19.574  0.00  0.00    +0.000 OA
ATOM     13  N   UNL     1       3.068   4.069  18.962  0.00  0.00    +0.000 N 
ATOM     14  H   UNL     1       2.541   4.836  18.558  0.00  0.00    +0.000 HD
BRANCH  13  15
ATOM     15  C   UNL     1       2.351   2.852  19.302  0.00  0.00    +0.000 C 
BRANCH  15  16
ATOM     16  C   UNL     1       1.192   3.088  20.261  0.00  0.00    +0.000 C 
BRANCH  16  17
ATOM     17  C   UNL     1       1.511   2.661  21.686  0.00  0.00    +0.000 C 
BRANCH  17  18
ATOM     18  O   UNL     1       2.921   2.564  21.846  0.00  0.00    +0.000 OA
ATOM     19  H   UNL     1       3.227   1.808  21.315  0.00  0.00    +0.000 HD
ENDBRANCH  17  18
ENDBRANCH  16  17
ENDBRANCH  15  16
ENDBRANCH  13  15
ENDBRANCH   1  11
TORSDOF 7
ENDMDL
MODEL 2
REMARK VINA RESULT:      -6.4      1.109      1.570
REMARK  Name = 
REMARK  8 active torsions:
REMARK  status: ('A' for Active; 'I' for Inactive)
REMARK    1  A    between atoms: C_1  and  C_2
REMARK    2  A    between atoms: C_4  and  N_5
REMARK    3  A    between atoms: N_9  and  C_10
REMARK    4  A    between atoms: C_10  and  C_11
REMARK    5  A    between atoms: N_13  and  C_14
REMARK    6  A    between atoms: C_14  and  C_15
REMARK    7  A    between atoms: C_15  and  C_16
REMARK    8  A    between atoms: C_16  and  O_17
REMARK                            x       y       z     vdW  Elec       q    Type
REMARK                         _______ _______ _______ _____ _____    ______ ____
ROOT
ATOM      1  C   UNL     1       5.223   5.008  19.164  0.00  0.00    +0.000 C 
ENDROOT
BRANCH   1   7
ATOM      2  C   UNL     1       3.863   7.251  17.506  0.00  0.00    +0.000 C 
ATOM      3  C   UNL     1       4.886   6.297  17.006  0.00  0.00    +0.000 A 
ATOM      4  N   UNL     1       5.336   6.251  15.762  0.00  0.00    +0.000 NA
ATOM      5  C   UNL     1       6.244   5.220  15.728  0.00  0.00    +0.000 A 
ATOM      6  C   UNL     1       6.353   4.623  16.966  0.00  0.00    +0.000 A 
ATOM      7  N   UNL     1       5.494   5.324  17.774  0.00  0.00    +0.000 N 
BRANCH   5   8
ATOM      8  N   UNL     1       6.937   4.858  14.512  0.00  0.00    +0.000 N 
ATOM      9  O   UNL     1       6.479   3.891  13.884  0.00  0.00    +0.000 OA
ATOM     10  O   UNL     1       7.920   5.533  14.179  0.00  0.00    +0.000 OA
ENDBRANCH   5   8
ENDBRANCH   1   7
BRANCH   1  11
ATOM     11  C   UNL     1       4.444   3.720  19.317  0.00  0.00    +0.000 C 
ATOM     12  O   UNL     1       4.972   2.704  19.762  0.00  0.00    +0.000 OA
ATOM     13  N   UNL     1       3.118   3.766  18.929  0.00  0.00    +0.000 N 
ATOM     14  H   UNL     1       2.732   4.605  18.512  0.00  0.00    +0.000 HD
BRANCH  13  15
ATOM     15  C   UNL     1       2.247   2.613  19.077  0.00  0.00    +0.000 C 
BRANCH  15  16
ATOM     16  C   UNL     1       1.214   2.783  20.184  0.00  0.00    +0.000 C 
BRANCH  16  17
ATOM     17  C   UNL     1       1.793   3.425  21.435  0.00  0.00    +0.000 C 
BRANCH  17  18
ATOM     18  O   UNL     1       2.771   2.561  22.002  0.00  0.00    +0.000 OA
ATOM     19  H   UNL     1       3.231   3.056  22.702  0.00  0.00    +0.000 HD
ENDBRANCH  17  18
ENDBRANCH  16  17
ENDBRANCH  15  16
ENDBRANCH  13  15
ENDBRANCH   1  11
TORSDOF 7
ENDMDL
MODEL 3
REMARK VINA RESULT:      -6.3      1.659      1.730
REMARK  Name = 
REMARK  8 active torsions:
REMARK  status: ('A' for Active; 'I' for Inactive)
REMARK    1  A    between atoms: C_1  and  C_2
REMARK    2  A    between atoms: C_4  and  N_5
REMARK    3  A    between atoms: N_9  and  C_10
REMARK    4  A    between atoms: C_10  and  C_11
REMARK    5  A    between atoms: N_13  and  C_14
REMARK    6  A    between atoms: C_14  and  C_15
REMARK    7  A    between atoms: C_15  and  C_16
REMARK    8  A    between atoms: C_16  and  O_17
REMARK                            x       y       z     vdW  Elec       q    Type
REMARK                         _______ _______ _______ _____ _____    ______ ____
ROOT
ATOM      1  C   UNL     1       5.756   4.428  18.497  0.00  0.00    +0.000 C 
ENDROOT
BRANCH   1   7
ATOM      2  C   UNL     1       7.630   6.873  18.131  0.00  0.00    +0.000 C 
ATOM      3  C   UNL     1       7.216   5.927  17.064  0.00  0.00    +0.000 A 
ATOM      4  N   UNL     1       7.564   6.019  15.790  0.00  0.00    +0.000 NA
ATOM      5  C   UNL     1       6.951   4.966  15.155  0.00  0.00    +0.000 A 
ATOM      6  C   UNL     1       6.214   4.218  16.047  0.00  0.00    +0.000 A 
ATOM      7  N   UNL     1       6.399   4.831  17.260  0.00  0.00    +0.000 N 
BRANCH   5   8
ATOM      8  N   UNL     1       7.093   4.752  13.732  0.00  0.00    +0.000 N 
ATOM      9  O   UNL     1       7.881   5.504  13.137  0.00  0.00    +0.000 OA
ATOM     10  O   UNL     1       6.435   3.841  13.212  0.00  0.00    +0.000 OA
ENDBRANCH   5   8
ENDBRANCH   1   7
BRANCH   1  11
ATOM     11  C   UNL     1       4.377   3.851  18.263  0.00  0.00    +0.000 C 
ATOM     12  O   UNL     1       3.459   4.545  17.833  0.00  0.00    +0.000 OA
ATOM     13  N   UNL     1       4.225   2.509  18.558  0.00  0.00    +0.000 N 
ATOM     14  H   UNL     1       4.989   1.981  18.966  0.00  0.00    +0.000 HD
BRANCH  13  15
ATOM     15  C   UNL     1       2.967   1.821  18.325  0.00  0.00    +0.000 C 
BRANCH  15  16
ATOM     16  C   UNL     1       1.984   1.963  19.480  0.00  0.00    +0.000 C 
BRANCH  16  17
ATOM     17  C   UNL     1       0.733   2.738  19.096  0.00  0.00    +0.000 C 
BRANCH  17  18
ATOM     18  O   UNL     1       0.960   3.427  17.872  0.00  0.00    +0.000 OA
ATOM     19  H   UNL     1       1.812   3.121  17.516  0.00  0.00    +0.000 HD
ENDBRANCH  17  18
ENDBRANCH  16  17
ENDBRANCH  15  16
ENDBRANCH  13  15
ENDBRANCH   1  11
TORSDOF 7
ENDMDL
MODEL 4
REMARK VINA RESULT:      -6.2      1.842      2.314
REMARK  Name = 
REMARK  8 active torsions:
REMARK  status: ('A' for Active; 'I' for Inactive)
REMARK    1  A    between atoms: C_1  and  C_2
REMARK    2  A    between atoms: C_4  and  N_5
REMARK    3  A    between atoms: N_9  and  C_10
REMARK    4  A    between atoms: C_10  and  C_11
REMARK    5  A    between atoms: N_13  and  C_14
REMARK    6  A    between atoms: C_14  and  C_15
REMARK    7  A    between atoms: C_15  and  C_16
REMARK    8  A    between atoms: C_16  and  O_17
REMARK                            x       y       z     vdW  Elec       q    Type
REMARK                         _______ _______ _______ _____ _____    ______ ____
ROOT
ATOM      1  C   UNL     1       6.107   5.349  18.906  0.00  0.00    +0.000 C 
ENDROOT
BRANCH   1   7
ATOM      2  C   UNL     1       4.154   7.150  17.303  0.00  0.00    +0.000 C 
ATOM      3  C   UNL     1       5.233   6.307  16.726  0.00  0.00    +0.000 A 
ATOM      4  N   UNL     1       5.487   6.181  15.433  0.00  0.00    +0.000 NA
ATOM      5  C   UNL     1       6.539   5.301  15.342  0.00  0.00    +0.000 A 
ATOM      6  C   UNL     1       6.934   4.878  16.593  0.00  0.00    +0.000 A 
ATOM      7  N   UNL     1       6.104   5.534  17.466  0.00  0.00    +0.000 N 
BRANCH   5   8
ATOM      8  N   UNL     1       7.087   4.904  14.064  0.00  0.00    +0.000 N 
ATOM      9  O   UNL     1       8.074   5.540  13.665  0.00  0.00    +0.000 OA
ATOM     10  O   UNL     1       6.547   3.963  13.466  0.00  0.00    +0.000 OA
ENDBRANCH   5   8
ENDBRANCH   1   7
BRANCH   1  11
ATOM     11  C   UNL     1       4.971   4.465  19.371  0.00  0.00    +0.000 C 
ATOM     12  O   UNL     1       3.931   4.944  19.817  0.00  0.00    +0.000 OA
ATOM     13  N   UNL     1       5.179   3.103  19.258  0.00  0.00    +0.000 N 
ATOM     14  H   UNL     1       6.072   2.743  18.939  0.00  0.00    +0.000 HD
BRANCH  13  15
ATOM     15  C   UNL     1       4.145   2.148  19.617  0.00  0.00    +0.000 C 
BRANCH  15  16
ATOM     16  C   UNL     1       3.476   1.508  18.408  0.00  0.00    +0.000 C 
BRANCH  16  17
ATOM     17  C   UNL     1       2.277   2.302  17.912  0.00  0.00    +0.000 C 
BRANCH  17  18
ATOM     18  O   UNL     1       2.726   3.495  17.282  0.00  0.00    +0.000 OA
ATOM     19  H   UNL     1       3.379   3.244  16.606  0.00  0.00    +0.000 HD
ENDBRANCH  17  18
ENDBRANCH  16  17
ENDBRANCH  15  16
ENDBRANCH  13  15
ENDBRANCH   1  11
TORSDOF 7
ENDMDL
MODEL 5
REMARK VINA RESULT:      -6.2      1.125      1.274
REMARK  Name = 
REMARK  8 active torsions:
REMARK  status: ('A' for Active; 'I' for Inactive)
REMARK    1  A    between atoms: C_1  and  C_2
REMARK    2  A    between atoms: C_4  and  N_5
REMARK    3  A    between atoms: N_9  and  C_10
REMARK    4  A    between atoms: C_10  and  C_11
REMARK    5  A    between atoms: N_13  and  C_14
REMARK    6  A    between atoms: C_14  and  C_15
REMARK    7  A    between atoms: C_15  and  C_16
REMARK    8  A    between atoms: C_16  and  O_17
REMARK                            x       y       z     vdW  Elec       q    Type
REMARK                         _______ _______ _______ _____ _____    ______ ____
ROOT
ATOM      1  C   UNL     1       4.515   5.693  18.495  0.00  0.00    +0.000 C 
ENDROOT
BRANCH   1   7
ATOM      2  C   UNL     1       7.567   5.750  19.053  0.00  0.00    +0.000 C 
ATOM      3  C   UNL     1       6.927   5.477  17.741  0.00  0.00    +0.000 A 
ATOM      4  N   UNL     1       7.579   5.253  16.611  0.00  0.00    +0.000 NA
ATOM      5  C   UNL     1       6.614   5.070  15.650  0.00  0.00    +0.000 A 
ATOM      6  C   UNL     1       5.353   5.186  16.194  0.00  0.00    +0.000 A 
ATOM      7  N   UNL     1       5.564   5.433  17.527  0.00  0.00    +0.000 N 
BRANCH   5   8
ATOM      8  N   UNL     1       6.957   4.816  14.268  0.00  0.00    +0.000 N 
ATOM      9  O   UNL     1       7.888   5.490  13.798  0.00  0.00    +0.000 OA
ATOM     10  O   UNL     1       6.316   3.950  13.659  0.00  0.00    +0.000 OA
ENDBRANCH   5   8
ENDBRANCH   1   7
BRANCH   1  11
ATOM     11  C   UNL     1       4.034   4.428  19.171  0.00  0.00    +0.000 C 
ATOM     12  O   UNL     1       4.585   3.348  18.971  0.00  0.00    +0.000 OA
ATOM     13  N   UNL     1       2.950   4.569  20.018  0.00  0.00    +0.000 N 
ATOM     14  H   UNL     1       2.485   5.465  20.114  0.00  0.00    +0.000 HD
BRANCH  13  15
ATOM     15  C   UNL     1       2.427   3.442  20.770  0.00  0.00    +0.000 C 
BRANCH  15  16
ATOM     16  C   UNL     1       1.020   3.042  20.345  0.00  0.00    +0.000 C 
BRANCH  16  17
ATOM     17  C   UNL     1       0.969   2.486  18.930  0.00  0.00    +0.000 C 
BRANCH  17  18
ATOM     18  O   UNL     1       2.081   1.624  18.720  0.00  0.00    +0.000 OA
ATOM     19  H   UNL     1       1.974   1.214  17.844  0.00  0.00    +0.000 HD
ENDBRANCH  17  18
ENDBRANCH  16  17
ENDBRANCH  15  16
ENDBRANCH  13  15
ENDBRANCH   1  11
TORSDOF 7
ENDMDL
MODEL 6
REMARK VINA RESULT:      -6.2      2.088      2.880
REMARK  Name = 
REMARK  8 active torsions:
REMARK  status: ('A' for Active; 'I' for Inactive)
REMARK    1  A    between atoms: C_1  and  C_2
REMARK    2  A    between atoms: C_4  and  N_5
REMARK    3  A    between atoms: N_9  and  C_10
REMARK    4  A    between atoms: C_10  and  C_11
REMARK    5  A    between atoms: N_13  and  C_14
REMARK    6  A    between atoms: C_14  and  C_15
REMARK    7  A    between atoms: C_15  and  C_16
REMARK    8  A    between atoms: C_16  and  O_17
REMARK                            x       y       z     vdW  Elec       q    Type
REMARK                         _______ _______ _______ _____ _____    ______ ____
ROOT
ATOM      1  C   UNL     1       4.227   3.862  17.031  0.00  0.00    +0.000 C 
ENDROOT
BRANCH   1   7
ATOM      2  C   UNL     1       6.079   3.982  14.544  0.00  0.00    +0.000 C 
ATOM      3  C   UNL     1       6.189   4.838  15.753  0.00  0.00    +0.000 A 
ATOM      4  N   UNL     1       7.124   5.753  15.952  0.00  0.00    +0.000 NA
ATOM      5  C   UNL     1       6.869   6.287  17.193  0.00  0.00    +0.000 A 
ATOM      6  C   UNL     1       5.766   5.691  17.765  0.00  0.00    +0.000 A 
ATOM      7  N   UNL     1       5.334   4.779  16.836  0.00  0.00    +0.000 N 
BRANCH   5   8
ATOM      8  N   UNL     1       7.707   7.319  17.761  0.00  0.00    +0.000 N 
ATOM      9  O   UNL     1       8.290   7.036  18.819  0.00  0.00    +0.000 OA
ATOM     10  O   UNL     1       7.792   8.398  17.158  0.00  0.00    +0.000 OA
ENDBRANCH   5   8
ENDBRANCH   1   7
BRANCH   1  11
ATOM     11  C   UNL     1       3.819   3.757  18.484  0.00  0.00    +0.000 C 
ATOM     12  O   UNL     1       4.366   2.962  19.245  0.00  0.00    +0.000 OA
ATOM     13  N   UNL     1       2.807   4.606  18.890  0.00  0.00    +0.000 N 
ATOM     14  H   UNL     1       2.339   5.208  18.222  0.00  0.00    +0.000 HD
BRANCH  13  15
ATOM     15  C   UNL     1       2.362   4.645  20.273  0.00  0.00    +0.000 C 
BRANCH  15  16
ATOM     16  C   UNL     1       1.160   3.747  20.539  0.00  0.00    +0.000 C 
BRANCH  16  17
ATOM     17  C   UNL     1       1.432   2.705  21.613  0.00  0.00    +0.000 C 
BRANCH  17  18
ATOM     18  O   UNL     1       2.828   2.649  21.876  0.00  0.00    +0.000 OA
ATOM     19  H   UNL     1       3.059   3.428  22.411  0.00  0.00    +0.000 HD
ENDBRANCH  17  18
ENDBRANCH  16  17
ENDBRANCH  15  16
ENDBRANCH  13  15
ENDBRANCH   1  11
TORSDOF 7
ENDMDL
MODEL 7
REMARK VINA RESULT:      -6.2      1.553      1.845
REMARK  Name = 
REMARK  8 active torsions:
REMARK  status: ('A' for Active; 'I' for Inactive)
REMARK    1  A    between atoms: C_1  and  C_2
REMARK    2  A    between atoms: C_4  and  N_5
REMARK    3  A    between atoms: N_9  and  C_10
REMARK    4  A    between atoms: C_10  and  C_11
REMARK    5  A    between atoms: N_13  and  C_14
REMARK    6  A    between atoms: C_14  and  C_15
REMARK    7  A    between atoms: C_15  and  C_16
REMARK    8  A    between atoms: C_16  and  O_17
REMARK                            x       y       z     vdW  Elec       q    Type
REMARK                         _______ _______ _______ _____ _____    ______ ____
ROOT
ATOM      1  C   UNL     1       5.732   4.720  18.962  0.00  0.00    +0.000 C 
ENDROOT
BRANCH   1   7
ATOM      2  C   UNL     1       7.780   6.968  18.346  0.00  0.00    +0.000 C 
ATOM      3  C   UNL     1       7.229   5.999  17.363  0.00  0.00    +0.000 A 
ATOM      4  N   UNL     1       7.512   5.986  16.071  0.00  0.00    +0.000 NA
ATOM      5  C   UNL     1       6.779   4.954  15.536  0.00  0.00    +0.000 A 
ATOM      6  C   UNL     1       6.033   4.326  16.511  0.00  0.00    +0.000 A 
ATOM      7  N   UNL     1       6.336   4.992  17.671  0.00  0.00    +0.000 N 
BRANCH   5   8
ATOM      8  N   UNL     1       6.822   4.644  14.124  0.00  0.00    +0.000 N 
ATOM      9  O   UNL     1       6.122   3.691  13.747  0.00  0.00    +0.000 OA
ATOM     10  O   UNL     1       7.536   5.346  13.395  0.00  0.00    +0.000 OA
ENDBRANCH   5   8
ENDBRANCH   1   7
BRANCH   1  11
ATOM     11  C   UNL     1       4.294   5.185  19.030  0.00  0.00    +0.000 C 
ATOM     12  O   UNL     1       3.929   6.216  18.468  0.00  0.00    +0.000 OA
ATOM     13  N   UNL     1       3.432   4.383  19.754  0.00  0.00    +0.000 N 
ATOM     14  H   UNL     1       3.780   3.571  20.253  0.00  0.00    +0.000 HD
BRANCH  13  15
ATOM     15  C   UNL     1       2.015   4.688  19.850  0.00  0.00    +0.000 C 
BRANCH  15  16
ATOM     16  C   UNL     1       1.153   3.455  20.091  0.00  0.00    +0.000 C 
BRANCH  16  17
ATOM     17  C   UNL     1       0.823   2.709  18.807  0.00  0.00    +0.000 C 
BRANCH  17  18
ATOM     18  O   UNL     1       1.501   3.319  17.716  0.00  0.00    +0.000 OA
ATOM     19  H   UNL     1       1.925   4.129  18.049  0.00  0.00    +0.000 HD
ENDBRANCH  17  18
ENDBRANCH  16  17
ENDBRANCH  15  16
ENDBRANCH  13  15
ENDBRANCH   1  11
TORSDOF 7
ENDMDL
MODEL 8
REMARK VINA RESULT:      -6.2      1.223      1.223
REMARK  Name = 
REMARK  8 active torsions:
REMARK  status: ('A' for Active; 'I' for Inactive)
REMARK    1  A    between atoms: C_1  and  C_2
REMARK    2  A    between atoms: C_4  and  N_5
REMARK    3  A    between atoms: N_9  and  C_10
REMARK    4  A    between atoms: C_10  and  C_11
REMARK    5  A    between atoms: N_13  and  C_14
REMARK    6  A    between atoms: C_14  and  C_15
REMARK    7  A    between atoms: C_15  and  C_16
REMARK    8  A    between atoms: C_16  and  O_17
REMARK                            x       y       z     vdW  Elec       q    Type
REMARK                         _______ _______ _______ _____ _____    ______ ____
ROOT
ATOM      1  C   UNL     1       5.404   4.291  18.489  0.00  0.00    +0.000 C 
ENDROOT
BRANCH   1   7
ATOM      2  C   UNL     1       7.560   6.516  18.334  0.00  0.00    +0.000 C 
ATOM      3  C   UNL     1       7.093   5.677  17.201  0.00  0.00    +0.000 A 
ATOM      4  N   UNL     1       7.510   5.790  15.950  0.00  0.00    +0.000 NA
ATOM      5  C   UNL     1       6.813   4.847  15.234  0.00  0.00    +0.000 A 
ATOM      6  C   UNL     1       5.953   4.147  16.053  0.00  0.00    +0.000 A 
ATOM      7  N   UNL     1       6.148   4.676  17.304  0.00  0.00    +0.000 N 
BRANCH   5   8
ATOM      8  N   UNL     1       6.997   4.687  13.809  0.00  0.00    +0.000 N 
ATOM      9  O   UNL     1       7.773   5.485  13.260  0.00  0.00    +0.000 OA
ATOM     10  O   UNL     1       6.384   3.772  13.241  0.00  0.00    +0.000 OA
ENDBRANCH   5   8
ENDBRANCH   1   7
BRANCH   1  11
ATOM     11  C   UNL     1       3.909   4.401  18.287  0.00  0.00    +0.000 C 
ATOM     12  O   UNL     1       3.389   5.456  17.928  0.00  0.00    +0.000 OA
ATOM     13  N   UNL     1       3.179   3.252  18.528  0.00  0.00    +0.000 N 
ATOM     14  H   UNL     1       3.635   2.417  18.879  0.00  0.00    +0.000 HD
BRANCH  13  15
ATOM     15  C   UNL     1       1.743   3.210  18.316  0.00  0.00    +0.000 C 
BRANCH  15  16
ATOM     16  C   UNL     1       0.956   2.984  19.601  0.00  0.00    +0.000 C 
BRANCH  16  17
ATOM     17  C   UNL     1       1.109   4.128  20.592  0.00  0.00    +0.000 C 
BRANCH  17  18
ATOM     18  O   UNL     1       2.221   3.872  21.441  0.00  0.00    +0.000 OA
ATOM     19  H   UNL     1       1.874   3.658  22.325  0.00  0.00    +0.000 HD
ENDBRANCH  17  18
ENDBRANCH  16  17
ENDBRANCH  15  16
ENDBRANCH  13  15
ENDBRANCH   1  11
TORSDOF 7
ENDMDL
MODEL 9
REMARK VINA RESULT:      -6.1      2.234      3.050
REMARK  Name = 
REMARK  8 active torsions:
REMARK  status: ('A' for Active; 'I' for Inactive)
REMARK    1  A    between atoms: C_1  and  C_2
REMARK    2  A    between atoms: C_4  and  N_5
REMARK    3  A    between atoms: N_9  and  C_10
REMARK    4  A    between atoms: C_10  and  C_11
REMARK    5  A    between atoms: N_13  and  C_14
REMARK    6  A    between atoms: C_14  and  C_15
REMARK    7  A    between atoms: C_15  and  C_16
REMARK    8  A    between atoms: C_16  and  O_17
REMARK                            x       y       z     vdW  Elec       q    Type
REMARK                         _______ _______ _______ _____ _____    ______ ____
ROOT
ATOM      1  C   UNL     1       4.522   3.855  17.129  0.00  0.00    +0.000 C 
ENDROOT
BRANCH   1   7
ATOM      2  C   UNL     1       6.384   4.024  14.653  0.00  0.00    +0.000 C 
ATOM      3  C   UNL     1       6.431   4.917  15.840  0.00  0.00    +0.000 A 
ATOM      4  N   UNL     1       7.305   5.894  16.020  0.00  0.00    +0.000 NA
ATOM      5  C   UNL     1       7.007   6.444  17.244  0.00  0.00    +0.000 A 
ATOM      6  C   UNL     1       5.938   5.796  17.825  0.00  0.00    +0.000 A 
ATOM      7  N   UNL     1       5.572   4.834  16.918  0.00  0.00    +0.000 N 
BRANCH   5   8
ATOM      8  N   UNL     1       7.774   7.542  17.790  0.00  0.00    +0.000 N 
ATOM      9  O   UNL     1       8.441   7.296  18.807  0.00  0.00    +0.000 OA
ATOM     10  O   UNL     1       7.722   8.635  17.209  0.00  0.00    +0.000 OA
ENDBRANCH   5   8
ENDBRANCH   1   7
BRANCH   1  11
ATOM     11  C   UNL     1       4.197   3.674  18.595  0.00  0.00    +0.000 C 
ATOM     12  O   UNL     1       4.985   3.123  19.361  0.00  0.00    +0.000 OA
ATOM     13  N   UNL     1       2.972   4.164  19.008  0.00  0.00    +0.000 N 
ATOM     14  H   UNL     1       2.323   4.560  18.337  0.00  0.00    +0.000 HD
BRANCH  13  15
ATOM     15  C   UNL     1       2.563   4.103  20.401  0.00  0.00    +0.000 C 
BRANCH  15  16
ATOM     16  C   UNL     1       1.388   3.164  20.638  0.00  0.00    +0.000 C 
BRANCH  16  17
ATOM     17  C   UNL     1       0.721   2.719  19.345  0.00  0.00    +0.000 C 
BRANCH  17  18
ATOM     18  O   UNL     1       1.422   1.603  18.810  0.00  0.00    +0.000 OA
ATOM     19  H   UNL     1       1.414   1.687  17.841  0.00  0.00    +0.000 HD
ENDBRANCH  17  18
ENDBRANCH  16  17
ENDBRANCH  15  16
ENDBRANCH  13  15
ENDBRANCH   1  11
TORSDOF 7
ENDMDL
