MODEL 1
REMARK VINA RESULT:      -7.9      0.000      0.000
REMARK  Name = 
REMARK  3 active torsions:
REMARK  status: ('A' for Active; 'I' for Inactive)
REMARK    1  A    between atoms: S_2  and  N_4
REMARK    2  A    between atoms: S_2  and  C_18
REMARK    3  A    between atoms: C_10  and  C_11
REMARK                            x       y       z     vdW  Elec       q    Type
REMARK                         _______ _______ _______ _____ _____    ______ ____
ROOT
ATOM      1  N   UNL     1       5.731   5.796  15.228  0.00  0.00    +0.000 N 
ATOM      2  C   UNL     1       5.083   5.227  16.348  0.00  0.00    +0.000 A 
ATOM      3  N   UNL     1       4.106   4.381  16.146  0.00  0.00    +0.000 NA
ATOM      4  C   UNL     1       3.585   3.999  17.373  0.00  0.00    +0.000 A 
ATOM      5  C   UNL     1       2.569   3.045  17.580  0.00  0.00    +0.000 A 
ATOM      6  C   UNL     1       2.118   2.773  18.878  0.00  0.00    +0.000 A 
ATOM      7  C   UNL     1       2.653   3.445  19.984  0.00  0.00    +0.000 A 
ATOM      8  C   UNL     1       3.673   4.397  19.792  0.00  0.00    +0.000 A 
ATOM      9  C   UNL     1       4.133   4.643  18.486  0.00  0.00    +0.000 A 
ATOM     10  S   UNL     1       5.384   5.703  17.952  0.00  0.00    +0.000 S 
ATOM     11  H   UNL     1       5.087   5.802  14.438  0.00  0.00    +0.000 HD
ENDROOT
BRANCH   7  12
ATOM     12  C   UNL     1       2.155   3.159  21.384  0.00  0.00    +0.000 C 
ATOM     13  F   UNL     1       0.837   2.820  21.433  0.00  0.00    +0.000 F 
ATOM     14  F   UNL     1       2.827   2.132  21.972  0.00  0.00    +0.000 F 
ATOM     15  F   UNL     1       2.298   4.227  22.214  0.00  0.00    +0.000 F 
ENDBRANCH   7  12
BRANCH   1  17
ATOM     16  O   UNL     1       7.810   5.657  13.823  0.00  0.00    +0.000 OA
ATOM     17  S   UNL     1       7.052   4.844  14.751  0.00  0.00    +0.000 S 
ATOM     18  O   UNL     1       7.677   4.267  15.923  0.00  0.00    +0.000 OA
BRANCH  17  19
ATOM     19  C   UNL     1       6.365   3.492  13.732  0.00  0.00    +0.000 C 
ATOM     20  C   UNL     1       5.269   3.926  12.795  0.00  0.00    +0.000 C 
ATOM     21  C   UNL     1       6.630   3.585  12.255  0.00  0.00    +0.000 C 
ENDBRANCH  17  19
ENDBRANCH   1  17
TORSDOF 3
ENDMDL
MODEL 2
REMARK VINA RESULT:      -7.1      0.563      1.104
REMARK  Name = 
REMARK  3 active torsions:
REMARK  status: ('A' for Active; 'I' for Inactive)
REMARK    1  A    between atoms: S_2  and  N_4
REMARK    2  A    between atoms: S_2  and  C_18
REMARK    3  A    between atoms: C_10  and  C_11
REMARK                            x       y       z     vdW  Elec       q    Type
REMARK                         _______ _______ _______ _____ _____    ______ ____
ROOT
ATOM      1  N   UNL     1       5.552   5.804  15.205  0.00  0.00    +0.000 N 
ATOM      2  C   UNL     1       4.942   5.210  16.333  0.00  0.00    +0.000 A 
ATOM      3  N   UNL     1       3.870   4.481  16.157  0.00  0.00    +0.000 NA
ATOM      4  C   UNL     1       3.413   4.053  17.394  0.00  0.00    +0.000 A 
ATOM      5  C   UNL     1       2.325   3.187  17.619  0.00  0.00    +0.000 A 
ATOM      6  C   UNL     1       1.953   2.856  18.930  0.00  0.00    +0.000 A 
ATOM      7  C   UNL     1       2.641   3.382  20.030  0.00  0.00    +0.000 A 
ATOM      8  C   UNL     1       3.734   4.244  19.818  0.00  0.00    +0.000 A 
ATOM      9  C   UNL     1       4.111   4.550  18.499  0.00  0.00    +0.000 A 
ATOM     10  S   UNL     1       5.416   5.526  17.935  0.00  0.00    +0.000 S 
ATOM     11  H   UNL     1       4.852   5.935  14.477  0.00  0.00    +0.000 HD
ENDROOT
BRANCH   7  12
ATOM     12  C   UNL     1       2.230   3.033  21.444  0.00  0.00    +0.000 C 
ATOM     13  F   UNL     1       2.346   4.073  22.315  0.00  0.00    +0.000 F 
ATOM     14  F   UNL     1       0.935   2.623  21.520  0.00  0.00    +0.000 F 
ATOM     15  F   UNL     1       2.977   2.022  21.966  0.00  0.00    +0.000 F 
ENDBRANCH   7  12
BRANCH   1  17
ATOM     16  O   UNL     1       7.955   5.538  14.519  0.00  0.00    +0.000 OA
ATOM     17  S   UNL     1       6.727   4.771  14.546  0.00  0.00    +0.000 S 
ATOM     18  O   UNL     1       6.662   3.485  15.209  0.00  0.00    +0.000 OA
BRANCH  17  19
ATOM     19  C   UNL     1       6.281   4.544  12.790  0.00  0.00    +0.000 C 
ATOM     20  C   UNL     1       7.090   3.488  12.082  0.00  0.00    +0.000 C 
ATOM     21  C   UNL     1       5.653   3.223  12.438  0.00  0.00    +0.000 C 
ENDBRANCH  17  19
ENDBRANCH   1  17
TORSDOF 3
ENDMDL
MODEL 3
REMARK VINA RESULT:      -7.0      1.501      2.142
REMARK  Name = 
REMARK  3 active torsions:
REMARK  status: ('A' for Active; 'I' for Inactive)
REMARK    1  A    between atoms: S_2  and  N_4
REMARK    2  A    between atoms: S_2  and  C_18
REMARK    3  A    between atoms: C_10  and  C_11
REMARK                            x       y       z     vdW  Elec       q    Type
REMARK                         _______ _______ _______ _____ _____    ______ ____
ROOT
ATOM      1  N   UNL     1       7.166   4.482  16.057  0.00  0.00    +0.000 N 
ATOM      2  C   UNL     1       5.986   4.424  16.833  0.00  0.00    +0.000 A 
ATOM      3  N   UNL     1       5.643   5.473  17.536  0.00  0.00    +0.000 NA
ATOM      4  C   UNL     1       4.496   5.172  18.257  0.00  0.00    +0.000 A 
ATOM      5  C   UNL     1       3.777   6.064  19.076  0.00  0.00    +0.000 A 
ATOM      6  C   UNL     1       2.645   5.618  19.771  0.00  0.00    +0.000 A 
ATOM      7  C   UNL     1       2.218   4.287  19.678  0.00  0.00    +0.000 A 
ATOM      8  C   UNL     1       2.926   3.387  18.858  0.00  0.00    +0.000 A 
ATOM      9  C   UNL     1       4.046   3.853  18.148  0.00  0.00    +0.000 A 
ATOM     10  S   UNL     1       5.069   3.008  17.047  0.00  0.00    +0.000 S 
ATOM     11  H   UNL     1       7.803   5.161  16.471  0.00  0.00    +0.000 HD
ENDROOT
BRANCH   7  12
ATOM     12  C   UNL     1       1.003   3.805  20.440  0.00  0.00    +0.000 C 
ATOM     13  F   UNL     1       1.303   3.265  21.653  0.00  0.00    +0.000 F 
ATOM     14  F   UNL     1       0.115   4.806  20.685  0.00  0.00    +0.000 F 
ATOM     15  F   UNL     1       0.314   2.846  19.764  0.00  0.00    +0.000 F 
ENDBRANCH   7  12
BRANCH   1  17
ATOM     16  O   UNL     1       5.641   5.867  14.618  0.00  0.00    +0.000 OA
ATOM     17  S   UNL     1       6.827   5.047  14.493  0.00  0.00    +0.000 S 
ATOM     18  O   UNL     1       8.039   5.570  13.898  0.00  0.00    +0.000 OA
BRANCH  17  19
ATOM     19  C   UNL     1       6.288   3.591  13.530  0.00  0.00    +0.000 C 
ATOM     20  C   UNL     1       5.279   3.905  12.456  0.00  0.00    +0.000 C 
ATOM     21  C   UNL     1       6.698   3.574  12.083  0.00  0.00    +0.000 C 
ENDBRANCH  17  19
ENDBRANCH   1  17
TORSDOF 3
ENDMDL
MODEL 4
REMARK VINA RESULT:      -6.8      3.481      4.468
REMARK  Name = 
REMARK  3 active torsions:
REMARK  status: ('A' for Active; 'I' for Inactive)
REMARK    1  A    between atoms: S_2  and  N_4
REMARK    2  A    between atoms: S_2  and  C_18
REMARK    3  A    between atoms: C_10  and  C_11
REMARK                            x       y       z     vdW  Elec       q    Type
REMARK                         _______ _______ _______ _____ _____    ______ ____
ROOT
ATOM      1  N   UNL     1       5.031   5.385  16.209  0.00  0.00    +0.000 N 
ATOM      2  C   UNL     1       4.232   5.949  17.230  0.00  0.00    +0.000 A 
ATOM      3  N   UNL     1       3.782   5.170  18.179  0.00  0.00    +0.000 NA
ATOM      4  C   UNL     1       2.981   5.918  19.029  0.00  0.00    +0.000 A 
ATOM      5  C   UNL     1       2.371   5.455  20.211  0.00  0.00    +0.000 A 
ATOM      6  C   UNL     1       1.562   6.316  20.965  0.00  0.00    +0.000 A 
ATOM      7  C   UNL     1       1.336   7.636  20.557  0.00  0.00    +0.000 A 
ATOM      8  C   UNL     1       1.945   8.114  19.380  0.00  0.00    +0.000 A 
ATOM      9  C   UNL     1       2.772   7.246  18.645  0.00  0.00    +0.000 A 
ATOM     10  S   UNL     1       3.675   7.555  17.209  0.00  0.00    +0.000 S 
ATOM     11  H   UNL     1       4.802   4.397  16.115  0.00  0.00    +0.000 HD
ENDROOT
BRANCH   7  12
ATOM     12  C   UNL     1       0.452   8.560  21.366  0.00  0.00    +0.000 C 
ATOM     13  F   UNL     1       0.122   9.707  20.711  0.00  0.00    +0.000 F 
ATOM     14  F   UNL     1      -0.726   7.976  21.714  0.00  0.00    +0.000 F 
ATOM     15  F   UNL     1       1.038   8.950  22.531  0.00  0.00    +0.000 F 
ENDBRANCH   7  12
BRANCH   1  17
ATOM     16  O   UNL     1       6.974   4.172  17.245  0.00  0.00    +0.000 OA
ATOM     17  S   UNL     1       6.674   5.449  16.631  0.00  0.00    +0.000 S 
ATOM     18  O   UNL     1       7.442   5.935  15.502  0.00  0.00    +0.000 OA
BRANCH  17  19
ATOM     19  C   UNL     1       6.806   6.662  17.990  0.00  0.00    +0.000 C 
ATOM     20  C   UNL     1       8.082   6.557  18.785  0.00  0.00    +0.000 C 
ATOM     21  C   UNL     1       7.879   7.705  17.835  0.00  0.00    +0.000 C 
ENDBRANCH  17  19
ENDBRANCH   1  17
TORSDOF 3
ENDMDL
MODEL 5
REMARK VINA RESULT:      -6.6      4.798      6.869
REMARK  Name = 
REMARK  3 active torsions:
REMARK  status: ('A' for Active; 'I' for Inactive)
REMARK    1  A    between atoms: S_2  and  N_4
REMARK    2  A    between atoms: S_2  and  C_18
REMARK    3  A    between atoms: C_10  and  C_11
REMARK                            x       y       z     vdW  Elec       q    Type
REMARK                         _______ _______ _______ _____ _____    ______ ____
ROOT
ATOM      1  N   UNL     1       2.802   2.230  18.330  0.00  0.00    +0.000 N 
ATOM      2  C   UNL     1       3.675   3.334  18.195  0.00  0.00    +0.000 A 
ATOM      3  N   UNL     1       3.688   3.991  17.064  0.00  0.00    +0.000 NA
ATOM      4  C   UNL     1       4.652   4.987  17.137  0.00  0.00    +0.000 A 
ATOM      5  C   UNL     1       4.920   5.952  16.147  0.00  0.00    +0.000 A 
ATOM      6  C   UNL     1       5.944   6.888  16.341  0.00  0.00    +0.000 A 
ATOM      7  C   UNL     1       6.722   6.876  17.505  0.00  0.00    +0.000 A 
ATOM      8  C   UNL     1       6.461   5.919  18.505  0.00  0.00    +0.000 A 
ATOM      9  C   UNL     1       5.415   5.001  18.308  0.00  0.00    +0.000 A 
ATOM     10  S   UNL     1       4.839   3.761  19.359  0.00  0.00    +0.000 S 
ATOM     11  H   UNL     1       2.615   1.840  17.408  0.00  0.00    +0.000 HD
ENDROOT
BRANCH   7  12
ATOM     12  C   UNL     1       7.837   7.880  17.706  0.00  0.00    +0.000 C 
ATOM     13  F   UNL     1       8.670   7.988  16.635  0.00  0.00    +0.000 F 
ATOM     14  F   UNL     1       7.366   9.134  17.943  0.00  0.00    +0.000 F 
ATOM     15  F   UNL     1       8.629   7.568  18.767  0.00  0.00    +0.000 F 
ENDBRANCH   7  12
BRANCH   1  17
ATOM     16  O   UNL     1       1.311   4.173  18.896  0.00  0.00    +0.000 OA
ATOM     17  S   UNL     1       1.300   2.726  18.944  0.00  0.00    +0.000 S 
ATOM     18  O   UNL     1       0.245   1.964  18.307  0.00  0.00    +0.000 OA
BRANCH  17  19
ATOM     19  C   UNL     1       1.317   2.318  20.724  0.00  0.00    +0.000 C 
ATOM     20  C   UNL     1       2.662   2.490  21.380  0.00  0.00    +0.000 C 
ATOM     21  C   UNL     1       1.558   3.472  21.659  0.00  0.00    +0.000 C 
ENDBRANCH  17  19
ENDBRANCH   1  17
TORSDOF 3
ENDMDL
MODEL 6
REMARK VINA RESULT:      -6.5      3.678      4.722
REMARK  Name = 
REMARK  3 active torsions:
REMARK  status: ('A' for Active; 'I' for Inactive)
REMARK    1  A    between atoms: S_2  and  N_4
REMARK    2  A    between atoms: S_2  and  C_18
REMARK    3  A    between atoms: C_10  and  C_11
REMARK                            x       y       z     vdW  Elec       q    Type
REMARK                         _______ _______ _______ _____ _____    ______ ____
ROOT
ATOM      1  N   UNL     1       4.937   5.069  16.697  0.00  0.00    +0.000 N 
ATOM      2  C   UNL     1       4.111   5.770  17.605  0.00  0.00    +0.000 A 
ATOM      3  N   UNL     1       3.575   5.115  18.603  0.00  0.00    +0.000 NA
ATOM      4  C   UNL     1       2.765   5.982  19.322  0.00  0.00    +0.000 A 
ATOM      5  C   UNL     1       2.073   5.673  20.509  0.00  0.00    +0.000 A 
ATOM      6  C   UNL     1       1.265   6.641  21.121  0.00  0.00    +0.000 A 
ATOM      7  C   UNL     1       1.122   7.918  20.564  0.00  0.00    +0.000 A 
ATOM      8  C   UNL     1       1.813   8.241  19.381  0.00  0.00    +0.000 A 
ATOM      9  C   UNL     1       2.638   7.268  18.790  0.00  0.00    +0.000 A 
ATOM     10  S   UNL     1       3.630   7.386  17.384  0.00  0.00    +0.000 S 
ATOM     11  H   UNL     1       4.668   4.086  16.694  0.00  0.00    +0.000 HD
ENDROOT
BRANCH   7  12
ATOM     12  C   UNL     1       0.239   8.957  21.220  0.00  0.00    +0.000 C 
ATOM     13  F   UNL     1      -0.689   8.427  22.064  0.00  0.00    +0.000 F 
ATOM     14  F   UNL     1       0.952   9.849  21.959  0.00  0.00    +0.000 F 
ATOM     15  F   UNL     1      -0.458   9.692  20.311  0.00  0.00    +0.000 F 
ENDBRANCH   7  12
BRANCH   1  17
ATOM     16  O   UNL     1       6.678   4.090  18.223  0.00  0.00    +0.000 OA
ATOM     17  S   UNL     1       6.556   5.112  17.204  0.00  0.00    +0.000 S 
ATOM     18  O   UNL     1       7.423   5.118  16.044  0.00  0.00    +0.000 OA
BRANCH  17  19
ATOM     19  C   UNL     1       6.770   6.690  18.098  0.00  0.00    +0.000 C 
ATOM     20  C   UNL     1       8.162   6.910  18.631  0.00  0.00    +0.000 C 
ATOM     21  C   UNL     1       7.677   7.696  17.445  0.00  0.00    +0.000 C 
ENDBRANCH  17  19
ENDBRANCH   1  17
TORSDOF 3
ENDMDL
MODEL 7
REMARK VINA RESULT:      -6.4      5.019      6.431
REMARK  Name = 
REMARK  3 active torsions:
REMARK  status: ('A' for Active; 'I' for Inactive)
REMARK    1  A    between atoms: S_2  and  N_4
REMARK    2  A    between atoms: S_2  and  C_18
REMARK    3  A    between atoms: C_10  and  C_11
REMARK                            x       y       z     vdW  Elec       q    Type
REMARK                         _______ _______ _______ _____ _____    ______ ____
ROOT
ATOM      1  N   UNL     1       4.130   4.487  19.196  0.00  0.00    +0.000 N 
ATOM      2  C   UNL     1       3.326   5.648  19.259  0.00  0.00    +0.000 A 
ATOM      3  N   UNL     1       3.376   6.502  18.270  0.00  0.00    +0.000 NA
ATOM      4  C   UNL     1       2.558   7.581  18.571  0.00  0.00    +0.000 A 
ATOM      5  C   UNL     1       2.288   8.675  17.725  0.00  0.00    +0.000 A 
ATOM      6  C   UNL     1       1.460   9.715  18.168  0.00  0.00    +0.000 A 
ATOM      7  C   UNL     1       0.900   9.695  19.451  0.00  0.00    +0.000 A 
ATOM      8  C   UNL     1       1.157   8.604  20.305  0.00  0.00    +0.000 A 
ATOM      9  C   UNL     1       1.971   7.557  19.839  0.00  0.00    +0.000 A 
ATOM     10  S   UNL     1       2.420   6.091  20.628  0.00  0.00    +0.000 S 
ATOM     11  H   UNL     1       4.939   4.674  18.606  0.00  0.00    +0.000 HD
ENDROOT
BRANCH   7  12
ATOM     12  C   UNL     1       0.016  10.825  19.932  0.00  0.00    +0.000 C 
ATOM     13  F   UNL     1      -0.867  11.261  18.992  0.00  0.00    +0.000 F 
ATOM     14  F   UNL     1      -0.730  10.474  21.014  0.00  0.00    +0.000 F 
ATOM     15  F   UNL     1       0.733  11.919  20.308  0.00  0.00    +0.000 F 
ENDBRANCH   7  12
BRANCH   1  17
ATOM     16  O   UNL     1       3.389   3.458  17.026  0.00  0.00    +0.000 OA
ATOM     17  S   UNL     1       3.289   3.215  18.450  0.00  0.00    +0.000 S 
ATOM     18  O   UNL     1       3.713   1.955  19.026  0.00  0.00    +0.000 OA
BRANCH  17  19
ATOM     19  C   UNL     1       1.524   3.470  18.844  0.00  0.00    +0.000 C 
ATOM     20  C   UNL     1       0.684   2.225  18.731  0.00  0.00    +0.000 C 
ATOM     21  C   UNL     1       1.023   2.784  20.085  0.00  0.00    +0.000 C 
ENDBRANCH  17  19
ENDBRANCH   1  17
TORSDOF 3
ENDMDL
MODEL 8
REMARK VINA RESULT:      -6.3      5.239      7.472
REMARK  Name = 
REMARK  3 active torsions:
REMARK  status: ('A' for Active; 'I' for Inactive)
REMARK    1  A    between atoms: S_2  and  N_4
REMARK    2  A    between atoms: S_2  and  C_18
REMARK    3  A    between atoms: C_10  and  C_11
REMARK                            x       y       z     vdW  Elec       q    Type
REMARK                         _______ _______ _______ _____ _____    ______ ____
ROOT
ATOM      1  N   UNL     1       4.231   4.199  19.244  0.00  0.00    +0.000 N 
ATOM      2  C   UNL     1       4.843   4.419  17.989  0.00  0.00    +0.000 A 
ATOM      3  N   UNL     1       4.548   3.618  16.997  0.00  0.00    +0.000 NA
ATOM      4  C   UNL     1       5.302   3.981  15.891  0.00  0.00    +0.000 A 
ATOM      5  C   UNL     1       5.216   3.406  14.608  0.00  0.00    +0.000 A 
ATOM      6  C   UNL     1       6.060   3.854  13.582  0.00  0.00    +0.000 A 
ATOM      7  C   UNL     1       7.004   4.863  13.813  0.00  0.00    +0.000 A 
ATOM      8  C   UNL     1       7.095   5.450  15.090  0.00  0.00    +0.000 A 
ATOM      9  C   UNL     1       6.227   5.007  16.103  0.00  0.00    +0.000 A 
ATOM     10  S   UNL     1       6.076   5.560  17.729  0.00  0.00    +0.000 S 
ATOM     11  H   UNL     1       3.976   3.216  19.323  0.00  0.00    +0.000 HD
ENDROOT
BRANCH   7  12
ATOM     12  C   UNL     1       7.923   5.336  12.708  0.00  0.00    +0.000 C 
ATOM     13  F   UNL     1       9.205   5.537  13.118  0.00  0.00    +0.000 F 
ATOM     14  F   UNL     1       7.993   4.449  11.678  0.00  0.00    +0.000 F 
ATOM     15  F   UNL     1       7.514   6.514  12.163  0.00  0.00    +0.000 F 
ENDBRANCH   7  12
BRANCH   1  17
ATOM     16  O   UNL     1       3.166   6.443  19.625  0.00  0.00    +0.000 OA
ATOM     17  S   UNL     1       2.781   5.072  19.365  0.00  0.00    +0.000 S 
ATOM     18  O   UNL     1       1.922   4.735  18.247  0.00  0.00    +0.000 OA
BRANCH  17  19
ATOM     19  C   UNL     1       1.975   4.513  20.906  0.00  0.00    +0.000 C 
ATOM     20  C   UNL     1       1.030   3.355  20.719  0.00  0.00    +0.000 C 
ATOM     21  C   UNL     1       2.360   3.141  21.386  0.00  0.00    +0.000 C 
ENDBRANCH  17  19
ENDBRANCH   1  17
TORSDOF 3
ENDMDL
MODEL 9
REMARK VINA RESULT:      -6.3      3.441      4.405
REMARK  Name = 
REMARK  3 active torsions:
REMARK  status: ('A' for Active; 'I' for Inactive)
REMARK    1  A    between atoms: S_2  and  N_4
REMARK    2  A    between atoms: S_2  and  C_18
REMARK    3  A    between atoms: C_10  and  C_11
REMARK                            x       y       z     vdW  Elec       q    Type
REMARK                         _______ _______ _______ _____ _____    ______ ____
ROOT
ATOM      1  N   UNL     1       5.076   5.563  16.073  0.00  0.00    +0.000 N 
ATOM      2  C   UNL     1       4.276   6.079  17.118  0.00  0.00    +0.000 A 
ATOM      3  N   UNL     1       3.834   5.258  18.036  0.00  0.00    +0.000 NA
ATOM      4  C   UNL     1       3.031   5.966  18.918  0.00  0.00    +0.000 A 
ATOM      5  C   UNL     1       2.428   5.450  20.082  0.00  0.00    +0.000 A 
ATOM      6  C   UNL     1       1.615   6.274  20.873  0.00  0.00    +0.000 A 
ATOM      7  C   UNL     1       1.379   7.608  20.520  0.00  0.00    +0.000 A 
ATOM      8  C   UNL     1       1.981   8.137  19.362  0.00  0.00    +0.000 A 
ATOM      9  C   UNL     1       2.812   7.307  18.590  0.00  0.00    +0.000 A 
ATOM     10  S   UNL     1       3.708   7.681  17.165  0.00  0.00    +0.000 S 
ATOM     11  H   UNL     1       4.853   4.578  15.939  0.00  0.00    +0.000 HD
ENDROOT
BRANCH   7  12
ATOM     12  C   UNL     1       0.491   8.492  21.369  0.00  0.00    +0.000 C 
ATOM     13  F   UNL     1       1.037   8.810  22.575  0.00  0.00    +0.000 F 
ATOM     14  F   UNL     1       0.209   9.676  20.762  0.00  0.00    +0.000 F 
ATOM     15  F   UNL     1      -0.709   7.912  21.641  0.00  0.00    +0.000 F 
ENDBRANCH   7  12
BRANCH   1  17
ATOM     16  O   UNL     1       7.394   4.734  15.566  0.00  0.00    +0.000 OA
ATOM     17  S   UNL     1       6.720   5.620  16.492  0.00  0.00    +0.000 S 
ATOM     18  O   UNL     1       7.131   7.001  16.640  0.00  0.00    +0.000 OA
BRANCH  17  19
ATOM     19  C   UNL     1       6.862   4.794  18.115  0.00  0.00    +0.000 C 
ATOM     20  C   UNL     1       8.241   4.859  18.718  0.00  0.00    +0.000 C 
ATOM     21  C   UNL     1       7.130   5.696  19.288  0.00  0.00    +0.000 C 
ENDBRANCH  17  19
ENDBRANCH   1  17
TORSDOF 3
ENDMDL
