MODEL 1
REMARK VINA RESULT:      -7.9      0.000      0.000
REMARK  Name = 
REMARK  9 active torsions:
REMARK  status: ('A' for Active; 'I' for Inactive)
REMARK    1  A    between atoms: C_1  and  C_2
REMARK    2  A    between atoms: N_4  and  C_5
REMARK    3  A    between atoms: C_8  and  C_9
REMARK    4  A    between atoms: N_13  and  C_14
REMARK    5  A    between atoms: C_16  and  C_17
REMARK    6  A    between atoms: C_17  and  C_18
REMARK    7  A    between atoms: C_17  and  C_19
REMARK    8  A    between atoms: C_17  and  C_20
REMARK    9  A    between atoms: N_22  and  C_23
REMARK                            x       y       z     vdW  Elec       q    Type
REMARK                         _______ _______ _______ _____ _____    ______ ____
ROOT
ATOM      1  C   UNL     1       3.077   5.691  19.002  0.00  0.00    +0.000 A 
ATOM      2  C   UNL     1       2.855   4.806  20.039  0.00  0.00    +0.000 A 
ATOM      3  S   UNL     1       3.674   3.337  19.743  0.00  0.00    +0.000 S 
ATOM      4  C   UNL     1       4.274   3.978  18.264  0.00  0.00    +0.000 A 
ATOM      5  N   UNL     1       5.070   3.219  17.466  0.00  0.00    +0.000 N 
ATOM      6  N   UNL     1       3.893   5.212  18.011  0.00  0.00    +0.000 NA
ATOM      7  H   UNL     1       5.219   2.267  17.782  0.00  0.00    +0.000 HD
ENDROOT
BRANCH   1  11
ATOM      8  C   UNL     1       1.415   9.597  18.828  0.00  0.00    +0.000 A 
ATOM      9  C   UNL     1       2.062   9.073  17.706  0.00  0.00    +0.000 A 
ATOM     10  C   UNL     1       2.639   7.804  17.780  0.00  0.00    +0.000 A 
ATOM     11  C   UNL     1       2.527   7.033  18.947  0.00  0.00    +0.000 A 
ATOM     12  C   UNL     1       1.873   7.565  20.060  0.00  0.00    +0.000 A 
ATOM     13  C   UNL     1       1.333   8.845  20.002  0.00  0.00    +0.000 A 
ATOM     14  F   UNL     1       0.670   9.300  21.074  0.00  0.00    +0.000 F 
BRANCH   8  18
ATOM     15  C   UNL     1       0.724  14.533  18.790  0.00  0.00    +0.000 C 
ATOM     16  C   UNL     1       0.555  13.063  18.785  0.00  0.00    +0.000 A 
ATOM     17  C   UNL     1       1.509  12.084  18.947  0.00  0.00    +0.000 A 
ATOM     18  N   UNL     1       0.849  10.885  18.782  0.00  0.00    +0.000 N 
ATOM     19  C   UNL     1      -0.467  11.204  18.571  0.00  0.00    +0.000 A 
ATOM     20  N   UNL     1      -0.677  12.501  18.574  0.00  0.00    +0.000 NA
ENDBRANCH   8  18
ENDBRANCH   1  11
BRANCH   5  21
ATOM     21  C   UNL     1       5.575   3.623  16.274  0.00  0.00    +0.000 A 
ATOM     22  C   UNL     1       5.190   3.331  14.986  0.00  0.00    +0.000 A 
ATOM     23  C   UNL     1       6.130   3.952  14.143  0.00  0.00    +0.000 A 
ATOM     24  N   UNL     1       7.013   4.667  14.860  0.00  0.00    +0.000 NA
ATOM     25  N   UNL     1       6.667   4.437  16.142  0.00  0.00    +0.000 N 
ATOM     26  C   UNL     1       7.487   4.959  17.210  0.00  0.00    +0.000 C 
BRANCH  23  27
ATOM     27  C   UNL     1       6.200   3.867  12.629  0.00  0.00    +0.000 C 
ATOM     28  C   UNL     1       4.817   4.160  12.019  0.00  0.00    +0.000 C 
ATOM     29  C   UNL     1       7.227   4.877  12.080  0.00  0.00    +0.000 C 
ATOM     30  C   UNL     1       6.637   2.458  12.168  0.00  0.00    +0.000 C 
ENDBRANCH  23  27
ENDBRANCH   5  21
TORSDOF 4
ENDMDL
MODEL 2
REMARK VINA RESULT:      -7.8      4.614     11.198
REMARK  Name = 
REMARK  9 active torsions:
REMARK  status: ('A' for Active; 'I' for Inactive)
REMARK    1  A    between atoms: C_1  and  C_2
REMARK    2  A    between atoms: N_4  and  C_5
REMARK    3  A    between atoms: C_8  and  C_9
REMARK    4  A    between atoms: N_13  and  C_14
REMARK    5  A    between atoms: C_16  and  C_17
REMARK    6  A    between atoms: C_17  and  C_18
REMARK    7  A    between atoms: C_17  and  C_19
REMARK    8  A    between atoms: C_17  and  C_20
REMARK    9  A    between atoms: N_22  and  C_23
REMARK                            x       y       z     vdW  Elec       q    Type
REMARK                         _______ _______ _______ _____ _____    ______ ____
ROOT
ATOM      1  C   UNL     1       0.349  11.612  19.721  0.00  0.00    +0.000 A 
ATOM      2  C   UNL     1       1.120  12.716  19.410  0.00  0.00    +0.000 A 
ATOM      3  S   UNL     1       0.158  14.127  19.419  0.00  0.00    +0.000 S 
ATOM      4  C   UNL     1      -1.214  13.179  19.844  0.00  0.00    +0.000 A 
ATOM      5  N   UNL     1      -2.425  13.772  20.011  0.00  0.00    +0.000 N 
ATOM      6  N   UNL     1      -0.967  11.893  19.978  0.00  0.00    +0.000 NA
ATOM      7  H   UNL     1      -2.452  14.766  19.812  0.00  0.00    +0.000 HD
ENDROOT
BRANCH   1  11
ATOM      8  C   UNL     1       1.807   7.628  19.942  0.00  0.00    +0.000 A 
ATOM      9  C   UNL     1       1.260   8.226  21.080  0.00  0.00    +0.000 A 
ATOM     10  C   UNL     1       0.817   9.547  21.013  0.00  0.00    +0.000 A 
ATOM     11  C   UNL     1       0.864  10.258  19.803  0.00  0.00    +0.000 A 
ATOM     12  C   UNL     1       1.407   9.648  18.671  0.00  0.00    +0.000 A 
ATOM     13  C   UNL     1       1.887   8.345  18.746  0.00  0.00    +0.000 A 
ATOM     14  F   UNL     1       2.354   7.779  17.625  0.00  0.00    +0.000 F 
BRANCH   8  18
ATOM     15  C   UNL     1       2.266   2.725  20.709  0.00  0.00    +0.000 C 
ATOM     16  C   UNL     1       2.481   4.146  20.356  0.00  0.00    +0.000 A 
ATOM     17  C   UNL     1       1.661   5.226  20.588  0.00  0.00    +0.000 A 
ATOM     18  N   UNL     1       2.282   6.305  19.995  0.00  0.00    +0.000 N 
ATOM     19  C   UNL     1       3.457   5.825  19.477  0.00  0.00    +0.000 A 
ATOM     20  N   UNL     1       3.609   4.536  19.682  0.00  0.00    +0.000 NA
ENDBRANCH   8  18
ENDBRANCH   1  11
BRANCH   5  21
ATOM     21  C   UNL     1      -3.568  13.113  20.324  0.00  0.00    +0.000 A 
ATOM     22  C   UNL     1      -4.582  12.636  19.526  0.00  0.00    +0.000 A 
ATOM     23  C   UNL     1      -5.560  12.120  20.396  0.00  0.00    +0.000 A 
ATOM     24  N   UNL     1      -5.148  12.193  21.672  0.00  0.00    +0.000 NA
ATOM     25  N   UNL     1      -3.952  12.812  21.603  0.00  0.00    +0.000 N 
ATOM     26  C   UNL     1      -3.260  13.171  22.818  0.00  0.00    +0.000 C 
BRANCH  23  27
ATOM     27  C   UNL     1      -6.915  11.551  20.016  0.00  0.00    +0.000 C 
ATOM     28  C   UNL     1      -6.738  10.192  19.314  0.00  0.00    +0.000 C 
ATOM     29  C   UNL     1      -7.793  11.369  21.270  0.00  0.00    +0.000 C 
ATOM     30  C   UNL     1      -7.668  12.494  19.051  0.00  0.00    +0.000 C 
ENDBRANCH  23  27
ENDBRANCH   5  21
TORSDOF 4
ENDMDL
MODEL 3
REMARK VINA RESULT:      -7.8      4.091     10.982
REMARK  Name = 
REMARK  9 active torsions:
REMARK  status: ('A' for Active; 'I' for Inactive)
REMARK    1  A    between atoms: C_1  and  C_2
REMARK    2  A    between atoms: N_4  and  C_5
REMARK    3  A    between atoms: C_8  and  C_9
REMARK    4  A    between atoms: N_13  and  C_14
REMARK    5  A    between atoms: C_16  and  C_17
REMARK    6  A    between atoms: C_17  and  C_18
REMARK    7  A    between atoms: C_17  and  C_19
REMARK    8  A    between atoms: C_17  and  C_20
REMARK    9  A    between atoms: N_22  and  C_23
REMARK                            x       y       z     vdW  Elec       q    Type
REMARK                         _______ _______ _______ _____ _____    ______ ____
ROOT
ATOM      1  C   UNL     1       0.496  11.665  19.398  0.00  0.00    +0.000 A 
ATOM      2  C   UNL     1       1.279  12.795  19.264  0.00  0.00    +0.000 A 
ATOM      3  S   UNL     1       0.339  14.197  19.525  0.00  0.00    +0.000 S 
ATOM      4  C   UNL     1      -1.041  13.209  19.807  0.00  0.00    +0.000 A 
ATOM      5  N   UNL     1      -2.241  13.780  20.091  0.00  0.00    +0.000 N 
ATOM      6  N   UNL     1      -0.812  11.916  19.719  0.00  0.00    +0.000 NA
ATOM      7  H   UNL     1      -2.256  14.793  20.062  0.00  0.00    +0.000 HD
ENDROOT
BRANCH   1  11
ATOM      8  C   UNL     1       1.997   7.714  18.967  0.00  0.00    +0.000 A 
ATOM      9  C   UNL     1       2.065   8.599  17.888  0.00  0.00    +0.000 A 
ATOM     10  C   UNL     1       1.537   9.884  18.022  0.00  0.00    +0.000 A 
ATOM     11  C   UNL     1       0.992  10.310  19.243  0.00  0.00    +0.000 A 
ATOM     12  C   UNL     1       0.935   9.419  20.316  0.00  0.00    +0.000 A 
ATOM     13  C   UNL     1       1.423   8.125  20.173  0.00  0.00    +0.000 A 
ATOM     14  F   UNL     1       1.394   7.317  21.241  0.00  0.00    +0.000 F 
BRANCH   8  18
ATOM     15  C   UNL     1       2.729   2.961  17.659  0.00  0.00    +0.000 C 
ATOM     16  C   UNL     1       2.802   4.305  18.274  0.00  0.00    +0.000 A 
ATOM     17  C   UNL     1       1.943   5.370  18.125  0.00  0.00    +0.000 A 
ATOM     18  N   UNL     1       2.501   6.406  18.845  0.00  0.00    +0.000 N 
ATOM     19  C   UNL     1       3.638   5.899  19.417  0.00  0.00    +0.000 A 
ATOM     20  N   UNL     1       3.844   4.641  19.100  0.00  0.00    +0.000 NA
ENDBRANCH   8  18
ENDBRANCH   1  11
BRANCH   5  21
ATOM     21  C   UNL     1      -3.389  13.092  20.308  0.00  0.00    +0.000 A 
ATOM     22  C   UNL     1      -4.349  12.639  19.431  0.00  0.00    +0.000 A 
ATOM     23  C   UNL     1      -5.366  12.070  20.219  0.00  0.00    +0.000 A 
ATOM     24  N   UNL     1      -5.029  12.091  21.519  0.00  0.00    +0.000 NA
ATOM     25  N   UNL     1      -3.841  12.727  21.546  0.00  0.00    +0.000 N 
ATOM     26  C   UNL     1      -3.226  13.039  22.815  0.00  0.00    +0.000 C 
BRANCH  23  27
ATOM     27  C   UNL     1      -6.688  11.501  19.736  0.00  0.00    +0.000 C 
ATOM     28  C   UNL     1      -6.440  10.248  18.876  0.00  0.00    +0.000 C 
ATOM     29  C   UNL     1      -7.584  11.131  20.935  0.00  0.00    +0.000 C 
ATOM     30  C   UNL     1      -7.458  12.527  18.875  0.00  0.00    +0.000 C 
ENDBRANCH  23  27
ENDBRANCH   5  21
TORSDOF 4
ENDMDL
MODEL 4
REMARK VINA RESULT:      -7.7      4.456     11.175
REMARK  Name = 
REMARK  9 active torsions:
REMARK  status: ('A' for Active; 'I' for Inactive)
REMARK    1  A    between atoms: C_1  and  C_2
REMARK    2  A    between atoms: N_4  and  C_5
REMARK    3  A    between atoms: C_8  and  C_9
REMARK    4  A    between atoms: N_13  and  C_14
REMARK    5  A    between atoms: C_16  and  C_17
REMARK    6  A    between atoms: C_17  and  C_18
REMARK    7  A    between atoms: C_17  and  C_19
REMARK    8  A    between atoms: C_17  and  C_20
REMARK    9  A    between atoms: N_22  and  C_23
REMARK                            x       y       z     vdW  Elec       q    Type
REMARK                         _______ _______ _______ _____ _____    ______ ____
ROOT
ATOM      1  C   UNL     1       0.316  11.681  19.792  0.00  0.00    +0.000 A 
ATOM      2  C   UNL     1       1.079  12.802  19.528  0.00  0.00    +0.000 A 
ATOM      3  S   UNL     1       0.103  14.203  19.577  0.00  0.00    +0.000 S 
ATOM      4  C   UNL     1      -1.264  13.227  19.952  0.00  0.00    +0.000 A 
ATOM      5  N   UNL     1      -2.483  13.802  20.127  0.00  0.00    +0.000 N 
ATOM      6  N   UNL     1      -1.006  11.940  20.043  0.00  0.00    +0.000 NA
ATOM      7  H   UNL     1      -2.519  14.802  19.963  0.00  0.00    +0.000 HD
ENDROOT
BRANCH   1  11
ATOM      8  C   UNL     1       1.811   7.706  19.889  0.00  0.00    +0.000 A 
ATOM      9  C   UNL     1       1.293   8.276  21.055  0.00  0.00    +0.000 A 
ATOM     10  C   UNL     1       0.838   9.595  21.027  0.00  0.00    +0.000 A 
ATOM     11  C   UNL     1       0.844  10.330  19.831  0.00  0.00    +0.000 A 
ATOM     12  C   UNL     1       1.357   9.747  18.672  0.00  0.00    +0.000 A 
ATOM     13  C   UNL     1       1.850   8.447  18.706  0.00  0.00    +0.000 A 
ATOM     14  F   UNL     1       2.288   7.907  17.561  0.00  0.00    +0.000 F 
BRANCH   8  18
ATOM     15  C   UNL     1       4.618   3.626  19.333  0.00  0.00    +0.000 C 
ATOM     16  C   UNL     1       3.537   4.591  19.635  0.00  0.00    +0.000 A 
ATOM     17  C   UNL     1       3.471   5.932  19.337  0.00  0.00    +0.000 A 
ATOM     18  N   UNL     1       2.298   6.386  19.902  0.00  0.00    +0.000 N 
ATOM     19  C   UNL     1       1.705   5.289  20.472  0.00  0.00    +0.000 A 
ATOM     20  N   UNL     1       2.419   4.197  20.323  0.00  0.00    +0.000 NA
ENDBRANCH   8  18
ENDBRANCH   1  11
BRANCH   5  21
ATOM     21  C   UNL     1      -3.623  13.121  20.404  0.00  0.00    +0.000 A 
ATOM     22  C   UNL     1      -4.624  12.664  19.577  0.00  0.00    +0.000 A 
ATOM     23  C   UNL     1      -5.606  12.107  20.417  0.00  0.00    +0.000 A 
ATOM     24  N   UNL     1      -5.207  12.138  21.700  0.00  0.00    +0.000 NA
ATOM     25  N   UNL     1      -4.017  12.770  21.666  0.00  0.00    +0.000 N 
ATOM     26  C   UNL     1      -3.342  13.091  22.900  0.00  0.00    +0.000 C 
BRANCH  23  27
ATOM     27  C   UNL     1      -6.950  11.539  20.003  0.00  0.00    +0.000 C 
ATOM     28  C   UNL     1      -7.656  12.505  19.033  0.00  0.00    +0.000 C 
ATOM     29  C   UNL     1      -6.768  10.169  19.319  0.00  0.00    +0.000 C 
ATOM     30  C   UNL     1      -7.871  11.333  21.226  0.00  0.00    +0.000 C 
ENDBRANCH  23  27
ENDBRANCH   5  21
TORSDOF 4
ENDMDL
MODEL 5
REMARK VINA RESULT:      -7.7      4.149     10.934
REMARK  Name = 
REMARK  9 active torsions:
REMARK  status: ('A' for Active; 'I' for Inactive)
REMARK    1  A    between atoms: C_1  and  C_2
REMARK    2  A    between atoms: N_4  and  C_5
REMARK    3  A    between atoms: C_8  and  C_9
REMARK    4  A    between atoms: N_13  and  C_14
REMARK    5  A    between atoms: C_16  and  C_17
REMARK    6  A    between atoms: C_17  and  C_18
REMARK    7  A    between atoms: C_17  and  C_19
REMARK    8  A    between atoms: C_17  and  C_20
REMARK    9  A    between atoms: N_22  and  C_23
REMARK                            x       y       z     vdW  Elec       q    Type
REMARK                         _______ _______ _______ _____ _____    ______ ____
ROOT
ATOM      1  C   UNL     1       0.478  11.663  19.343  0.00  0.00    +0.000 A 
ATOM      2  C   UNL     1       1.254  12.797  19.196  0.00  0.00    +0.000 A 
ATOM      3  S   UNL     1       0.307  14.195  19.452  0.00  0.00    +0.000 S 
ATOM      4  C   UNL     1      -1.066  13.201  19.749  0.00  0.00    +0.000 A 
ATOM      5  N   UNL     1      -2.267  13.768  20.036  0.00  0.00    +0.000 N 
ATOM      6  N   UNL     1      -0.830  11.909  19.670  0.00  0.00    +0.000 NA
ATOM      7  H   UNL     1      -2.288  14.781  19.999  0.00  0.00    +0.000 HD
ENDROOT
BRANCH   1  11
ATOM      8  C   UNL     1       1.998   7.717  18.934  0.00  0.00    +0.000 A 
ATOM      9  C   UNL     1       2.053   8.593  17.847  0.00  0.00    +0.000 A 
ATOM     10  C   UNL     1       1.518   9.876  17.974  0.00  0.00    +0.000 A 
ATOM     11  C   UNL     1       0.980  10.310  19.196  0.00  0.00    +0.000 A 
ATOM     12  C   UNL     1       0.936   9.428  20.277  0.00  0.00    +0.000 A 
ATOM     13  C   UNL     1       1.431   8.135  20.140  0.00  0.00    +0.000 A 
ATOM     14  F   UNL     1       1.416   7.336  21.215  0.00  0.00    +0.000 F 
BRANCH   8  18
ATOM     15  C   UNL     1       4.767   3.596  19.361  0.00  0.00    +0.000 C 
ATOM     16  C   UNL     1       3.747   4.605  19.000  0.00  0.00    +0.000 A 
ATOM     17  C   UNL     1       3.694   5.938  19.338  0.00  0.00    +0.000 A 
ATOM     18  N   UNL     1       2.508   6.411  18.818  0.00  0.00    +0.000 N 
ATOM     19  C   UNL     1       1.934   5.353  18.163  0.00  0.00    +0.000 A 
ATOM     20  N   UNL     1       2.655   4.258  18.247  0.00  0.00    +0.000 NA
ENDBRANCH   8  18
ENDBRANCH   1  11
BRANCH   5  21
ATOM     21  C   UNL     1      -3.411  13.076  20.264  0.00  0.00    +0.000 A 
ATOM     22  C   UNL     1      -4.388  12.638  19.400  0.00  0.00    +0.000 A 
ATOM     23  C   UNL     1      -5.389  12.055  20.199  0.00  0.00    +0.000 A 
ATOM     24  N   UNL     1      -5.023  12.051  21.492  0.00  0.00    +0.000 NA
ATOM     25  N   UNL     1      -3.835  12.688  21.505  0.00  0.00    +0.000 N 
ATOM     26  C   UNL     1      -3.192  12.976  22.765  0.00  0.00    +0.000 C 
BRANCH  23  27
ATOM     27  C   UNL     1      -6.720  11.494  19.734  0.00  0.00    +0.000 C 
ATOM     28  C   UNL     1      -7.607  11.165  20.949  0.00  0.00    +0.000 C 
ATOM     29  C   UNL     1      -7.446  12.509  18.829  0.00  0.00    +0.000 C 
ATOM     30  C   UNL     1      -6.526  10.196  18.918  0.00  0.00    +0.000 C 
ENDBRANCH  23  27
ENDBRANCH   5  21
TORSDOF 4
ENDMDL
MODEL 6
REMARK VINA RESULT:      -7.6      0.743      1.028
REMARK  Name = 
REMARK  9 active torsions:
REMARK  status: ('A' for Active; 'I' for Inactive)
REMARK    1  A    between atoms: C_1  and  C_2
REMARK    2  A    between atoms: N_4  and  C_5
REMARK    3  A    between atoms: C_8  and  C_9
REMARK    4  A    between atoms: N_13  and  C_14
REMARK    5  A    between atoms: C_16  and  C_17
REMARK    6  A    between atoms: C_17  and  C_18
REMARK    7  A    between atoms: C_17  and  C_19
REMARK    8  A    between atoms: C_17  and  C_20
REMARK    9  A    between atoms: N_22  and  C_23
REMARK                            x       y       z     vdW  Elec       q    Type
REMARK                         _______ _______ _______ _____ _____    ______ ____
ROOT
ATOM      1  C   UNL     1       3.284   5.526  18.971  0.00  0.00    +0.000 A 
ATOM      2  C   UNL     1       3.215   4.604  19.997  0.00  0.00    +0.000 A 
ATOM      3  S   UNL     1       4.145   3.225  19.612  0.00  0.00    +0.000 S 
ATOM      4  C   UNL     1       4.583   3.948  18.113  0.00  0.00    +0.000 A 
ATOM      5  N   UNL     1       5.391   3.284  17.246  0.00  0.00    +0.000 N 
ATOM      6  N   UNL     1       4.073   5.146  17.917  0.00  0.00    +0.000 NA
ATOM      7  H   UNL     1       5.649   2.344  17.528  0.00  0.00    +0.000 HD
ENDROOT
BRANCH   1  11
ATOM      8  C   UNL     1       1.257   9.260  19.006  0.00  0.00    +0.000 A 
ATOM      9  C   UNL     1       1.820   8.793  17.816  0.00  0.00    +0.000 A 
ATOM     10  C   UNL     1       2.517   7.584  17.818  0.00  0.00    +0.000 A 
ATOM     11  C   UNL     1       2.609   6.811  18.986  0.00  0.00    +0.000 A 
ATOM     12  C   UNL     1       2.037   7.285  20.167  0.00  0.00    +0.000 A 
ATOM     13  C   UNL     1       1.378   8.510  20.178  0.00  0.00    +0.000 A 
ATOM     14  F   UNL     1       0.800   8.906  21.320  0.00  0.00    +0.000 F 
BRANCH   8  18
ATOM     15  C   UNL     1      -2.218  12.804  19.453  0.00  0.00    +0.000 C 
ATOM     16  C   UNL     1      -0.973  12.041  19.214  0.00  0.00    +0.000 A 
ATOM     17  C   UNL     1      -0.776  10.680  19.244  0.00  0.00    +0.000 A 
ATOM     18  N   UNL     1       0.573  10.489  19.032  0.00  0.00    +0.000 N 
ATOM     19  C   UNL     1       1.106  11.738  18.848  0.00  0.00    +0.000 A 
ATOM     20  N   UNL     1       0.204  12.690  18.944  0.00  0.00    +0.000 NA
ENDBRANCH   8  18
ENDBRANCH   1  11
BRANCH   5  21
ATOM     21  C   UNL     1       5.776   3.756  16.036  0.00  0.00    +0.000 A 
ATOM     22  C   UNL     1       5.487   3.318  14.763  0.00  0.00    +0.000 A 
ATOM     23  C   UNL     1       6.232   4.130  13.888  0.00  0.00    +0.000 A 
ATOM     24  N   UNL     1       6.891   5.083  14.568  0.00  0.00    +0.000 NA
ATOM     25  N   UNL     1       6.613   4.824  15.861  0.00  0.00    +0.000 N 
ATOM     26  C   UNL     1       7.261   5.590  16.900  0.00  0.00    +0.000 C 
BRANCH  23  27
ATOM     27  C   UNL     1       6.328   4.002  12.379  0.00  0.00    +0.000 C 
ATOM     28  C   UNL     1       4.927   4.110  11.749  0.00  0.00    +0.000 C 
ATOM     29  C   UNL     1       7.235   5.107  11.802  0.00  0.00    +0.000 C 
ATOM     30  C   UNL     1       6.932   2.640  11.970  0.00  0.00    +0.000 C 
ENDBRANCH  23  27
ENDBRANCH   5  21
TORSDOF 4
ENDMDL
MODEL 7
REMARK VINA RESULT:      -7.6      4.040      9.664
REMARK  Name = 
REMARK  9 active torsions:
REMARK  status: ('A' for Active; 'I' for Inactive)
REMARK    1  A    between atoms: C_1  and  C_2
REMARK    2  A    between atoms: N_4  and  C_5
REMARK    3  A    between atoms: C_8  and  C_9
REMARK    4  A    between atoms: N_13  and  C_14
REMARK    5  A    between atoms: C_16  and  C_17
REMARK    6  A    between atoms: C_17  and  C_18
REMARK    7  A    between atoms: C_17  and  C_19
REMARK    8  A    between atoms: C_17  and  C_20
REMARK    9  A    between atoms: N_22  and  C_23
REMARK                            x       y       z     vdW  Elec       q    Type
REMARK                         _______ _______ _______ _____ _____    ______ ____
ROOT
ATOM      1  C   UNL     1       0.713  10.382  18.737  0.00  0.00    +0.000 A 
ATOM      2  C   UNL     1      -0.623  10.436  18.388  0.00  0.00    +0.000 A 
ATOM      3  S   UNL     1      -1.147  12.060  18.320  0.00  0.00    +0.000 S 
ATOM      4  C   UNL     1       0.435  12.581  18.749  0.00  0.00    +0.000 A 
ATOM      5  N   UNL     1       0.703  13.907  18.882  0.00  0.00    +0.000 N 
ATOM      6  N   UNL     1       1.301  11.605  18.925  0.00  0.00    +0.000 NA
ATOM      7  H   UNL     1      -0.094  14.523  18.767  0.00  0.00    +0.000 HD
ENDROOT
BRANCH   1  11
ATOM      8  C   UNL     1       2.878   6.747  19.122  0.00  0.00    +0.000 A 
ATOM      9  C   UNL     1       2.073   7.184  20.177  0.00  0.00    +0.000 A 
ATOM     10  C   UNL     1       1.393   8.398  20.060  0.00  0.00    +0.000 A 
ATOM     11  C   UNL     1       1.466   9.150  18.878  0.00  0.00    +0.000 A 
ATOM     12  C   UNL     1       2.270   8.700  17.829  0.00  0.00    +0.000 A 
ATOM     13  C   UNL     1       2.981   7.512  17.958  0.00  0.00    +0.000 A 
ATOM     14  F   UNL     1       3.701   7.089  16.910  0.00  0.00    +0.000 F 
BRANCH   8  18
ATOM     15  C   UNL     1       4.143   1.938  19.448  0.00  0.00    +0.000 C 
ATOM     16  C   UNL     1       4.136   3.416  19.391  0.00  0.00    +0.000 A 
ATOM     17  C   UNL     1       3.061   4.273  19.357  0.00  0.00    +0.000 A 
ATOM     18  N   UNL     1       3.592   5.539  19.230  0.00  0.00    +0.000 N 
ATOM     19  C   UNL     1       4.953   5.379  19.234  0.00  0.00    +0.000 A 
ATOM     20  N   UNL     1       5.312   4.119  19.336  0.00  0.00    +0.000 NA
ENDBRANCH   8  18
ENDBRANCH   1  11
BRANCH   5  21
ATOM     21  C   UNL     1       1.908  14.417  19.236  0.00  0.00    +0.000 A 
ATOM     22  C   UNL     1       3.036  14.669  18.489  0.00  0.00    +0.000 A 
ATOM     23  C   UNL     1       4.018  15.113  19.394  0.00  0.00    +0.000 A 
ATOM     24  N   UNL     1       3.510  15.215  20.634  0.00  0.00    +0.000 NA
ATOM     25  N   UNL     1       2.242  14.773  20.514  0.00  0.00    +0.000 N 
ATOM     26  C   UNL     1       1.420  14.629  21.692  0.00  0.00    +0.000 C 
BRANCH  23  27
ATOM     27  C   UNL     1       5.466  15.443  19.085  0.00  0.00    +0.000 C 
ATOM     28  C   UNL     1       5.924  14.684  17.827  0.00  0.00    +0.000 C 
ATOM     29  C   UNL     1       5.636  16.959  18.859  0.00  0.00    +0.000 C 
ATOM     30  C   UNL     1       6.394  15.038  20.253  0.00  0.00    +0.000 C 
ENDBRANCH  23  27
ENDBRANCH   5  21
TORSDOF 4
ENDMDL
MODEL 8
REMARK VINA RESULT:      -7.5      3.966      9.572
REMARK  Name = 
REMARK  9 active torsions:
REMARK  status: ('A' for Active; 'I' for Inactive)
REMARK    1  A    between atoms: C_1  and  C_2
REMARK    2  A    between atoms: N_4  and  C_5
REMARK    3  A    between atoms: C_8  and  C_9
REMARK    4  A    between atoms: N_13  and  C_14
REMARK    5  A    between atoms: C_16  and  C_17
REMARK    6  A    between atoms: C_17  and  C_18
REMARK    7  A    between atoms: C_17  and  C_19
REMARK    8  A    between atoms: C_17  and  C_20
REMARK    9  A    between atoms: N_22  and  C_23
REMARK                            x       y       z     vdW  Elec       q    Type
REMARK                         _______ _______ _______ _____ _____    ______ ____
ROOT
ATOM      1  C   UNL     1       0.720  10.555  18.709  0.00  0.00    +0.000 A 
ATOM      2  C   UNL     1      -0.619  10.682  18.392  0.00  0.00    +0.000 A 
ATOM      3  S   UNL     1      -1.064  12.331  18.372  0.00  0.00    +0.000 S 
ATOM      4  C   UNL     1       0.552  12.764  18.777  0.00  0.00    +0.000 A 
ATOM      5  N   UNL     1       0.888  14.071  18.933  0.00  0.00    +0.000 N 
ATOM      6  N   UNL     1       1.372  11.743  18.911  0.00  0.00    +0.000 NA
ATOM      7  H   UNL     1       0.120  14.729  18.851  0.00  0.00    +0.000 HD
ENDROOT
BRANCH   1  11
ATOM      8  C   UNL     1       2.798   6.861  19.017  0.00  0.00    +0.000 A 
ATOM      9  C   UNL     1       2.933   7.634  17.861  0.00  0.00    +0.000 A 
ATOM     10  C   UNL     1       2.219   8.828  17.749  0.00  0.00    +0.000 A 
ATOM     11  C   UNL     1       1.415   9.284  18.805  0.00  0.00    +0.000 A 
ATOM     12  C   UNL     1       1.292   8.507  19.957  0.00  0.00    +0.000 A 
ATOM     13  C   UNL     1       1.970   7.296  20.055  0.00  0.00    +0.000 A 
ATOM     14  F   UNL     1       1.865   6.604  21.197  0.00  0.00    +0.000 F 
BRANCH   8  18
ATOM     15  C   UNL     1       3.984   2.028  19.278  0.00  0.00    +0.000 C 
ATOM     16  C   UNL     1       3.997   3.508  19.271  0.00  0.00    +0.000 A 
ATOM     17  C   UNL     1       2.936   4.379  19.181  0.00  0.00    +0.000 A 
ATOM     18  N   UNL     1       3.489   5.642  19.139  0.00  0.00    +0.000 N 
ATOM     19  C   UNL     1       4.843   5.465  19.246  0.00  0.00    +0.000 A 
ATOM     20  N   UNL     1       5.180   4.198  19.334  0.00  0.00    +0.000 NA
ENDBRANCH   8  18
ENDBRANCH   1  11
BRANCH   5  21
ATOM     21  C   UNL     1       2.124  14.514  19.270  0.00  0.00    +0.000 A 
ATOM     22  C   UNL     1       3.249  14.720  18.505  0.00  0.00    +0.000 A 
ATOM     23  C   UNL     1       4.269  15.099  19.397  0.00  0.00    +0.000 A 
ATOM     24  N   UNL     1       3.792  15.205  20.648  0.00  0.00    +0.000 NA
ATOM     25  N   UNL     1       2.501  14.831  20.547  0.00  0.00    +0.000 N 
ATOM     26  C   UNL     1       1.696  14.709  21.739  0.00  0.00    +0.000 C 
BRANCH  23  27
ATOM     27  C   UNL     1       5.726  15.360  19.063  0.00  0.00    +0.000 C 
ATOM     28  C   UNL     1       6.624  14.904  20.227  0.00  0.00    +0.000 C 
ATOM     29  C   UNL     1       6.129  14.607  17.780  0.00  0.00    +0.000 C 
ATOM     30  C   UNL     1       5.983  16.865  18.822  0.00  0.00    +0.000 C 
ENDBRANCH  23  27
ENDBRANCH   5  21
TORSDOF 4
ENDMDL
MODEL 9
REMARK VINA RESULT:      -7.5      2.273      9.474
REMARK  Name = 
REMARK  9 active torsions:
REMARK  status: ('A' for Active; 'I' for Inactive)
REMARK    1  A    between atoms: C_1  and  C_2
REMARK    2  A    between atoms: N_4  and  C_5
REMARK    3  A    between atoms: C_8  and  C_9
REMARK    4  A    between atoms: N_13  and  C_14
REMARK    5  A    between atoms: C_16  and  C_17
REMARK    6  A    between atoms: C_17  and  C_18
REMARK    7  A    between atoms: C_17  and  C_19
REMARK    8  A    between atoms: C_17  and  C_20
REMARK    9  A    between atoms: N_22  and  C_23
REMARK                            x       y       z     vdW  Elec       q    Type
REMARK                         _______ _______ _______ _____ _____    ______ ____
ROOT
ATOM      1  C   UNL     1       1.579   8.114  20.034  0.00  0.00    +0.000 A 
ATOM      2  C   UNL     1       0.905   7.480  21.060  0.00  0.00    +0.000 A 
ATOM      3  S   UNL     1      -0.107   8.590  21.873  0.00  0.00    +0.000 S 
ATOM      4  C   UNL     1       0.410   9.833  20.802  0.00  0.00    +0.000 A 
ATOM      5  N   UNL     1      -0.074  11.096  20.940  0.00  0.00    +0.000 N 
ATOM      6  N   UNL     1       1.277   9.443  19.892  0.00  0.00    +0.000 NA
ATOM      7  H   UNL     1      -0.692  11.239  21.731  0.00  0.00    +0.000 HD
ENDROOT
BRANCH   1  11
ATOM      8  C   UNL     1       4.364   6.195  17.462  0.00  0.00    +0.000 A 
ATOM      9  C   UNL     1       3.853   7.447  17.113  0.00  0.00    +0.000 A 
ATOM     10  C   UNL     1       2.909   8.057  17.942  0.00  0.00    +0.000 A 
ATOM     11  C   UNL     1       2.515   7.451  19.145  0.00  0.00    +0.000 A 
ATOM     12  C   UNL     1       3.038   6.203  19.487  0.00  0.00    +0.000 A 
ATOM     13  C   UNL     1       3.947   5.574  18.642  0.00  0.00    +0.000 A 
ATOM     14  F   UNL     1       4.462   4.401  19.031  0.00  0.00    +0.000 F 
BRANCH   8  18
ATOM     15  C   UNL     1       6.572   3.810  13.685  0.00  0.00    +0.000 C 
ATOM     16  C   UNL     1       6.255   4.484  14.963  0.00  0.00    +0.000 A 
ATOM     17  C   UNL     1       5.038   4.932  15.423  0.00  0.00    +0.000 A 
ATOM     18  N   UNL     1       5.296   5.552  16.628  0.00  0.00    +0.000 N 
ATOM     19  C   UNL     1       6.642   5.408  16.845  0.00  0.00    +0.000 A 
ATOM     20  N   UNL     1       7.244   4.766  15.870  0.00  0.00    +0.000 NA
ENDBRANCH   8  18
ENDBRANCH   1  11
BRANCH   5  21
ATOM     21  C   UNL     1       0.284  12.147  20.164  0.00  0.00    +0.000 A 
ATOM     22  C   UNL     1       1.309  13.057  20.294  0.00  0.00    +0.000 A 
ATOM     23  C   UNL     1       1.148  13.986  19.249  0.00  0.00    +0.000 A 
ATOM     24  N   UNL     1       0.126  13.633  18.452  0.00  0.00    +0.000 NA
ATOM     25  N   UNL     1      -0.388  12.531  19.036  0.00  0.00    +0.000 N 
ATOM     26  C   UNL     1      -1.594  11.939  18.508  0.00  0.00    +0.000 C 
BRANCH  23  27
ATOM     27  C   UNL     1       1.973  15.235  18.999  0.00  0.00    +0.000 C 
ATOM     28  C   UNL     1       2.700  15.655  20.289  0.00  0.00    +0.000 C 
ATOM     29  C   UNL     1       3.009  14.982  17.886  0.00  0.00    +0.000 C 
ATOM     30  C   UNL     1       1.080  16.413  18.548  0.00  0.00    +0.000 C 
ENDBRANCH  23  27
ENDBRANCH   5  21
TORSDOF 4
ENDMDL
