MODEL 1
REMARK VINA RESULT:      -6.4      0.000      0.000
REMARK  Name = 
REMARK  3 active torsions:
REMARK  status: ('A' for Active; 'I' for Inactive)
REMARK    1  A    between atoms: N_1  and  C_2
REMARK    2  A    between atoms: C_2  and  C_3
REMARK    3  A    between atoms: C_10  and  O_11
REMARK                            x       y       z     vdW  Elec       q    Type
REMARK                         _______ _______ _______ _____ _____    ______ ____
ROOT
ATOM      1  C   UNL     1       6.124   5.239  18.254  0.00  0.00    +0.000 A 
ATOM      2  C   UNL     1       5.403   6.388  17.894  0.00  0.00    +0.000 A 
ATOM      3  C   UNL     1       4.012   6.307  17.774  0.00  0.00    +0.000 A 
ATOM      4  O   UNL     1       3.374   7.295  17.453  0.00  0.00    +0.000 OA
ATOM      5  C   UNL     1       3.372   5.078  18.018  0.00  0.00    +0.000 A 
ATOM      6  C   UNL     1       1.980   4.912  17.901  0.00  0.00    +0.000 A 
ATOM      7  C   UNL     1       1.400   3.663  18.148  0.00  0.00    +0.000 A 
ATOM      8  C   UNL     1       2.202   2.572  18.519  0.00  0.00    +0.000 A 
ATOM      9  C   UNL     1       3.582   2.733  18.640  0.00  0.00    +0.000 A 
ATOM     10  C   UNL     1       4.171   3.973  18.388  0.00  0.00    +0.000 A 
ATOM     11  O   UNL     1       5.487   4.099  18.491  0.00  0.00    +0.000 OA
ENDROOT
BRANCH   8  12
ATOM     12  O   UNL     1       1.656   1.362  18.761  0.00  0.00    +0.000 OA
ATOM     13  H   UNL     1       2.176   0.619  19.092  0.00  0.00    +0.000 HD
ENDBRANCH   8  12
BRANCH   1  14
ATOM     14  C   UNL     1       7.617   5.245  18.349  0.00  0.00    +0.000 C 
BRANCH  14  15
ATOM     15  N   UNL     1       8.145   4.098  17.615  0.00  0.00    +0.000 NA
ATOM     16  H   UNL     1       8.894   3.644  18.185  0.00  0.00    +0.000 HD
ATOM     17  H   UNL     1       8.566   4.421  16.713  0.00  0.00    +0.000 HD
ENDBRANCH  14  15
ENDBRANCH   1  14
TORSDOF 3
ENDMDL
MODEL 2
REMARK VINA RESULT:      -6.4      1.960      2.211
REMARK  Name = 
REMARK  3 active torsions:
REMARK  status: ('A' for Active; 'I' for Inactive)
REMARK    1  A    between atoms: N_1  and  C_2
REMARK    2  A    between atoms: C_2  and  C_3
REMARK    3  A    between atoms: C_10  and  O_11
REMARK                            x       y       z     vdW  Elec       q    Type
REMARK                         _______ _______ _______ _____ _____    ______ ____
ROOT
ATOM      1  C   UNL     1       6.501   5.408  18.584  0.00  0.00    +0.000 A 
ATOM      2  C   UNL     1       6.373   4.944  17.266  0.00  0.00    +0.000 A 
ATOM      3  C   UNL     1       5.134   4.460  16.836  0.00  0.00    +0.000 A 
ATOM      4  O   UNL     1       5.010   4.045  15.695  0.00  0.00    +0.000 OA
ATOM      5  C   UNL     1       4.050   4.451  17.732  0.00  0.00    +0.000 A 
ATOM      6  C   UNL     1       2.778   3.963  17.379  0.00  0.00    +0.000 A 
ATOM      7  C   UNL     1       1.740   3.972  18.317  0.00  0.00    +0.000 A 
ATOM      8  C   UNL     1       1.959   4.473  19.610  0.00  0.00    +0.000 A 
ATOM      9  C   UNL     1       3.217   4.960  19.963  0.00  0.00    +0.000 A 
ATOM     10  C   UNL     1       4.262   4.948  19.037  0.00  0.00    +0.000 A 
ATOM     11  O   UNL     1       5.455   5.400  19.400  0.00  0.00    +0.000 OA
ENDROOT
BRANCH   8  12
ATOM     12  O   UNL     1       0.966   4.487  20.524  0.00  0.00    +0.000 OA
ATOM     13  H   UNL     1       0.035   4.545  20.272  0.00  0.00    +0.000 HD
ENDBRANCH   8  12
BRANCH   1  14
ATOM     14  C   UNL     1       7.811   5.891  19.124  0.00  0.00    +0.000 C 
BRANCH  14  15
ATOM     15  N   UNL     1       7.986   5.375  20.479  0.00  0.00    +0.000 NA
ATOM     16  H   UNL     1       8.023   4.331  20.444  0.00  0.00    +0.000 HD
ATOM     17  H   UNL     1       7.172   5.658  21.073  0.00  0.00    +0.000 HD
ENDBRANCH  14  15
ENDBRANCH   1  14
TORSDOF 3
ENDMDL
MODEL 3
REMARK VINA RESULT:      -6.3      1.686      1.710
REMARK  Name = 
REMARK  3 active torsions:
REMARK  status: ('A' for Active; 'I' for Inactive)
REMARK    1  A    between atoms: N_1  and  C_2
REMARK    2  A    between atoms: C_2  and  C_3
REMARK    3  A    between atoms: C_10  and  O_11
REMARK                            x       y       z     vdW  Elec       q    Type
REMARK                         _______ _______ _______ _____ _____    ______ ____
ROOT
ATOM      1  C   UNL     1       5.563   4.603  15.999  0.00  0.00    +0.000 A 
ATOM      2  C   UNL     1       5.266   5.914  16.402  0.00  0.00    +0.000 A 
ATOM      3  C   UNL     1       4.156   6.136  17.222  0.00  0.00    +0.000 A 
ATOM      4  O   UNL     1       3.880   7.272  17.573  0.00  0.00    +0.000 OA
ATOM      5  C   UNL     1       3.366   5.043  17.621  0.00  0.00    +0.000 A 
ATOM      6  C   UNL     1       2.224   5.187  18.430  0.00  0.00    +0.000 A 
ATOM      7  C   UNL     1       1.473   4.062  18.789  0.00  0.00    +0.000 A 
ATOM      8  C   UNL     1       1.857   2.785  18.350  0.00  0.00    +0.000 A 
ATOM      9  C   UNL     1       2.991   2.637  17.551  0.00  0.00    +0.000 A 
ATOM     10  C   UNL     1       3.742   3.754  17.182  0.00  0.00    +0.000 A 
ATOM     11  O   UNL     1       4.806   3.592  16.406  0.00  0.00    +0.000 OA
ENDROOT
BRANCH   8  12
ATOM     12  O   UNL     1       1.142   1.693  18.689  0.00  0.00    +0.000 OA
ATOM     13  H   UNL     1       0.249   1.754  19.052  0.00  0.00    +0.000 HD
ENDBRANCH   8  12
BRANCH   1  14
ATOM     14  C   UNL     1       6.706   4.302  15.081  0.00  0.00    +0.000 C 
BRANCH  14  15
ATOM     15  N   UNL     1       7.521   5.504  14.926  0.00  0.00    +0.000 NA
ATOM     16  H   UNL     1       8.250   5.330  14.198  0.00  0.00    +0.000 HD
ATOM     17  H   UNL     1       8.001   5.724  15.829  0.00  0.00    +0.000 HD
ENDBRANCH  14  15
ENDBRANCH   1  14
TORSDOF 3
ENDMDL
MODEL 4
REMARK VINA RESULT:      -6.3      1.958      1.991
REMARK  Name = 
REMARK  3 active torsions:
REMARK  status: ('A' for Active; 'I' for Inactive)
REMARK    1  A    between atoms: N_1  and  C_2
REMARK    2  A    between atoms: C_2  and  C_3
REMARK    3  A    between atoms: C_10  and  O_11
REMARK                            x       y       z     vdW  Elec       q    Type
REMARK                         _______ _______ _______ _____ _____    ______ ____
ROOT
ATOM      1  C   UNL     1       6.682   5.100  18.458  0.00  0.00    +0.000 A 
ATOM      2  C   UNL     1       6.477   5.031  17.072  0.00  0.00    +0.000 A 
ATOM      3  C   UNL     1       5.328   4.400  16.587  0.00  0.00    +0.000 A 
ATOM      4  O   UNL     1       5.140   4.325  15.384  0.00  0.00    +0.000 OA
ATOM      5  C   UNL     1       4.408   3.851  17.499  0.00  0.00    +0.000 A 
ATOM      6  C   UNL     1       3.239   3.185  17.089  0.00  0.00    +0.000 A 
ATOM      7  C   UNL     1       2.364   2.652  18.043  0.00  0.00    +0.000 A 
ATOM      8  C   UNL     1       2.646   2.784  19.413  0.00  0.00    +0.000 A 
ATOM      9  C   UNL     1       3.803   3.446  19.824  0.00  0.00    +0.000 A 
ATOM     10  C   UNL     1       4.684   3.975  18.879  0.00  0.00    +0.000 A 
ATOM     11  O   UNL     1       5.787   4.585  19.292  0.00  0.00    +0.000 OA
ENDROOT
BRANCH   8  12
ATOM     12  O   UNL     1       1.812   2.275  20.343  0.00  0.00    +0.000 OA
ATOM     13  H   UNL     1       2.123   1.699  21.053  0.00  0.00    +0.000 HD
ENDBRANCH   8  12
BRANCH   1  14
ATOM     14  C   UNL     1       7.915   5.716  19.041  0.00  0.00    +0.000 C 
BRANCH  14  15
ATOM     15  N   UNL     1       7.985   5.387  20.463  0.00  0.00    +0.000 NA
ATOM     16  H   UNL     1       8.709   4.646  20.605  0.00  0.00    +0.000 HD
ATOM     17  H   UNL     1       7.062   5.014  20.784  0.00  0.00    +0.000 HD
ENDBRANCH  14  15
ENDBRANCH   1  14
TORSDOF 3
ENDMDL
MODEL 5
REMARK VINA RESULT:      -6.2      1.934      2.416
REMARK  Name = 
REMARK  3 active torsions:
REMARK  status: ('A' for Active; 'I' for Inactive)
REMARK    1  A    between atoms: N_1  and  C_2
REMARK    2  A    between atoms: C_2  and  C_3
REMARK    3  A    between atoms: C_10  and  O_11
REMARK                            x       y       z     vdW  Elec       q    Type
REMARK                         _______ _______ _______ _____ _____    ______ ____
ROOT
ATOM      1  C   UNL     1       5.881   4.240  16.273  0.00  0.00    +0.000 A 
ATOM      2  C   UNL     1       6.475   4.695  17.460  0.00  0.00    +0.000 A 
ATOM      3  C   UNL     1       5.748   4.626  18.652  0.00  0.00    +0.000 A 
ATOM      4  O   UNL     1       6.249   5.026  19.690  0.00  0.00    +0.000 OA
ATOM      5  C   UNL     1       4.443   4.102  18.632  0.00  0.00    +0.000 A 
ATOM      6  C   UNL     1       3.643   4.016  19.786  0.00  0.00    +0.000 A 
ATOM      7  C   UNL     1       2.347   3.493  19.703  0.00  0.00    +0.000 A 
ATOM      8  C   UNL     1       1.842   3.046  18.471  0.00  0.00    +0.000 A 
ATOM      9  C   UNL     1       2.634   3.127  17.325  0.00  0.00    +0.000 A 
ATOM     10  C   UNL     1       3.924   3.654  17.397  0.00  0.00    +0.000 A 
ATOM     11  O   UNL     1       4.652   3.737  16.291  0.00  0.00    +0.000 OA
ENDROOT
BRANCH   8  12
ATOM     12  O   UNL     1       0.596   2.539  18.377  0.00  0.00    +0.000 OA
ATOM     13  H   UNL     1      -0.051   2.876  17.743  0.00  0.00    +0.000 HD
ENDBRANCH   8  12
BRANCH   1  14
ATOM     14  C   UNL     1       6.584   4.333  14.955  0.00  0.00    +0.000 C 
BRANCH  14  15
ATOM     15  N   UNL     1       7.612   5.367  15.036  0.00  0.00    +0.000 NA
ATOM     16  H   UNL     1       8.032   5.505  14.089  0.00  0.00    +0.000 HD
ATOM     17  H   UNL     1       8.368   5.061  15.692  0.00  0.00    +0.000 HD
ENDBRANCH  14  15
ENDBRANCH   1  14
TORSDOF 3
ENDMDL
MODEL 6
REMARK VINA RESULT:      -6.0      1.744      1.772
REMARK  Name = 
REMARK  3 active torsions:
REMARK  status: ('A' for Active; 'I' for Inactive)
REMARK    1  A    between atoms: N_1  and  C_2
REMARK    2  A    between atoms: C_2  and  C_3
REMARK    3  A    between atoms: C_10  and  O_11
REMARK                            x       y       z     vdW  Elec       q    Type
REMARK                         _______ _______ _______ _____ _____    ______ ____
ROOT
ATOM      1  C   UNL     1       5.474   4.759  17.334  0.00  0.00    +0.000 A 
ATOM      2  C   UNL     1       4.846   6.008  17.202  0.00  0.00    +0.000 A 
ATOM      3  C   UNL     1       3.787   6.328  18.056  0.00  0.00    +0.000 A 
ATOM      4  O   UNL     1       3.227   7.406  17.947  0.00  0.00    +0.000 OA
ATOM      5  C   UNL     1       3.379   5.394  19.025  0.00  0.00    +0.000 A 
ATOM      6  C   UNL     1       2.311   5.636  19.909  0.00  0.00    +0.000 A 
ATOM      7  C   UNL     1       1.945   4.665  20.848  0.00  0.00    +0.000 A 
ATOM      8  C   UNL     1       2.643   3.449  20.917  0.00  0.00    +0.000 A 
ATOM      9  C   UNL     1       3.704   3.206  20.044  0.00  0.00    +0.000 A 
ATOM     10  C   UNL     1       4.073   4.166  19.100  0.00  0.00    +0.000 A 
ATOM     11  O   UNL     1       5.073   3.907  18.269  0.00  0.00    +0.000 OA
ENDROOT
BRANCH   8  12
ATOM     12  O   UNL     1       2.300   2.504  21.817  0.00  0.00    +0.000 OA
ATOM     13  H   UNL     1       1.423   2.099  21.829  0.00  0.00    +0.000 HD
ENDBRANCH   8  12
BRANCH   1  14
ATOM     14  C   UNL     1       6.578   4.333  16.419  0.00  0.00    +0.000 C 
BRANCH  14  15
ATOM     15  N   UNL     1       7.821   4.248  17.180  0.00  0.00    +0.000 NA
ATOM     16  H   UNL     1       7.692   3.574  17.969  0.00  0.00    +0.000 HD
ATOM     17  H   UNL     1       8.055   5.185  17.582  0.00  0.00    +0.000 HD
ENDBRANCH  14  15
ENDBRANCH   1  14
TORSDOF 3
ENDMDL
MODEL 7
REMARK VINA RESULT:      -6.0      2.776      4.185
REMARK  Name = 
REMARK  3 active torsions:
REMARK  status: ('A' for Active; 'I' for Inactive)
REMARK    1  A    between atoms: N_1  and  C_2
REMARK    2  A    between atoms: C_2  and  C_3
REMARK    3  A    between atoms: C_10  and  O_11
REMARK                            x       y       z     vdW  Elec       q    Type
REMARK                         _______ _______ _______ _____ _____    ______ ____
ROOT
ATOM      1  C   UNL     1       2.108   3.964  20.133  0.00  0.00    +0.000 A 
ATOM      2  C   UNL     1       1.921   5.345  20.303  0.00  0.00    +0.000 A 
ATOM      3  C   UNL     1       2.560   6.229  19.429  0.00  0.00    +0.000 A 
ATOM      4  O   UNL     1       2.413   7.431  19.570  0.00  0.00    +0.000 OA
ATOM      5  C   UNL     1       3.372   5.714  18.402  0.00  0.00    +0.000 A 
ATOM      6  C   UNL     1       4.061   6.538  17.495  0.00  0.00    +0.000 A 
ATOM      7  C   UNL     1       4.862   5.968  16.499  0.00  0.00    +0.000 A 
ATOM      8  C   UNL     1       4.976   4.572  16.396  0.00  0.00    +0.000 A 
ATOM      9  C   UNL     1       4.292   3.751  17.292  0.00  0.00    +0.000 A 
ATOM     10  C   UNL     1       3.497   4.311  18.293  0.00  0.00    +0.000 A 
ATOM     11  O   UNL     1       2.869   3.511  19.145  0.00  0.00    +0.000 OA
ENDROOT
BRANCH   8  12
ATOM     12  O   UNL     1       5.744   4.009  15.440  0.00  0.00    +0.000 OA
ATOM     13  H   UNL     1       6.687   4.205  15.356  0.00  0.00    +0.000 HD
ENDBRANCH   8  12
BRANCH   1  14
ATOM     14  C   UNL     1       1.495   2.967  21.065  0.00  0.00    +0.000 C 
BRANCH  14  15
ATOM     15  N   UNL     1       2.474   2.607  22.088  0.00  0.00    +0.000 NA
ATOM     16  H   UNL     1       2.026   2.684  23.029  0.00  0.00    +0.000 HD
ATOM     17  H   UNL     1       3.283   3.269  22.050  0.00  0.00    +0.000 HD
ENDBRANCH  14  15
ENDBRANCH   1  14
TORSDOF 3
ENDMDL
MODEL 8
REMARK VINA RESULT:      -6.0      2.859      4.776
REMARK  Name = 
REMARK  3 active torsions:
REMARK  status: ('A' for Active; 'I' for Inactive)
REMARK    1  A    between atoms: N_1  and  C_2
REMARK    2  A    between atoms: C_2  and  C_3
REMARK    3  A    between atoms: C_10  and  O_11
REMARK                            x       y       z     vdW  Elec       q    Type
REMARK                         _______ _______ _______ _____ _____    ______ ____
ROOT
ATOM      1  C   UNL     1       2.583   5.384  19.436  0.00  0.00    +0.000 A 
ATOM      2  C   UNL     1       2.058   4.332  18.670  0.00  0.00    +0.000 A 
ATOM      3  C   UNL     1       2.765   3.891  17.548  0.00  0.00    +0.000 A 
ATOM      4  O   UNL     1       2.316   2.983  16.868  0.00  0.00    +0.000 OA
ATOM      5  C   UNL     1       3.982   4.512  17.214  0.00  0.00    +0.000 A 
ATOM      6  C   UNL     1       4.742   4.138  16.091  0.00  0.00    +0.000 A 
ATOM      7  C   UNL     1       5.942   4.798  15.805  0.00  0.00    +0.000 A 
ATOM      8  C   UNL     1       6.397   5.832  16.639  0.00  0.00    +0.000 A 
ATOM      9  C   UNL     1       5.648   6.204  17.756  0.00  0.00    +0.000 A 
ATOM     10  C   UNL     1       4.446   5.556  18.045  0.00  0.00    +0.000 A 
ATOM     11  O   UNL     1       3.741   5.939  19.102  0.00  0.00    +0.000 OA
ENDROOT
BRANCH   8  12
ATOM     12  O   UNL     1       7.551   6.477  16.375  0.00  0.00    +0.000 OA
ATOM     13  H   UNL     1       8.091   6.271  15.600  0.00  0.00    +0.000 HD
ENDBRANCH   8  12
BRANCH   1  14
ATOM     14  C   UNL     1       1.852   5.938  20.618  0.00  0.00    +0.000 C 
BRANCH  14  15
ATOM     15  N   UNL     1       1.989   7.392  20.625  0.00  0.00    +0.000 NA
ATOM     16  H   UNL     1       2.052   7.723  21.614  0.00  0.00    +0.000 HD
ATOM     17  H   UNL     1       1.147   7.828  20.183  0.00  0.00    +0.000 HD
ENDBRANCH  14  15
ENDBRANCH   1  14
TORSDOF 3
ENDMDL
MODEL 9
REMARK VINA RESULT:      -6.0      2.388      4.345
REMARK  Name = 
REMARK  3 active torsions:
REMARK  status: ('A' for Active; 'I' for Inactive)
REMARK    1  A    between atoms: N_1  and  C_2
REMARK    2  A    between atoms: C_2  and  C_3
REMARK    3  A    between atoms: C_10  and  O_11
REMARK                            x       y       z     vdW  Elec       q    Type
REMARK                         _______ _______ _______ _____ _____    ______ ____
ROOT
ATOM      1  C   UNL     1       3.213   3.027  18.166  0.00  0.00    +0.000 A 
ATOM      2  C   UNL     1       2.506   4.195  18.491  0.00  0.00    +0.000 A 
ATOM      3  C   UNL     1       2.970   5.424  18.013  0.00  0.00    +0.000 A 
ATOM      4  O   UNL     1       2.370   6.448  18.295  0.00  0.00    +0.000 OA
ATOM      5  C   UNL     1       4.131   5.459  17.219  0.00  0.00    +0.000 A 
ATOM      6  C   UNL     1       4.669   6.658  16.716  0.00  0.00    +0.000 A 
ATOM      7  C   UNL     1       5.832   6.631  15.938  0.00  0.00    +0.000 A 
ATOM      8  C   UNL     1       6.463   5.409  15.651  0.00  0.00    +0.000 A 
ATOM      9  C   UNL     1       5.931   4.219  16.145  0.00  0.00    +0.000 A 
ATOM     10  C   UNL     1       4.775   4.236  16.928  0.00  0.00    +0.000 A 
ATOM     11  O   UNL     1       4.297   3.094  17.402  0.00  0.00    +0.000 OA
ENDROOT
BRANCH   8  12
ATOM     12  O   UNL     1       7.584   5.369  14.902  0.00  0.00    +0.000 OA
ATOM     13  H   UNL     1       8.431   5.069  15.258  0.00  0.00    +0.000 HD
ENDBRANCH   8  12
BRANCH   1  14
ATOM     14  C   UNL     1       2.800   1.687  18.687  0.00  0.00    +0.000 C 
BRANCH  14  15
ATOM     15  N   UNL     1       3.902   0.746  18.506  0.00  0.00    +0.000 NA
ATOM     16  H   UNL     1       4.114   0.289  19.422  0.00  0.00    +0.000 HD
ATOM     17  H   UNL     1       4.757   1.260  18.188  0.00  0.00    +0.000 HD
ENDBRANCH  14  15
ENDBRANCH   1  14
TORSDOF 3
ENDMDL
