MODEL 1
REMARK VINA RESULT:      -7.4      0.000      0.000
REMARK  Name = 
REMARK  18 active torsions:
REMARK  status: ('A' for Active; 'I' for Inactive)
REMARK    1  A    between atoms: C_1  and  C_2
REMARK    2  A    between atoms: C_2  and  C_3
REMARK    3  A    between atoms: C_2  and  C_4
REMARK    4  A    between atoms: C_4  and  C_5
REMARK    5  A    between atoms: C_5  and  N_6
REMARK    6  A    between atoms: C_5  and  P_17
REMARK    7  A    between atoms: C_7  and  O_9
REMARK    8  A    between atoms: O_9  and  C_10
REMARK    9  A    between atoms: C_10  and  C_11
REMARK   10  A    between atoms: P_17  and  O_19
REMARK   11  A    between atoms: P_17  and  C_20
REMARK   12  A    between atoms: C_20  and  C_21
REMARK   13  A    between atoms: C_21  and  C_22
REMARK   14  A    between atoms: C_21  and  C_27
REMARK   15  A    between atoms: C_22  and  C_23
REMARK   16  A    between atoms: C_23  and  C_24
REMARK   17  A    between atoms: C_24  and  O_26
REMARK   18  A    between atoms: C_27  and  O_29
REMARK                            x       y       z     vdW  Elec       q    Type
REMARK                         _______ _______ _______ _____ _____    ______ ____
ROOT
ATOM      1  C   UNL     1       6.355   5.461  16.482  0.00  0.00    +0.000 C 
ENDROOT
BRANCH   1   2
ATOM      2  N   UNL     1       6.648   6.891  16.734  0.00  0.00    +0.000 N 
ATOM      3  C   UNL     1       7.534   7.318  17.686  0.00  0.00    +0.000 C 
ATOM      4  O   UNL     1       8.066   6.593  18.509  0.00  0.00    +0.000 OA
ATOM      5  H   UNL     1       6.473   7.566  16.005  0.00  0.00    +0.000 HD
BRANCH   3   6
ATOM      6  O   UNL     1       7.703   8.657  17.592  0.00  0.00    +0.000 OA
BRANCH   6   7
ATOM      7  C   UNL     1       8.607   9.225  18.561  0.00  0.00    +0.000 C 
BRANCH   7   8
ATOM      8  C   UNL     1       9.095  10.611  18.192  0.00  0.00    +0.000 A 
ATOM      9  C   UNL     1       8.171  11.597  17.810  0.00  0.00    +0.000 A 
ATOM     10  C   UNL     1       8.598  12.885  17.480  0.00  0.00    +0.000 A 
ATOM     11  C   UNL     1       9.951  13.209  17.539  0.00  0.00    +0.000 A 
ATOM     12  C   UNL     1      10.876  12.247  17.941  0.00  0.00    +0.000 A 
ATOM     13  C   UNL     1      10.451  10.960  18.275  0.00  0.00    +0.000 A 
ENDBRANCH   7   8
ENDBRANCH   6   7
ENDBRANCH   3   6
ENDBRANCH   1   2
BRANCH   1  14
ATOM     14  P   UNL     1       5.170   4.877  17.749  0.00  0.00    +0.000 P 
ATOM     15  O   UNL     1       4.552   3.833  16.807  0.00  0.00    +0.000 OA
BRANCH  14  16
ATOM     16  O   UNL     1       6.410   4.080  18.515  0.00  0.00    +0.000 OA
ATOM     17  H   UNL     1       7.167   4.646  18.764  0.00  0.00    +0.000 HD
ENDBRANCH  14  16
BRANCH  14  18
ATOM     18  C   UNL     1       3.986   4.293  19.016  0.00  0.00    +0.000 C 
BRANCH  18  19
ATOM     19  C   UNL     1       2.606   5.000  18.967  0.00  0.00    +0.000 C 
BRANCH  19  20
ATOM     20  C   UNL     1       1.540   4.082  18.404  0.00  0.00    +0.000 C 
ATOM     21  O   UNL     1       1.160   4.093  17.244  0.00  0.00    +0.000 OA
BRANCH  20  22
ATOM     22  O   UNL     1       0.981   3.280  19.336  0.00  0.00    +0.000 OA
ATOM     23  H   UNL     1       0.700   2.402  18.995  0.00  0.00    +0.000 HD
ENDBRANCH  20  22
ENDBRANCH  19  20
BRANCH  19  24
ATOM     24  C   UNL     1       2.571   6.352  18.233  0.00  0.00    +0.000 C 
BRANCH  24  25
ATOM     25  C   UNL     1       2.344   7.557  19.146  0.00  0.00    +0.000 C 
BRANCH  25  26
ATOM     26  C   UNL     1       1.844   8.768  18.389  0.00  0.00    +0.000 C 
ATOM     27  O   UNL     1       2.186   9.098  17.264  0.00  0.00    +0.000 OA
BRANCH  26  28
ATOM     28  O   UNL     1       0.966   9.495  19.122  0.00  0.00    +0.000 OA
ATOM     29  H   UNL     1       1.329  10.362  19.392  0.00  0.00    +0.000 HD
ENDBRANCH  26  28
ENDBRANCH  25  26
ENDBRANCH  24  25
ENDBRANCH  19  24
ENDBRANCH  18  19
ENDBRANCH  14  18
ENDBRANCH   1  14
BRANCH   1  30
ATOM     30  C   UNL     1       5.858   5.269  15.020  0.00  0.00    +0.000 C 
BRANCH  30  32
ATOM     31  C   UNL     1       5.752   3.658  13.059  0.00  0.00    +0.000 C 
ATOM     32  C   UNL     1       6.652   4.370  14.062  0.00  0.00    +0.000 C 
ATOM     33  C   UNL     1       7.681   5.228  13.303  0.00  0.00    +0.000 C 
ENDBRANCH  30  32
ENDBRANCH   1  30
TORSDOF 16
ENDMDL
MODEL 2
REMARK VINA RESULT:      -7.2      1.695      3.163
REMARK  Name = 
REMARK  18 active torsions:
REMARK  status: ('A' for Active; 'I' for Inactive)
REMARK    1  A    between atoms: C_1  and  C_2
REMARK    2  A    between atoms: C_2  and  C_3
REMARK    3  A    between atoms: C_2  and  C_4
REMARK    4  A    between atoms: C_4  and  C_5
REMARK    5  A    between atoms: C_5  and  N_6
REMARK    6  A    between atoms: C_5  and  P_17
REMARK    7  A    between atoms: C_7  and  O_9
REMARK    8  A    between atoms: O_9  and  C_10
REMARK    9  A    between atoms: C_10  and  C_11
REMARK   10  A    between atoms: P_17  and  O_19
REMARK   11  A    between atoms: P_17  and  C_20
REMARK   12  A    between atoms: C_20  and  C_21
REMARK   13  A    between atoms: C_21  and  C_22
REMARK   14  A    between atoms: C_21  and  C_27
REMARK   15  A    between atoms: C_22  and  C_23
REMARK   16  A    between atoms: C_23  and  C_24
REMARK   17  A    between atoms: C_24  and  O_26
REMARK   18  A    between atoms: C_27  and  O_29
REMARK                            x       y       z     vdW  Elec       q    Type
REMARK                         _______ _______ _______ _____ _____    ______ ____
ROOT
ATOM      1  C   UNL     1       7.263   5.446  17.493  0.00  0.00    +0.000 C 
ENDROOT
BRANCH   1   2
ATOM      2  N   UNL     1       8.060   6.590  17.993  0.00  0.00    +0.000 N 
ATOM      3  C   UNL     1       7.724   7.896  17.764  0.00  0.00    +0.000 C 
ATOM      4  O   UNL     1       6.828   8.258  17.021  0.00  0.00    +0.000 OA
ATOM      5  H   UNL     1       8.667   6.456  18.789  0.00  0.00    +0.000 HD
BRANCH   3   6
ATOM      6  O   UNL     1       8.549   8.714  18.458  0.00  0.00    +0.000 OA
BRANCH   6   7
ATOM      7  C   UNL     1       8.553  10.088  18.019  0.00  0.00    +0.000 C 
BRANCH   7   8
ATOM      8  C   UNL     1       9.666  10.914  18.629  0.00  0.00    +0.000 A 
ATOM      9  C   UNL     1       9.767  11.023  20.026  0.00  0.00    +0.000 A 
ATOM     10  C   UNL     1      10.794  11.768  20.610  0.00  0.00    +0.000 A 
ATOM     11  C   UNL     1      11.739  12.404  19.809  0.00  0.00    +0.000 A 
ATOM     12  C   UNL     1      11.664  12.283  18.422  0.00  0.00    +0.000 A 
ATOM     13  C   UNL     1      10.641  11.536  17.836  0.00  0.00    +0.000 A 
ENDBRANCH   7   8
ENDBRANCH   6   7
ENDBRANCH   3   6
ENDBRANCH   1   2
BRANCH   1  14
ATOM     14  P   UNL     1       5.809   5.228  18.584  0.00  0.00    +0.000 P 
ATOM     15  O   UNL     1       5.746   3.714  18.332  0.00  0.00    +0.000 OA
BRANCH  14  16
ATOM     16  O   UNL     1       6.799   5.399  19.907  0.00  0.00    +0.000 OA
ATOM     17  H   UNL     1       7.731   5.605  19.696  0.00  0.00    +0.000 HD
ENDBRANCH  14  16
BRANCH  14  18
ATOM     18  C   UNL     1       4.357   5.009  19.674  0.00  0.00    +0.000 C 
BRANCH  18  19
ATOM     19  C   UNL     1       3.000   5.330  18.993  0.00  0.00    +0.000 C 
BRANCH  19  20
ATOM     20  C   UNL     1       2.359   6.561  19.601  0.00  0.00    +0.000 C 
ATOM     21  O   UNL     1       2.238   7.631  19.027  0.00  0.00    +0.000 OA
BRANCH  20  22
ATOM     22  O   UNL     1       1.989   6.389  20.888  0.00  0.00    +0.000 OA
ATOM     23  H   UNL     1       1.544   7.170  21.287  0.00  0.00    +0.000 HD
ENDBRANCH  20  22
ENDBRANCH  19  20
BRANCH  19  24
ATOM     24  C   UNL     1       1.981   4.178  18.953  0.00  0.00    +0.000 C 
BRANCH  24  25
ATOM     25  C   UNL     1       2.476   2.877  19.587  0.00  0.00    +0.000 C 
BRANCH  25  26
ATOM     26  C   UNL     1       2.059   2.747  21.035  0.00  0.00    +0.000 C 
ATOM     27  O   UNL     1       2.800   2.485  21.970  0.00  0.00    +0.000 OA
BRANCH  26  28
ATOM     28  O   UNL     1       0.725   2.924  21.195  0.00  0.00    +0.000 OA
ATOM     29  H   UNL     1       0.366   2.417  21.950  0.00  0.00    +0.000 HD
ENDBRANCH  26  28
ENDBRANCH  25  26
ENDBRANCH  24  25
ENDBRANCH  19  24
ENDBRANCH  18  19
ENDBRANCH  14  18
ENDBRANCH   1  14
BRANCH   1  30
ATOM     30  C   UNL     1       6.899   5.663  15.996  0.00  0.00    +0.000 C 
BRANCH  30  32
ATOM     31  C   UNL     1       5.283   4.042  14.896  0.00  0.00    +0.000 C 
ATOM     32  C   UNL     1       6.742   4.449  15.071  0.00  0.00    +0.000 C 
ATOM     33  C   UNL     1       7.345   4.784  13.694  0.00  0.00    +0.000 C 
ENDBRANCH  30  32
ENDBRANCH   1  30
TORSDOF 16
ENDMDL
MODEL 3
REMARK VINA RESULT:      -7.2      1.727      2.885
REMARK  Name = 
REMARK  18 active torsions:
REMARK  status: ('A' for Active; 'I' for Inactive)
REMARK    1  A    between atoms: C_1  and  C_2
REMARK    2  A    between atoms: C_2  and  C_3
REMARK    3  A    between atoms: C_2  and  C_4
REMARK    4  A    between atoms: C_4  and  C_5
REMARK    5  A    between atoms: C_5  and  N_6
REMARK    6  A    between atoms: C_5  and  P_17
REMARK    7  A    between atoms: C_7  and  O_9
REMARK    8  A    between atoms: O_9  and  C_10
REMARK    9  A    between atoms: C_10  and  C_11
REMARK   10  A    between atoms: P_17  and  O_19
REMARK   11  A    between atoms: P_17  and  C_20
REMARK   12  A    between atoms: C_20  and  C_21
REMARK   13  A    between atoms: C_21  and  C_22
REMARK   14  A    between atoms: C_21  and  C_27
REMARK   15  A    between atoms: C_22  and  C_23
REMARK   16  A    between atoms: C_23  and  C_24
REMARK   17  A    between atoms: C_24  and  O_26
REMARK   18  A    between atoms: C_27  and  O_29
REMARK                            x       y       z     vdW  Elec       q    Type
REMARK                         _______ _______ _______ _____ _____    ______ ____
ROOT
ATOM      1  C   UNL     1       6.566   5.716  16.496  0.00  0.00    +0.000 C 
ENDROOT
BRANCH   1   2
ATOM      2  N   UNL     1       6.873   7.144  16.737  0.00  0.00    +0.000 N 
ATOM      3  C   UNL     1       7.702   7.575  17.736  0.00  0.00    +0.000 C 
ATOM      4  O   UNL     1       8.161   6.858  18.610  0.00  0.00    +0.000 OA
ATOM      5  H   UNL     1       6.762   7.806  15.982  0.00  0.00    +0.000 HD
BRANCH   3   6
ATOM      6  O   UNL     1       7.907   8.908  17.625  0.00  0.00    +0.000 OA
BRANCH   6   7
ATOM      7  C   UNL     1       8.749   9.481  18.645  0.00  0.00    +0.000 C 
BRANCH   7   8
ATOM      8  C   UNL     1       9.299  10.844  18.279  0.00  0.00    +0.000 A 
ATOM      9  C   UNL     1      10.683  11.076  18.339  0.00  0.00    +0.000 A 
ATOM     10  C   UNL     1      11.213  12.321  17.992  0.00  0.00    +0.000 A 
ATOM     11  C   UNL     1      10.369  13.346  17.571  0.00  0.00    +0.000 A 
ATOM     12  C   UNL     1       8.997  13.121  17.483  0.00  0.00    +0.000 A 
ATOM     13  C   UNL     1       8.465  11.877  17.825  0.00  0.00    +0.000 A 
ENDBRANCH   7   8
ENDBRANCH   6   7
ENDBRANCH   3   6
ENDBRANCH   1   2
BRANCH   1  14
ATOM     14  P   UNL     1       5.326   5.171  17.727  0.00  0.00    +0.000 P 
ATOM     15  O   UNL     1       4.196   5.973  17.065  0.00  0.00    +0.000 OA
BRANCH  14  16
ATOM     16  O   UNL     1       5.278   3.681  16.994  0.00  0.00    +0.000 OA
ATOM     17  H   UNL     1       4.389   3.399  16.699  0.00  0.00    +0.000 HD
ENDBRANCH  14  16
BRANCH  14  18
ATOM     18  C   UNL     1       4.086   4.626  18.957  0.00  0.00    +0.000 C 
BRANCH  18  19
ATOM     19  C   UNL     1       3.119   3.529  18.439  0.00  0.00    +0.000 C 
BRANCH  19  20
ATOM     20  C   UNL     1       1.742   4.098  18.162  0.00  0.00    +0.000 C 
ATOM     21  O   UNL     1       1.157   4.003  17.096  0.00  0.00    +0.000 OA
BRANCH  20  22
ATOM     22  O   UNL     1       1.236   4.797  19.201  0.00  0.00    +0.000 OA
ATOM     23  H   UNL     1       0.257   4.884  19.189  0.00  0.00    +0.000 HD
ENDBRANCH  20  22
ENDBRANCH  19  20
BRANCH  19  24
ATOM     24  C   UNL     1       2.997   2.272  19.319  0.00  0.00    +0.000 C 
BRANCH  24  25
ATOM     25  C   UNL     1       3.451   2.470  20.765  0.00  0.00    +0.000 C 
BRANCH  25  26
ATOM     26  C   UNL     1       2.320   2.907  21.670  0.00  0.00    +0.000 C 
ATOM     27  O   UNL     1       1.520   2.166  22.220  0.00  0.00    +0.000 OA
BRANCH  26  28
ATOM     28  O   UNL     1       2.261   4.255  21.790  0.00  0.00    +0.000 OA
ATOM     29  H   UNL     1       1.452   4.633  21.390  0.00  0.00    +0.000 HD
ENDBRANCH  26  28
ENDBRANCH  25  26
ENDBRANCH  24  25
ENDBRANCH  19  24
ENDBRANCH  18  19
ENDBRANCH  14  18
ENDBRANCH   1  14
BRANCH   1  30
ATOM     30  C   UNL     1       6.120   5.507  15.019  0.00  0.00    +0.000 C 
BRANCH  30  32
ATOM     31  C   UNL     1       6.001   3.694  13.244  0.00  0.00    +0.000 C 
ATOM     32  C   UNL     1       6.912   4.550  14.117  0.00  0.00    +0.000 C 
ATOM     33  C   UNL     1       7.855   5.370  13.218  0.00  0.00    +0.000 C 
ENDBRANCH  30  32
ENDBRANCH   1  30
TORSDOF 16
ENDMDL
MODEL 4
REMARK VINA RESULT:      -7.0      0.847      1.107
REMARK  Name = 
REMARK  18 active torsions:
REMARK  status: ('A' for Active; 'I' for Inactive)
REMARK    1  A    between atoms: C_1  and  C_2
REMARK    2  A    between atoms: C_2  and  C_3
REMARK    3  A    between atoms: C_2  and  C_4
REMARK    4  A    between atoms: C_4  and  C_5
REMARK    5  A    between atoms: C_5  and  N_6
REMARK    6  A    between atoms: C_5  and  P_17
REMARK    7  A    between atoms: C_7  and  O_9
REMARK    8  A    between atoms: O_9  and  C_10
REMARK    9  A    between atoms: C_10  and  C_11
REMARK   10  A    between atoms: P_17  and  O_19
REMARK   11  A    between atoms: P_17  and  C_20
REMARK   12  A    between atoms: C_20  and  C_21
REMARK   13  A    between atoms: C_21  and  C_22
REMARK   14  A    between atoms: C_21  and  C_27
REMARK   15  A    between atoms: C_22  and  C_23
REMARK   16  A    between atoms: C_23  and  C_24
REMARK   17  A    between atoms: C_24  and  O_26
REMARK   18  A    between atoms: C_27  and  O_29
REMARK                            x       y       z     vdW  Elec       q    Type
REMARK                         _______ _______ _______ _____ _____    ______ ____
ROOT
ATOM      1  C   UNL     1       6.341   5.557  16.537  0.00  0.00    +0.000 C 
ENDROOT
BRANCH   1   2
ATOM      2  N   UNL     1       6.487   7.000  16.838  0.00  0.00    +0.000 N 
ATOM      3  C   UNL     1       7.388   7.489  17.744  0.00  0.00    +0.000 C 
ATOM      4  O   UNL     1       8.059   6.799  18.492  0.00  0.00    +0.000 OA
ATOM      5  H   UNL     1       6.181   7.679  16.156  0.00  0.00    +0.000 HD
BRANCH   3   6
ATOM      6  O   UNL     1       7.394   8.842  17.705  0.00  0.00    +0.000 OA
BRANCH   6   7
ATOM      7  C   UNL     1       8.684   9.436  17.455  0.00  0.00    +0.000 C 
BRANCH   7   8
ATOM      8  C   UNL     1       9.024  10.565  18.407  0.00  0.00    +0.000 A 
ATOM      9  C   UNL     1       8.881  11.897  17.986  0.00  0.00    +0.000 A 
ATOM     10  C   UNL     1       9.174  12.953  18.852  0.00  0.00    +0.000 A 
ATOM     11  C   UNL     1       9.603  12.693  20.151  0.00  0.00    +0.000 A 
ATOM     12  C   UNL     1       9.725  11.375  20.589  0.00  0.00    +0.000 A 
ATOM     13  C   UNL     1       9.429  10.319  19.727  0.00  0.00    +0.000 A 
ENDBRANCH   7   8
ENDBRANCH   6   7
ENDBRANCH   3   6
ENDBRANCH   1   2
BRANCH   1  14
ATOM     14  P   UNL     1       5.175   4.825  17.744  0.00  0.00    +0.000 P 
ATOM     15  O   UNL     1       4.695   3.753  16.754  0.00  0.00    +0.000 OA
BRANCH  14  16
ATOM     16  O   UNL     1       6.460   4.130  18.536  0.00  0.00    +0.000 OA
ATOM     17  H   UNL     1       6.501   3.155  18.471  0.00  0.00    +0.000 HD
ENDBRANCH  14  16
BRANCH  14  18
ATOM     18  C   UNL     1       4.011   4.093  18.951  0.00  0.00    +0.000 C 
BRANCH  18  19
ATOM     19  C   UNL     1       2.609   4.757  18.961  0.00  0.00    +0.000 C 
BRANCH  19  20
ATOM     20  C   UNL     1       1.552   3.814  18.424  0.00  0.00    +0.000 C 
ATOM     21  O   UNL     1       1.350   3.605  17.239  0.00  0.00    +0.000 OA
BRANCH  20  22
ATOM     22  O   UNL     1       0.787   3.265  19.392  0.00  0.00    +0.000 OA
ATOM     23  H   UNL     1       1.082   2.373  19.681  0.00  0.00    +0.000 HD
ENDBRANCH  20  22
ENDBRANCH  19  20
BRANCH  19  24
ATOM     24  C   UNL     1       2.506   6.117  18.248  0.00  0.00    +0.000 C 
BRANCH  24  25
ATOM     25  C   UNL     1       2.516   7.323  19.187  0.00  0.00    +0.000 C 
BRANCH  25  26
ATOM     26  C   UNL     1       1.925   8.559  18.545  0.00  0.00    +0.000 C 
ATOM     27  O   UNL     1       1.071   9.280  19.037  0.00  0.00    +0.000 OA
BRANCH  26  28
ATOM     28  O   UNL     1       2.435   8.779  17.309  0.00  0.00    +0.000 OA
ATOM     29  H   UNL     1       2.897   9.638  17.240  0.00  0.00    +0.000 HD
ENDBRANCH  26  28
ENDBRANCH  25  26
ENDBRANCH  24  25
ENDBRANCH  19  24
ENDBRANCH  18  19
ENDBRANCH  14  18
ENDBRANCH   1  14
BRANCH   1  30
ATOM     30  C   UNL     1       5.915   5.362  15.053  0.00  0.00    +0.000 C 
BRANCH  30  32
ATOM     31  C   UNL     1       5.857   3.655  13.173  0.00  0.00    +0.000 C 
ATOM     32  C   UNL     1       6.735   4.437  14.144  0.00  0.00    +0.000 C 
ATOM     33  C   UNL     1       7.747   5.281  13.348  0.00  0.00    +0.000 C 
ENDBRANCH  30  32
ENDBRANCH   1  30
TORSDOF 16
ENDMDL
MODEL 5
REMARK VINA RESULT:      -7.0      2.944      7.480
REMARK  Name = 
REMARK  18 active torsions:
REMARK  status: ('A' for Active; 'I' for Inactive)
REMARK    1  A    between atoms: C_1  and  C_2
REMARK    2  A    between atoms: C_2  and  C_3
REMARK    3  A    between atoms: C_2  and  C_4
REMARK    4  A    between atoms: C_4  and  C_5
REMARK    5  A    between atoms: C_5  and  N_6
REMARK    6  A    between atoms: C_5  and  P_17
REMARK    7  A    between atoms: C_7  and  O_9
REMARK    8  A    between atoms: O_9  and  C_10
REMARK    9  A    between atoms: C_10  and  C_11
REMARK   10  A    between atoms: P_17  and  O_19
REMARK   11  A    between atoms: P_17  and  C_20
REMARK   12  A    between atoms: C_20  and  C_21
REMARK   13  A    between atoms: C_21  and  C_22
REMARK   14  A    between atoms: C_21  and  C_27
REMARK   15  A    between atoms: C_22  and  C_23
REMARK   16  A    between atoms: C_23  and  C_24
REMARK   17  A    between atoms: C_24  and  O_26
REMARK   18  A    between atoms: C_27  and  O_29
REMARK                            x       y       z     vdW  Elec       q    Type
REMARK                         _______ _______ _______ _____ _____    ______ ____
ROOT
ATOM      1  C   UNL     1       3.055   4.914  18.227  0.00  0.00    +0.000 C 
ENDROOT
BRANCH   1   2
ATOM      2  N   UNL     1       2.471   6.131  18.838  0.00  0.00    +0.000 N 
ATOM      3  C   UNL     1       2.623   7.383  18.309  0.00  0.00    +0.000 C 
ATOM      4  O   UNL     1       3.356   7.652  17.372  0.00  0.00    +0.000 OA
ATOM      5  H   UNL     1       1.677   6.040  19.454  0.00  0.00    +0.000 HD
BRANCH   3   6
ATOM      6  O   UNL     1       1.868   8.271  18.996  0.00  0.00    +0.000 OA
BRANCH   6   7
ATOM      7  C   UNL     1       1.644   7.935  20.380  0.00  0.00    +0.000 C 
BRANCH   7   8
ATOM      8  C   UNL     1       0.779   8.939  21.113  0.00  0.00    +0.000 A 
ATOM      9  C   UNL     1       0.633   8.846  22.507  0.00  0.00    +0.000 A 
ATOM     10  C   UNL     1      -0.148   9.770  23.206  0.00  0.00    +0.000 A 
ATOM     11  C   UNL     1      -0.783  10.804  22.523  0.00  0.00    +0.000 A 
ATOM     12  C   UNL     1      -0.627  10.922  21.143  0.00  0.00    +0.000 A 
ATOM     13  C   UNL     1       0.156  10.002  20.444  0.00  0.00    +0.000 A 
ENDBRANCH   7   8
ENDBRANCH   6   7
ENDBRANCH   3   6
ENDBRANCH   1   2
BRANCH   1  14
ATOM     14  P   UNL     1       4.876   4.998  18.387  0.00  0.00    +0.000 P 
ATOM     15  O   UNL     1       4.809   5.439  19.856  0.00  0.00    +0.000 OA
BRANCH  14  16
ATOM     16  O   UNL     1       4.930   3.339  18.440  0.00  0.00    +0.000 OA
ATOM     17  H   UNL     1       5.018   2.962  19.339  0.00  0.00    +0.000 HD
ENDBRANCH  14  16
BRANCH  14  18
ATOM     18  C   UNL     1       6.697   5.082  18.546  0.00  0.00    +0.000 C 
BRANCH  18  19
ATOM     19  C   UNL     1       7.400   5.840  17.389  0.00  0.00    +0.000 C 
BRANCH  19  20
ATOM     20  C   UNL     1       7.790   7.242  17.810  0.00  0.00    +0.000 C 
ATOM     21  O   UNL     1       7.573   8.247  17.153  0.00  0.00    +0.000 OA
BRANCH  20  22
ATOM     22  O   UNL     1       8.479   7.277  18.972  0.00  0.00    +0.000 OA
ATOM     23  H   UNL     1       7.925   7.140  19.772  0.00  0.00    +0.000 HD
ENDBRANCH  20  22
ENDBRANCH  19  20
BRANCH  19  24
ATOM     24  C   UNL     1       6.632   5.890  16.056  0.00  0.00    +0.000 C 
BRANCH  24  25
ATOM     25  C   UNL     1       7.224   5.009  14.956  0.00  0.00    +0.000 C 
BRANCH  25  26
ATOM     26  C   UNL     1       6.292   3.889  14.551  0.00  0.00    +0.000 C 
ATOM     27  O   UNL     1       5.830   3.713  13.434  0.00  0.00    +0.000 OA
BRANCH  26  28
ATOM     28  O   UNL     1       5.982   3.085  15.598  0.00  0.00    +0.000 OA
ATOM     29  H   UNL     1       6.023   3.553  16.456  0.00  0.00    +0.000 HD
ENDBRANCH  26  28
ENDBRANCH  25  26
ENDBRANCH  24  25
ENDBRANCH  19  24
ENDBRANCH  18  19
ENDBRANCH  14  18
ENDBRANCH   1  14
BRANCH   1  30
ATOM     30  C   UNL     1       2.425   3.642  18.865  0.00  0.00    +0.000 C 
BRANCH  30  32
ATOM     31  C   UNL     1       0.401   3.210  20.337  0.00  0.00    +0.000 C 
ATOM     32  C   UNL     1       1.838   3.715  20.281  0.00  0.00    +0.000 C 
ATOM     33  C   UNL     1       2.711   2.875  21.232  0.00  0.00    +0.000 C 
ENDBRANCH  30  32
ENDBRANCH   1  30
TORSDOF 16
ENDMDL
MODEL 6
REMARK VINA RESULT:      -7.0      3.807      7.988
REMARK  Name = 
REMARK  18 active torsions:
REMARK  status: ('A' for Active; 'I' for Inactive)
REMARK    1  A    between atoms: C_1  and  C_2
REMARK    2  A    between atoms: C_2  and  C_3
REMARK    3  A    between atoms: C_2  and  C_4
REMARK    4  A    between atoms: C_4  and  C_5
REMARK    5  A    between atoms: C_5  and  N_6
REMARK    6  A    between atoms: C_5  and  P_17
REMARK    7  A    between atoms: C_7  and  O_9
REMARK    8  A    between atoms: O_9  and  C_10
REMARK    9  A    between atoms: C_10  and  C_11
REMARK   10  A    between atoms: P_17  and  O_19
REMARK   11  A    between atoms: P_17  and  C_20
REMARK   12  A    between atoms: C_20  and  C_21
REMARK   13  A    between atoms: C_21  and  C_22
REMARK   14  A    between atoms: C_21  and  C_27
REMARK   15  A    between atoms: C_22  and  C_23
REMARK   16  A    between atoms: C_23  and  C_24
REMARK   17  A    between atoms: C_24  and  O_26
REMARK   18  A    between atoms: C_27  and  O_29
REMARK                            x       y       z     vdW  Elec       q    Type
REMARK                         _______ _______ _______ _____ _____    ______ ____
ROOT
ATOM      1  C   UNL     1       2.381   5.539  19.183  0.00  0.00    +0.000 C 
ENDROOT
BRANCH   1   2
ATOM      2  N   UNL     1       2.266   6.601  20.209  0.00  0.00    +0.000 N 
ATOM      3  C   UNL     1       1.862   7.878  19.925  0.00  0.00    +0.000 C 
ATOM      4  O   UNL     1       1.689   8.313  18.800  0.00  0.00    +0.000 OA
ATOM      5  H   UNL     1       2.152   6.341  21.177  0.00  0.00    +0.000 HD
BRANCH   3   6
ATOM      6  O   UNL     1       1.717   8.582  21.072  0.00  0.00    +0.000 OA
BRANCH   6   7
ATOM      7  C   UNL     1       0.413   8.490  21.680  0.00  0.00    +0.000 C 
BRANCH   7   8
ATOM      8  C   UNL     1      -0.320   9.814  21.740  0.00  0.00    +0.000 A 
ATOM      9  C   UNL     1      -0.760  10.311  22.978  0.00  0.00    +0.000 A 
ATOM     10  C   UNL     1      -1.425  11.537  23.058  0.00  0.00    +0.000 A 
ATOM     11  C   UNL     1      -1.649  12.287  21.906  0.00  0.00    +0.000 A 
ATOM     12  C   UNL     1      -1.195  11.817  20.675  0.00  0.00    +0.000 A 
ATOM     13  C   UNL     1      -0.527  10.594  20.593  0.00  0.00    +0.000 A 
ENDBRANCH   7   8
ENDBRANCH   6   7
ENDBRANCH   3   6
ENDBRANCH   1   2
BRANCH   1  14
ATOM     14  P   UNL     1       3.686   6.017  17.992  0.00  0.00    +0.000 P 
ATOM     15  O   UNL     1       4.810   5.825  19.022  0.00  0.00    +0.000 OA
BRANCH  14  16
ATOM     16  O   UNL     1       3.527   4.538  17.252  0.00  0.00    +0.000 OA
ATOM     17  H   UNL     1       4.335   4.217  16.803  0.00  0.00    +0.000 HD
ENDBRANCH  14  16
BRANCH  14  18
ATOM     18  C   UNL     1       4.991   6.494  16.802  0.00  0.00    +0.000 C 
BRANCH  18  19
ATOM     19  C   UNL     1       5.777   5.295  16.210  0.00  0.00    +0.000 C 
BRANCH  19  20
ATOM     20  C   UNL     1       7.236   5.342  16.614  0.00  0.00    +0.000 C 
ATOM     21  O   UNL     1       7.865   4.391  17.048  0.00  0.00    +0.000 OA
BRANCH  20  22
ATOM     22  O   UNL     1       7.776   6.577  16.517  0.00  0.00    +0.000 OA
ATOM     23  H   UNL     1       8.695   6.588  16.167  0.00  0.00    +0.000 HD
ENDBRANCH  20  22
ENDBRANCH  19  20
BRANCH  19  24
ATOM     24  C   UNL     1       5.664   5.105  14.687  0.00  0.00    +0.000 C 
BRANCH  24  25
ATOM     25  C   UNL     1       6.293   3.813  14.165  0.00  0.00    +0.000 C 
BRANCH  25  26
ATOM     26  C   UNL     1       5.788   3.440  12.789  0.00  0.00    +0.000 C 
ATOM     27  O   UNL     1       4.685   3.708  12.337  0.00  0.00    +0.000 OA
BRANCH  26  28
ATOM     28  O   UNL     1       6.703   2.726  12.090  0.00  0.00    +0.000 OA
ATOM     29  H   UNL     1       7.192   2.090  12.651  0.00  0.00    +0.000 HD
ENDBRANCH  26  28
ENDBRANCH  25  26
ENDBRANCH  24  25
ENDBRANCH  19  24
ENDBRANCH  18  19
ENDBRANCH  14  18
ENDBRANCH   1  14
BRANCH   1  30
ATOM     30  C   UNL     1       2.625   4.162  19.865  0.00  0.00    +0.000 C 
BRANCH  30  32
ATOM     31  C   UNL     1       1.363   2.067  19.180  0.00  0.00    +0.000 C 
ATOM     32  C   UNL     1       1.434   3.238  20.154  0.00  0.00    +0.000 C 
ATOM     33  C   UNL     1       1.552   2.698  21.591  0.00  0.00    +0.000 C 
ENDBRANCH  30  32
ENDBRANCH   1  30
TORSDOF 16
ENDMDL
MODEL 7
REMARK VINA RESULT:      -6.9      3.400      6.660
REMARK  Name = 
REMARK  18 active torsions:
REMARK  status: ('A' for Active; 'I' for Inactive)
REMARK    1  A    between atoms: C_1  and  C_2
REMARK    2  A    between atoms: C_2  and  C_3
REMARK    3  A    between atoms: C_2  and  C_4
REMARK    4  A    between atoms: C_4  and  C_5
REMARK    5  A    between atoms: C_5  and  N_6
REMARK    6  A    between atoms: C_5  and  P_17
REMARK    7  A    between atoms: C_7  and  O_9
REMARK    8  A    between atoms: O_9  and  C_10
REMARK    9  A    between atoms: C_10  and  C_11
REMARK   10  A    between atoms: P_17  and  O_19
REMARK   11  A    between atoms: P_17  and  C_20
REMARK   12  A    between atoms: C_20  and  C_21
REMARK   13  A    between atoms: C_21  and  C_22
REMARK   14  A    between atoms: C_21  and  C_27
REMARK   15  A    between atoms: C_22  and  C_23
REMARK   16  A    between atoms: C_23  and  C_24
REMARK   17  A    between atoms: C_24  and  O_26
REMARK   18  A    between atoms: C_27  and  O_29
REMARK                            x       y       z     vdW  Elec       q    Type
REMARK                         _______ _______ _______ _____ _____    ______ ____
ROOT
ATOM      1  C   UNL     1       2.269   5.183  18.379  0.00  0.00    +0.000 C 
ENDROOT
BRANCH   1   2
ATOM      2  N   UNL     1       2.017   6.598  18.023  0.00  0.00    +0.000 N 
ATOM      3  C   UNL     1       3.015   7.515  17.838  0.00  0.00    +0.000 C 
ATOM      4  O   UNL     1       4.194   7.311  18.077  0.00  0.00    +0.000 OA
ATOM      5  H   UNL     1       1.145   6.846  17.578  0.00  0.00    +0.000 HD
BRANCH   3   6
ATOM      6  O   UNL     1       2.496   8.680  17.385  0.00  0.00    +0.000 OA
BRANCH   6   7
ATOM      7  C   UNL     1       1.319   9.133  18.084  0.00  0.00    +0.000 C 
BRANCH   7   8
ATOM      8  C   UNL     1       1.368  10.599  18.462  0.00  0.00    +0.000 A 
ATOM      9  C   UNL     1       2.399  11.413  17.965  0.00  0.00    +0.000 A 
ATOM     10  C   UNL     1       2.454  12.770  18.289  0.00  0.00    +0.000 A 
ATOM     11  C   UNL     1       1.477  13.334  19.105  0.00  0.00    +0.000 A 
ATOM     12  C   UNL     1       0.435  12.543  19.585  0.00  0.00    +0.000 A 
ATOM     13  C   UNL     1       0.374  11.187  19.259  0.00  0.00    +0.000 A 
ENDBRANCH   7   8
ENDBRANCH   6   7
ENDBRANCH   3   6
ENDBRANCH   1   2
BRANCH   1  14
ATOM     14  P   UNL     1       3.750   4.609  17.469  0.00  0.00    +0.000 P 
ATOM     15  O   UNL     1       4.418   4.061  18.739  0.00  0.00    +0.000 OA
BRANCH  14  16
ATOM     16  O   UNL     1       2.867   3.337  16.868  0.00  0.00    +0.000 OA
ATOM     17  H   UNL     1       1.901   3.490  16.834  0.00  0.00    +0.000 HD
ENDBRANCH  14  16
BRANCH  14  18
ATOM     18  C   UNL     1       5.230   4.035  16.560  0.00  0.00    +0.000 C 
BRANCH  18  19
ATOM     19  C   UNL     1       6.035   5.173  15.877  0.00  0.00    +0.000 C 
BRANCH  19  20
ATOM     20  C   UNL     1       6.659   4.701  14.580  0.00  0.00    +0.000 C 
ATOM     21  O   UNL     1       6.269   3.742  13.934  0.00  0.00    +0.000 OA
BRANCH  20  22
ATOM     22  O   UNL     1       7.755   5.409  14.227  0.00  0.00    +0.000 OA
ATOM     23  H   UNL     1       8.310   4.975  13.542  0.00  0.00    +0.000 HD
ENDBRANCH  20  22
ENDBRANCH  19  20
BRANCH  19  24
ATOM     24  C   UNL     1       7.102   5.857  16.751  0.00  0.00    +0.000 C 
BRANCH  24  25
ATOM     25  C   UNL     1       7.641   4.985  17.884  0.00  0.00    +0.000 C 
BRANCH  25  26
ATOM     26  C   UNL     1       7.831   5.761  19.169  0.00  0.00    +0.000 C 
ATOM     27  O   UNL     1       7.530   5.375  20.287  0.00  0.00    +0.000 OA
BRANCH  26  28
ATOM     28  O   UNL     1       8.362   6.988  18.944  0.00  0.00    +0.000 OA
ATOM     29  H   UNL     1       7.765   7.567  18.429  0.00  0.00    +0.000 HD
ENDBRANCH  26  28
ENDBRANCH  25  26
ENDBRANCH  24  25
ENDBRANCH  19  24
ENDBRANCH  18  19
ENDBRANCH  14  18
ENDBRANCH   1  14
BRANCH   1  30
ATOM     30  C   UNL     1       2.382   5.033  19.923  0.00  0.00    +0.000 C 
BRANCH  30  32
ATOM     31  C   UNL     1       0.762   3.084  19.740  0.00  0.00    +0.000 C 
ATOM     32  C   UNL     1       1.410   4.107  20.667  0.00  0.00    +0.000 C 
ATOM     33  C   UNL     1       2.171   3.371  21.785  0.00  0.00    +0.000 C 
ENDBRANCH  30  32
ENDBRANCH   1  30
TORSDOF 16
ENDMDL
MODEL 8
REMARK VINA RESULT:      -6.9      1.616      3.275
REMARK  Name = 
REMARK  18 active torsions:
REMARK  status: ('A' for Active; 'I' for Inactive)
REMARK    1  A    between atoms: C_1  and  C_2
REMARK    2  A    between atoms: C_2  and  C_3
REMARK    3  A    between atoms: C_2  and  C_4
REMARK    4  A    between atoms: C_4  and  C_5
REMARK    5  A    between atoms: C_5  and  N_6
REMARK    6  A    between atoms: C_5  and  P_17
REMARK    7  A    between atoms: C_7  and  O_9
REMARK    8  A    between atoms: O_9  and  C_10
REMARK    9  A    between atoms: C_10  and  C_11
REMARK   10  A    between atoms: P_17  and  O_19
REMARK   11  A    between atoms: P_17  and  C_20
REMARK   12  A    between atoms: C_20  and  C_21
REMARK   13  A    between atoms: C_21  and  C_22
REMARK   14  A    between atoms: C_21  and  C_27
REMARK   15  A    between atoms: C_22  and  C_23
REMARK   16  A    between atoms: C_23  and  C_24
REMARK   17  A    between atoms: C_24  and  O_26
REMARK   18  A    between atoms: C_27  and  O_29
REMARK                            x       y       z     vdW  Elec       q    Type
REMARK                         _______ _______ _______ _____ _____    ______ ____
ROOT
ATOM      1  C   UNL     1       6.682   5.479  17.118  0.00  0.00    +0.000 C 
ENDROOT
BRANCH   1   2
ATOM      2  N   UNL     1       7.662   6.496  17.566  0.00  0.00    +0.000 N 
ATOM      3  C   UNL     1       7.400   7.839  17.571  0.00  0.00    +0.000 C 
ATOM      4  O   UNL     1       6.404   8.350  17.088  0.00  0.00    +0.000 OA
ATOM      5  H   UNL     1       8.407   6.221  18.189  0.00  0.00    +0.000 HD
BRANCH   3   6
ATOM      6  O   UNL     1       8.419   8.506  18.161  0.00  0.00    +0.000 OA
BRANCH   6   7
ATOM      7  C   UNL     1       8.464   9.919  17.878  0.00  0.00    +0.000 C 
BRANCH   7   8
ATOM      8  C   UNL     1       9.522  10.660  18.669  0.00  0.00    +0.000 A 
ATOM      9  C   UNL     1      10.641  11.193  18.008  0.00  0.00    +0.000 A 
ATOM     10  C   UNL     1      11.621  11.892  18.716  0.00  0.00    +0.000 A 
ATOM     11  C   UNL     1      11.490  12.080  20.090  0.00  0.00    +0.000 A 
ATOM     12  C   UNL     1      10.372  11.578  20.754  0.00  0.00    +0.000 A 
ATOM     13  C   UNL     1       9.390  10.882  20.048  0.00  0.00    +0.000 A 
ENDBRANCH   7   8
ENDBRANCH   6   7
ENDBRANCH   3   6
ENDBRANCH   1   2
BRANCH   1  14
ATOM     14  P   UNL     1       5.413   5.280  18.422  0.00  0.00    +0.000 P 
ATOM     15  O   UNL     1       4.258   5.267  17.410  0.00  0.00    +0.000 OA
BRANCH  14  16
ATOM     16  O   UNL     1       5.856   3.687  18.585  0.00  0.00    +0.000 OA
ATOM     17  H   UNL     1       5.695   3.306  19.471  0.00  0.00    +0.000 HD
ENDBRANCH  14  16
BRANCH  14  18
ATOM     18  C   UNL     1       4.145   5.079  19.726  0.00  0.00    +0.000 C 
BRANCH  18  19
ATOM     19  C   UNL     1       2.697   5.371  19.251  0.00  0.00    +0.000 C 
BRANCH  19  20
ATOM     20  C   UNL     1       2.190   6.684  19.812  0.00  0.00    +0.000 C 
ATOM     21  O   UNL     1       2.183   7.740  19.201  0.00  0.00    +0.000 OA
BRANCH  20  22
ATOM     22  O   UNL     1       1.803   6.598  21.103  0.00  0.00    +0.000 OA
ATOM     23  H   UNL     1       1.103   7.240  21.357  0.00  0.00    +0.000 HD
ENDBRANCH  20  22
ENDBRANCH  19  20
BRANCH  19  24
ATOM     24  C   UNL     1       1.668   4.259  19.515  0.00  0.00    +0.000 C 
BRANCH  24  25
ATOM     25  C   UNL     1       2.280   2.918  19.923  0.00  0.00    +0.000 C 
BRANCH  25  26
ATOM     26  C   UNL     1       2.669   2.075  18.728  0.00  0.00    +0.000 C 
ATOM     27  O   UNL     1       3.747   1.527  18.563  0.00  0.00    +0.000 OA
BRANCH  26  28
ATOM     28  O   UNL     1       1.674   2.012  17.810  0.00  0.00    +0.000 OA
ATOM     29  H   UNL     1       1.172   1.174  17.856  0.00  0.00    +0.000 HD
ENDBRANCH  26  28
ENDBRANCH  25  26
ENDBRANCH  24  25
ENDBRANCH  19  24
ENDBRANCH  18  19
ENDBRANCH  14  18
ENDBRANCH   1  14
BRANCH   1  30
ATOM     30  C   UNL     1       6.101   5.872  15.730  0.00  0.00    +0.000 C 
BRANCH  30  32
ATOM     31  C   UNL     1       7.409   5.011  13.730  0.00  0.00    +0.000 C 
ATOM     32  C   UNL     1       6.149   4.862  14.575  0.00  0.00    +0.000 C 
ATOM     33  C   UNL     1       6.088   3.436  15.151  0.00  0.00    +0.000 C 
ENDBRANCH  30  32
ENDBRANCH   1  30
TORSDOF 16
ENDMDL
MODEL 9
REMARK VINA RESULT:      -6.8      3.515      7.388
REMARK  Name = 
REMARK  18 active torsions:
REMARK  status: ('A' for Active; 'I' for Inactive)
REMARK    1  A    between atoms: C_1  and  C_2
REMARK    2  A    between atoms: C_2  and  C_3
REMARK    3  A    between atoms: C_2  and  C_4
REMARK    4  A    between atoms: C_4  and  C_5
REMARK    5  A    between atoms: C_5  and  N_6
REMARK    6  A    between atoms: C_5  and  P_17
REMARK    7  A    between atoms: C_7  and  O_9
REMARK    8  A    between atoms: O_9  and  C_10
REMARK    9  A    between atoms: C_10  and  C_11
REMARK   10  A    between atoms: P_17  and  O_19
REMARK   11  A    between atoms: P_17  and  C_20
REMARK   12  A    between atoms: C_20  and  C_21
REMARK   13  A    between atoms: C_21  and  C_22
REMARK   14  A    between atoms: C_21  and  C_27
REMARK   15  A    between atoms: C_22  and  C_23
REMARK   16  A    between atoms: C_23  and  C_24
REMARK   17  A    between atoms: C_24  and  O_26
REMARK   18  A    between atoms: C_27  and  O_29
REMARK                            x       y       z     vdW  Elec       q    Type
REMARK                         _______ _______ _______ _____ _____    ______ ____
ROOT
ATOM      1  C   UNL     1       2.169   4.424  18.478  0.00  0.00    +0.000 C 
ENDROOT
BRANCH   1   2
ATOM      2  N   UNL     1       2.277   5.675  19.263  0.00  0.00    +0.000 N 
ATOM      3  C   UNL     1       2.219   6.921  18.701  0.00  0.00    +0.000 C 
ATOM      4  O   UNL     1       2.210   7.138  17.501  0.00  0.00    +0.000 OA
ATOM      5  H   UNL     1       2.057   5.659  20.248  0.00  0.00    +0.000 HD
BRANCH   3   6
ATOM      6  O   UNL     1       2.203   7.865  19.670  0.00  0.00    +0.000 OA
BRANCH   6   7
ATOM      7  C   UNL     1       1.342   8.991  19.407  0.00  0.00    +0.000 C 
BRANCH   7   8
ATOM      8  C   UNL     1       0.649   9.524  20.645  0.00  0.00    +0.000 A 
ATOM      9  C   UNL     1       0.409  10.902  20.769  0.00  0.00    +0.000 A 
ATOM     10  C   UNL     1      -0.242  11.414  21.895  0.00  0.00    +0.000 A 
ATOM     11  C   UNL     1      -0.670  10.555  22.904  0.00  0.00    +0.000 A 
ATOM     12  C   UNL     1      -0.460   9.182  22.781  0.00  0.00    +0.000 A 
ATOM     13  C   UNL     1       0.186   8.669  21.655  0.00  0.00    +0.000 A 
ENDBRANCH   7   8
ENDBRANCH   6   7
ENDBRANCH   3   6
ENDBRANCH   1   2
BRANCH   1  14
ATOM     14  P   UNL     1       3.742   4.161  17.580  0.00  0.00    +0.000 P 
ATOM     15  O   UNL     1       4.595   4.474  18.817  0.00  0.00    +0.000 OA
BRANCH  14  16
ATOM     16  O   UNL     1       3.483   2.521  17.643  0.00  0.00    +0.000 OA
ATOM     17  H   UNL     1       3.814   2.086  18.454  0.00  0.00    +0.000 HD
ENDBRANCH  14  16
BRANCH  14  18
ATOM     18  C   UNL     1       5.314   3.898  16.682  0.00  0.00    +0.000 C 
BRANCH  18  19
ATOM     19  C   UNL     1       5.877   5.174  16.003  0.00  0.00    +0.000 C 
BRANCH  19  20
ATOM     20  C   UNL     1       6.437   4.863  14.630  0.00  0.00    +0.000 C 
ATOM     21  O   UNL     1       5.923   4.099  13.830  0.00  0.00    +0.000 OA
BRANCH  20  22
ATOM     22  O   UNL     1       7.623   5.465  14.390  0.00  0.00    +0.000 OA
ATOM     23  H   UNL     1       7.723   5.803  13.472  0.00  0.00    +0.000 HD
ENDBRANCH  20  22
ENDBRANCH  19  20
BRANCH  19  24
ATOM     24  C   UNL     1       6.911   5.968  16.821  0.00  0.00    +0.000 C 
BRANCH  24  25
ATOM     25  C   UNL     1       7.697   5.128  17.828  0.00  0.00    +0.000 C 
BRANCH  25  26
ATOM     26  C   UNL     1       7.870   5.832  19.155  0.00  0.00    +0.000 C 
ATOM     27  O   UNL     1       7.543   5.390  20.246  0.00  0.00    +0.000 OA
BRANCH  26  28
ATOM     28  O   UNL     1       8.416   7.064  19.007  0.00  0.00    +0.000 OA
ATOM     29  H   UNL     1       7.845   7.774  19.360  0.00  0.00    +0.000 HD
ENDBRANCH  26  28
ENDBRANCH  25  26
ENDBRANCH  24  25
ENDBRANCH  19  24
ENDBRANCH  18  19
ENDBRANCH  14  18
ENDBRANCH   1  14
BRANCH   1  30
ATOM     30  C   UNL     1       1.770   3.242  19.408  0.00  0.00    +0.000 C 
BRANCH  30  32
ATOM     31  C   UNL     1       1.132   2.735  21.814  0.00  0.00    +0.000 C 
ATOM     32  C   UNL     1       2.218   3.250  20.876  0.00  0.00    +0.000 C 
ATOM     33  C   UNL     1       3.475   2.372  21.023  0.00  0.00    +0.000 C 
ENDBRANCH  30  32
ENDBRANCH   1  30
TORSDOF 16
ENDMDL
