MODEL 1
REMARK VINA RESULT:      -8.4      0.000      0.000
REMARK  Name = 
REMARK  6 active torsions:
REMARK  status: ('A' for Active; 'I' for Inactive)
REMARK    1  A    between atoms: C_1  and  O_2
REMARK    2  A    between atoms: O_2  and  C_3
REMARK    3  A    between atoms: C_8  and  C_9
REMARK    4  A    between atoms: N_19  and  C_20
REMARK    5  A    between atoms: C_20  and  C_21
REMARK    6  A    between atoms: C_20  and  C_22
REMARK                            x       y       z     vdW  Elec       q    Type
REMARK                         _______ _______ _______ _____ _____    ______ ____
ROOT
ATOM      1  C   UNL     1       3.828   5.424  18.445  0.00  0.00    +0.000 A 
ATOM      2  N   UNL     1       3.273   4.575  17.594  0.00  0.00    +0.000 NA
ATOM      3  C   UNL     1       1.954   4.224  17.832  0.00  0.00    +0.000 A 
ATOM      4  O   UNL     1       1.123   3.986  16.963  0.00  0.00    +0.000 OA
ATOM      5  C   UNL     1       1.587   4.080  19.253  0.00  0.00    +0.000 A 
ATOM      6  C   UNL     1       0.900   2.950  19.694  0.00  0.00    +0.000 A 
ATOM      7  C   UNL     1       1.107   2.531  21.002  0.00  0.00    +0.000 A 
ATOM      8  C   UNL     1       1.976   3.258  21.828  0.00  0.00    +0.000 A 
ATOM      9  C   UNL     1       2.555   4.468  21.392  0.00  0.00    +0.000 A 
ATOM     10  C   UNL     1       2.316   4.931  20.094  0.00  0.00    +0.000 A 
ATOM     11  N   UNL     1       3.083   5.988  19.485  0.00  0.00    +0.000 N 
ENDROOT
BRANCH   1  17
ATOM     12  C   UNL     1       5.883   6.329  17.154  0.00  0.00    +0.000 A 
ATOM     13  C   UNL     1       7.238   6.698  17.205  0.00  0.00    +0.000 A 
ATOM     14  C   UNL     1       8.016   6.416  18.327  0.00  0.00    +0.000 A 
ATOM     15  C   UNL     1       7.449   5.777  19.419  0.00  0.00    +0.000 A 
ATOM     16  C   UNL     1       6.095   5.459  19.407  0.00  0.00    +0.000 A 
ATOM     17  C   UNL     1       5.286   5.748  18.292  0.00  0.00    +0.000 A 
BRANCH  12  19
ATOM     18  C   UNL     1       5.390   5.669  14.942  0.00  0.00    +0.000 C 
ATOM     19  O   UNL     1       5.143   6.578  16.021  0.00  0.00    +0.000 OA
ENDBRANCH  12  19
ENDBRANCH   1  17
BRANCH  11  20
ATOM     20  C   UNL     1       2.198   7.148  19.044  0.00  0.00    +0.000 C 
ATOM     21  C   UNL     1       1.811   8.005  20.253  0.00  0.00    +0.000 C 
ATOM     22  C   UNL     1       2.865   8.134  18.050  0.00  0.00    +0.000 C 
ENDBRANCH  11  20
TORSDOF 3
ENDMDL
MODEL 2
REMARK VINA RESULT:      -7.6      1.321      2.191
REMARK  Name = 
REMARK  6 active torsions:
REMARK  status: ('A' for Active; 'I' for Inactive)
REMARK    1  A    between atoms: C_1  and  O_2
REMARK    2  A    between atoms: O_2  and  C_3
REMARK    3  A    between atoms: C_8  and  C_9
REMARK    4  A    between atoms: N_19  and  C_20
REMARK    5  A    between atoms: C_20  and  C_21
REMARK    6  A    between atoms: C_20  and  C_22
REMARK                            x       y       z     vdW  Elec       q    Type
REMARK                         _______ _______ _______ _____ _____    ______ ____
ROOT
ATOM      1  C   UNL     1       3.575   4.783  17.687  0.00  0.00    +0.000 A 
ATOM      2  N   UNL     1       2.647   4.002  17.158  0.00  0.00    +0.000 NA
ATOM      3  C   UNL     1       1.427   3.950  17.814  0.00  0.00    +0.000 A 
ATOM      4  O   UNL     1       0.340   3.820  17.263  0.00  0.00    +0.000 OA
ATOM      5  C   UNL     1       1.501   3.994  19.285  0.00  0.00    +0.000 A 
ATOM      6  C   UNL     1       0.801   3.067  20.056  0.00  0.00    +0.000 A 
ATOM      7  C   UNL     1       1.329   2.717  21.292  0.00  0.00    +0.000 A 
ATOM      8  C   UNL     1       2.523   3.312  21.724  0.00  0.00    +0.000 A 
ATOM      9  C   UNL     1       3.137   4.340  20.979  0.00  0.00    +0.000 A 
ATOM     10  C   UNL     1       2.590   4.739  19.755  0.00  0.00    +0.000 A 
ATOM     11  N   UNL     1       3.300   5.567  18.812  0.00  0.00    +0.000 N 
ENDROOT
BRANCH   1  17
ATOM     12  C   UNL     1       6.163   4.748  17.790  0.00  0.00    +0.000 A 
ATOM     13  C   UNL     1       7.370   4.623  17.078  0.00  0.00    +0.000 A 
ATOM     14  C   UNL     1       7.384   4.630  15.684  0.00  0.00    +0.000 A 
ATOM     15  C   UNL     1       6.195   4.745  14.980  0.00  0.00    +0.000 A 
ATOM     16  C   UNL     1       4.988   4.810  15.670  0.00  0.00    +0.000 A 
ATOM     17  C   UNL     1       4.947   4.788  17.076  0.00  0.00    +0.000 A 
BRANCH  12  19
ATOM     18  C   UNL     1       7.267   5.515  19.729  0.00  0.00    +0.000 C 
ATOM     19  O   UNL     1       6.174   4.782  19.164  0.00  0.00    +0.000 OA
ENDBRANCH  12  19
ENDBRANCH   1  17
BRANCH  11  20
ATOM     20  C   UNL     1       2.535   6.846  18.493  0.00  0.00    +0.000 C 
ATOM     21  C   UNL     1       2.148   7.565  19.788  0.00  0.00    +0.000 C 
ATOM     22  C   UNL     1       3.333   7.893  17.674  0.00  0.00    +0.000 C 
ENDBRANCH  11  20
TORSDOF 3
ENDMDL
MODEL 3
REMARK VINA RESULT:      -7.4      1.190      1.806
REMARK  Name = 
REMARK  6 active torsions:
REMARK  status: ('A' for Active; 'I' for Inactive)
REMARK    1  A    between atoms: C_1  and  O_2
REMARK    2  A    between atoms: O_2  and  C_3
REMARK    3  A    between atoms: C_8  and  C_9
REMARK    4  A    between atoms: N_19  and  C_20
REMARK    5  A    between atoms: C_20  and  C_21
REMARK    6  A    between atoms: C_20  and  C_22
REMARK                            x       y       z     vdW  Elec       q    Type
REMARK                         _______ _______ _______ _____ _____    ______ ____
ROOT
ATOM      1  C   UNL     1       3.618   5.639  18.434  0.00  0.00    +0.000 A 
ATOM      2  N   UNL     1       3.045   4.823  17.564  0.00  0.00    +0.000 NA
ATOM      3  C   UNL     1       1.745   4.430  17.838  0.00  0.00    +0.000 A 
ATOM      4  O   UNL     1       0.882   4.219  16.993  0.00  0.00    +0.000 OA
ATOM      5  C   UNL     1       1.444   4.203  19.263  0.00  0.00    +0.000 A 
ATOM      6  C   UNL     1       0.800   3.035  19.671  0.00  0.00    +0.000 A 
ATOM      7  C   UNL     1       1.073   2.552  20.945  0.00  0.00    +0.000 A 
ATOM      8  C   UNL     1       1.962   3.254  21.771  0.00  0.00    +0.000 A 
ATOM      9  C   UNL     1       2.495   4.498  21.378  0.00  0.00    +0.000 A 
ATOM     10  C   UNL     1       2.191   5.024  20.118  0.00  0.00    +0.000 A 
ATOM     11  N   UNL     1       2.909   6.130  19.534  0.00  0.00    +0.000 N 
ENDROOT
BRANCH   1  17
ATOM     12  C   UNL     1       6.154   5.428  18.919  0.00  0.00    +0.000 A 
ATOM     13  C   UNL     1       7.461   5.776  18.535  0.00  0.00    +0.000 A 
ATOM     14  C   UNL     1       7.686   6.744  17.558  0.00  0.00    +0.000 A 
ATOM     15  C   UNL     1       6.613   7.367  16.939  0.00  0.00    +0.000 A 
ATOM     16  C   UNL     1       5.314   6.990  17.267  0.00  0.00    +0.000 A 
ATOM     17  C   UNL     1       5.062   6.004  18.238  0.00  0.00    +0.000 A 
BRANCH  12  19
ATOM     18  C   UNL     1       5.357   3.276  19.471  0.00  0.00    +0.000 C 
ATOM     19  O   UNL     1       5.952   4.501  19.915  0.00  0.00    +0.000 OA
ENDBRANCH  12  19
ENDBRANCH   1  17
BRANCH  11  20
ATOM     20  C   UNL     1       1.981   7.291  19.195  0.00  0.00    +0.000 C 
ATOM     21  C   UNL     1       1.677   8.108  20.454  0.00  0.00    +0.000 C 
ATOM     22  C   UNL     1       2.561   8.312  18.182  0.00  0.00    +0.000 C 
ENDBRANCH  11  20
TORSDOF 3
ENDMDL
MODEL 4
REMARK VINA RESULT:      -7.1      1.681      5.447
REMARK  Name = 
REMARK  6 active torsions:
REMARK  status: ('A' for Active; 'I' for Inactive)
REMARK    1  A    between atoms: C_1  and  O_2
REMARK    2  A    between atoms: O_2  and  C_3
REMARK    3  A    between atoms: C_8  and  C_9
REMARK    4  A    between atoms: N_19  and  C_20
REMARK    5  A    between atoms: C_20  and  C_21
REMARK    6  A    between atoms: C_20  and  C_22
REMARK                            x       y       z     vdW  Elec       q    Type
REMARK                         _______ _______ _______ _____ _____    ______ ____
ROOT
ATOM      1  C   UNL     1       3.424   6.867  17.852  0.00  0.00    +0.000 A 
ATOM      2  N   UNL     1       4.059   7.395  16.818  0.00  0.00    +0.000 NA
ATOM      3  C   UNL     1       5.058   6.628  16.240  0.00  0.00    +0.000 A 
ATOM      4  O   UNL     1       5.330   6.615  15.045  0.00  0.00    +0.000 OA
ATOM      5  C   UNL     1       5.866   5.834  17.183  0.00  0.00    +0.000 A 
ATOM      6  C   UNL     1       7.259   5.862  17.117  0.00  0.00    +0.000 A 
ATOM      7  C   UNL     1       7.969   5.662  18.294  0.00  0.00    +0.000 A 
ATOM      8  C   UNL     1       7.273   5.426  19.487  0.00  0.00    +0.000 A 
ATOM      9  C   UNL     1       5.871   5.276  19.496  0.00  0.00    +0.000 A 
ATOM     10  C   UNL     1       5.144   5.425  18.311  0.00  0.00    +0.000 A 
ATOM     11  N   UNL     1       3.709   5.569  18.284  0.00  0.00    +0.000 N 
ENDROOT
BRANCH   1  17
ATOM     12  C   UNL     1       1.996   7.514  19.914  0.00  0.00    +0.000 A 
ATOM     13  C   UNL     1       1.137   8.458  20.505  0.00  0.00    +0.000 A 
ATOM     14  C   UNL     1       0.622   9.520  19.763  0.00  0.00    +0.000 A 
ATOM     15  C   UNL     1       0.968   9.665  18.429  0.00  0.00    +0.000 A 
ATOM     16  C   UNL     1       1.864   8.773  17.847  0.00  0.00    +0.000 A 
ATOM     17  C   UNL     1       2.410   7.703  18.579  0.00  0.00    +0.000 A 
BRANCH  12  19
ATOM     18  C   UNL     1       1.484   5.431  20.899  0.00  0.00    +0.000 C 
ATOM     19  O   UNL     1       2.461   6.449  20.651  0.00  0.00    +0.000 OA
ENDBRANCH  12  19
ENDBRANCH   1  17
BRANCH  11  20
ATOM     20  C   UNL     1       3.048   4.485  17.440  0.00  0.00    +0.000 C 
ATOM     21  C   UNL     1       3.594   3.108  17.829  0.00  0.00    +0.000 C 
ATOM     22  C   UNL     1       1.511   4.372  17.616  0.00  0.00    +0.000 C 
ENDBRANCH  11  20
TORSDOF 3
ENDMDL
MODEL 5
REMARK VINA RESULT:      -7.0      1.830      5.462
REMARK  Name = 
REMARK  6 active torsions:
REMARK  status: ('A' for Active; 'I' for Inactive)
REMARK    1  A    between atoms: C_1  and  O_2
REMARK    2  A    between atoms: O_2  and  C_3
REMARK    3  A    between atoms: C_8  and  C_9
REMARK    4  A    between atoms: N_19  and  C_20
REMARK    5  A    between atoms: C_20  and  C_21
REMARK    6  A    between atoms: C_20  and  C_22
REMARK                            x       y       z     vdW  Elec       q    Type
REMARK                         _______ _______ _______ _____ _____    ______ ____
ROOT
ATOM      1  C   UNL     1       4.219   4.707  19.022  0.00  0.00    +0.000 A 
ATOM      2  N   UNL     1       5.450   4.642  19.504  0.00  0.00    +0.000 NA
ATOM      3  C   UNL     1       6.436   5.304  18.790  0.00  0.00    +0.000 A 
ATOM      4  O   UNL     1       7.410   5.858  19.288  0.00  0.00    +0.000 OA
ATOM      5  C   UNL     1       6.291   5.258  17.324  0.00  0.00    +0.000 A 
ATOM      6  C   UNL     1       7.372   4.905  16.518  0.00  0.00    +0.000 A 
ATOM      7  C   UNL     1       7.105   4.278  15.308  0.00  0.00    +0.000 A 
ATOM      8  C   UNL     1       5.775   4.039  14.936  0.00  0.00    +0.000 A 
ATOM      9  C   UNL     1       4.702   4.523  15.712  0.00  0.00    +0.000 A 
ATOM     10  C   UNL     1       4.954   5.201  16.909  0.00  0.00    +0.000 A 
ATOM     11  N   UNL     1       3.931   5.472  17.888  0.00  0.00    +0.000 N 
ENDROOT
BRANCH   1  17
ATOM     12  C   UNL     1       2.505   2.771  19.169  0.00  0.00    +0.000 A 
ATOM     13  C   UNL     1       1.602   2.053  19.974  0.00  0.00    +0.000 A 
ATOM     14  C   UNL     1       1.259   2.509  21.246  0.00  0.00    +0.000 A 
ATOM     15  C   UNL     1       1.823   3.675  21.740  0.00  0.00    +0.000 A 
ATOM     16  C   UNL     1       2.762   4.363  20.978  0.00  0.00    +0.000 A 
ATOM     17  C   UNL     1       3.137   3.915  19.699  0.00  0.00    +0.000 A 
BRANCH  12  19
ATOM     18  C   UNL     1       3.860   1.369  17.840  0.00  0.00    +0.000 C 
ATOM     19  O   UNL     1       2.799   2.328  17.900  0.00  0.00    +0.000 OA
ENDBRANCH  12  19
ENDBRANCH   1  17
BRANCH  11  20
ATOM     20  C   UNL     1       3.801   6.964  18.173  0.00  0.00    +0.000 C 
ATOM     21  C   UNL     1       3.928   7.762  16.872  0.00  0.00    +0.000 C 
ATOM     22  C   UNL     1       2.439   7.393  18.778  0.00  0.00    +0.000 C 
ENDBRANCH  11  20
TORSDOF 3
ENDMDL
MODEL 6
REMARK VINA RESULT:      -7.0      5.393      8.291
REMARK  Name = 
REMARK  6 active torsions:
REMARK  status: ('A' for Active; 'I' for Inactive)
REMARK    1  A    between atoms: C_1  and  O_2
REMARK    2  A    between atoms: O_2  and  C_3
REMARK    3  A    between atoms: C_8  and  C_9
REMARK    4  A    between atoms: N_19  and  C_20
REMARK    5  A    between atoms: C_20  and  C_21
REMARK    6  A    between atoms: C_20  and  C_22
REMARK                            x       y       z     vdW  Elec       q    Type
REMARK                         _______ _______ _______ _____ _____    ______ ____
ROOT
ATOM      1  C   UNL     1      -0.938  10.381  18.810  0.00  0.00    +0.000 A 
ATOM      2  N   UNL     1      -1.160   9.887  20.018  0.00  0.00    +0.000 NA
ATOM      3  C   UNL     1      -0.046   9.620  20.797  0.00  0.00    +0.000 A 
ATOM      4  O   UNL     1       0.002   9.739  22.016  0.00  0.00    +0.000 OA
ATOM      5  C   UNL     1       1.122   9.096  20.067  0.00  0.00    +0.000 A 
ATOM      6  C   UNL     1       1.792   7.962  20.526  0.00  0.00    +0.000 A 
ATOM      7  C   UNL     1       2.419   7.152  19.588  0.00  0.00    +0.000 A 
ATOM      8  C   UNL     1       2.372   7.505  18.232  0.00  0.00    +0.000 A 
ATOM      9  C   UNL     1       1.797   8.723  17.815  0.00  0.00    +0.000 A 
ATOM     10  C   UNL     1       1.205   9.575  18.753  0.00  0.00    +0.000 A 
ATOM     11  N   UNL     1       0.358  10.682  18.383  0.00  0.00    +0.000 N 
ENDROOT
BRANCH   1  17
ATOM     12  C   UNL     1      -3.193  11.454  18.119  0.00  0.00    +0.000 A 
ATOM     13  C   UNL     1      -4.148  11.640  17.104  0.00  0.00    +0.000 A 
ATOM     14  C   UNL     1      -4.085  10.911  15.918  0.00  0.00    +0.000 A 
ATOM     15  C   UNL     1      -3.059   9.999  15.720  0.00  0.00    +0.000 A 
ATOM     16  C   UNL     1      -2.073   9.847  16.690  0.00  0.00    +0.000 A 
ATOM     17  C   UNL     1      -2.107  10.584  17.888  0.00  0.00    +0.000 A 
BRANCH  12  19
ATOM     18  C   UNL     1      -4.640  12.452  19.693  0.00  0.00    +0.000 C 
ATOM     19  O   UNL     1      -3.296  12.152  19.300  0.00  0.00    +0.000 OA
ENDBRANCH  12  19
ENDBRANCH   1  17
BRANCH  11  20
ATOM     20  C   UNL     1       0.888  12.005  18.923  0.00  0.00    +0.000 C 
ATOM     21  C   UNL     1       2.279  12.290  18.348  0.00  0.00    +0.000 C 
ATOM     22  C   UNL     1       0.037  13.247  18.550  0.00  0.00    +0.000 C 
ENDBRANCH  11  20
TORSDOF 3
ENDMDL
MODEL 7
REMARK VINA RESULT:      -6.9      2.007      5.332
REMARK  Name = 
REMARK  6 active torsions:
REMARK  status: ('A' for Active; 'I' for Inactive)
REMARK    1  A    between atoms: C_1  and  O_2
REMARK    2  A    between atoms: O_2  and  C_3
REMARK    3  A    between atoms: C_8  and  C_9
REMARK    4  A    between atoms: N_19  and  C_20
REMARK    5  A    between atoms: C_20  and  C_21
REMARK    6  A    between atoms: C_20  and  C_22
REMARK                            x       y       z     vdW  Elec       q    Type
REMARK                         _______ _______ _______ _____ _____    ______ ____
ROOT
ATOM      1  C   UNL     1       3.284   6.969  18.195  0.00  0.00    +0.000 A 
ATOM      2  N   UNL     1       3.837   7.602  17.173  0.00  0.00    +0.000 NA
ATOM      3  C   UNL     1       4.798   6.908  16.454  0.00  0.00    +0.000 A 
ATOM      4  O   UNL     1       4.983   7.013  15.247  0.00  0.00    +0.000 OA
ATOM      5  C   UNL     1       5.678   6.040  17.256  0.00  0.00    +0.000 A 
ATOM      6  C   UNL     1       7.063   6.095  17.094  0.00  0.00    +0.000 A 
ATOM      7  C   UNL     1       7.858   5.794  18.192  0.00  0.00    +0.000 A 
ATOM      8  C   UNL     1       7.253   5.436  19.405  0.00  0.00    +0.000 A 
ATOM      9  C   UNL     1       5.856   5.265  19.500  0.00  0.00    +0.000 A 
ATOM     10  C   UNL     1       5.044   5.515  18.389  0.00  0.00    +0.000 A 
ATOM     11  N   UNL     1       3.610   5.640  18.478  0.00  0.00    +0.000 N 
ENDROOT
BRANCH   1  17
ATOM     12  C   UNL     1       1.715   8.952  18.755  0.00  0.00    +0.000 A 
ATOM     13  C   UNL     1       0.728   9.469  19.613  0.00  0.00    +0.000 A 
ATOM     14  C   UNL     1       0.408   8.825  20.807  0.00  0.00    +0.000 A 
ATOM     15  C   UNL     1       1.054   7.649  21.155  0.00  0.00    +0.000 A 
ATOM     16  C   UNL     1       1.991   7.094  20.287  0.00  0.00    +0.000 A 
ATOM     17  C   UNL     1       2.319   7.717  19.070  0.00  0.00    +0.000 A 
BRANCH  12  19
ATOM     18  C   UNL     1       2.285  11.026  17.782  0.00  0.00    +0.000 C 
ATOM     19  O   UNL     1       2.047   9.625  17.602  0.00  0.00    +0.000 OA
ENDBRANCH  12  19
ENDBRANCH   1  17
BRANCH  11  20
ATOM     20  C   UNL     1       2.897   4.631  17.584  0.00  0.00    +0.000 C 
ATOM     21  C   UNL     1       3.655   3.301  17.582  0.00  0.00    +0.000 C 
ATOM     22  C   UNL     1       1.456   4.273  18.030  0.00  0.00    +0.000 C 
ENDBRANCH  11  20
TORSDOF 3
ENDMDL
MODEL 8
REMARK VINA RESULT:      -6.7      1.945      5.787
REMARK  Name = 
REMARK  6 active torsions:
REMARK  status: ('A' for Active; 'I' for Inactive)
REMARK    1  A    between atoms: C_1  and  O_2
REMARK    2  A    between atoms: O_2  and  C_3
REMARK    3  A    between atoms: C_8  and  C_9
REMARK    4  A    between atoms: N_19  and  C_20
REMARK    5  A    between atoms: C_20  and  C_21
REMARK    6  A    between atoms: C_20  and  C_22
REMARK                            x       y       z     vdW  Elec       q    Type
REMARK                         _______ _______ _______ _____ _____    ______ ____
ROOT
ATOM      1  C   UNL     1       4.187   4.445  18.341  0.00  0.00    +0.000 A 
ATOM      2  N   UNL     1       5.370   4.091  18.818  0.00  0.00    +0.000 NA
ATOM      3  C   UNL     1       6.480   4.683  18.238  0.00  0.00    +0.000 A 
ATOM      4  O   UNL     1       7.513   4.971  18.833  0.00  0.00    +0.000 OA
ATOM      5  C   UNL     1       6.388   4.904  16.784  0.00  0.00    +0.000 A 
ATOM      6  C   UNL     1       7.426   4.509  15.941  0.00  0.00    +0.000 A 
ATOM      7  C   UNL     1       7.106   4.145  14.640  0.00  0.00    +0.000 A 
ATOM      8  C   UNL     1       5.770   4.203  14.217  0.00  0.00    +0.000 A 
ATOM      9  C   UNL     1       4.763   4.729  15.053  0.00  0.00    +0.000 A 
ATOM     10  C   UNL     1       5.078   5.147  16.350  0.00  0.00    +0.000 A 
ATOM     11  N   UNL     1       4.076   5.424  17.350  0.00  0.00    +0.000 N 
ENDROOT
BRANCH   1  17
ATOM     12  C   UNL     1       2.194   4.162  19.971  0.00  0.00    +0.000 A 
ATOM     13  C   UNL     1       0.995   3.487  20.261  0.00  0.00    +0.000 A 
ATOM     14  C   UNL     1       0.607   2.368  19.526  0.00  0.00    +0.000 A 
ATOM     15  C   UNL     1       1.399   1.915  18.483  0.00  0.00    +0.000 A 
ATOM     16  C   UNL     1       2.558   2.608  18.146  0.00  0.00    +0.000 A 
ATOM     17  C   UNL     1       2.962   3.750  18.862  0.00  0.00    +0.000 A 
BRANCH  12  19
ATOM     18  C   UNL     1       1.590   6.266  20.853  0.00  0.00    +0.000 C 
ATOM     19  O   UNL     1       2.581   5.239  20.733  0.00  0.00    +0.000 OA
ENDBRANCH  12  19
ENDBRANCH   1  17
BRANCH  11  20
ATOM     20  C   UNL     1       4.187   6.848  17.882  0.00  0.00    +0.000 C 
ATOM     21  C   UNL     1       5.111   7.676  16.985  0.00  0.00    +0.000 C 
ATOM     22  C   UNL     1       2.850   7.634  17.917  0.00  0.00    +0.000 C 
ENDBRANCH  11  20
TORSDOF 3
ENDMDL
MODEL 9
REMARK VINA RESULT:      -6.7      2.037      3.095
REMARK  Name = 
REMARK  6 active torsions:
REMARK  status: ('A' for Active; 'I' for Inactive)
REMARK    1  A    between atoms: C_1  and  O_2
REMARK    2  A    between atoms: O_2  and  C_3
REMARK    3  A    between atoms: C_8  and  C_9
REMARK    4  A    between atoms: N_19  and  C_20
REMARK    5  A    between atoms: C_20  and  C_21
REMARK    6  A    between atoms: C_20  and  C_22
REMARK                            x       y       z     vdW  Elec       q    Type
REMARK                         _______ _______ _______ _____ _____    ______ ____
ROOT
ATOM      1  C   UNL     1       5.246   4.514  18.730  0.00  0.00    +0.000 A 
ATOM      2  N   UNL     1       5.658   3.711  19.699  0.00  0.00    +0.000 NA
ATOM      3  C   UNL     1       4.794   2.695  20.077  0.00  0.00    +0.000 A 
ATOM      4  O   UNL     1       5.143   1.582  20.454  0.00  0.00    +0.000 OA
ATOM      5  C   UNL     1       3.363   3.049  20.067  0.00  0.00    +0.000 A 
ATOM      6  C   UNL     1       2.556   2.758  21.167  0.00  0.00    +0.000 A 
ATOM      7  C   UNL     1       1.473   3.591  21.417  0.00  0.00    +0.000 A 
ATOM      8  C   UNL     1       1.221   4.670  20.558  0.00  0.00    +0.000 A 
ATOM      9  C   UNL     1       1.979   4.861  19.385  0.00  0.00    +0.000 A 
ATOM     10  C   UNL     1       3.043   4.001  19.091  0.00  0.00    +0.000 A 
ATOM     11  N   UNL     1       4.029   4.291  18.080  0.00  0.00    +0.000 N 
ENDROOT
BRANCH   1  17
ATOM     12  C   UNL     1       5.700   6.769  17.540  0.00  0.00    +0.000 A 
ATOM     13  C   UNL     1       6.559   7.872  17.391  0.00  0.00    +0.000 A 
ATOM     14  C   UNL     1       7.828   7.874  17.968  0.00  0.00    +0.000 A 
ATOM     15  C   UNL     1       8.252   6.785  18.714  0.00  0.00    +0.000 A 
ATOM     16  C   UNL     1       7.389   5.713  18.920  0.00  0.00    +0.000 A 
ATOM     17  C   UNL     1       6.098   5.695  18.362  0.00  0.00    +0.000 A 
BRANCH  12  19
ATOM     18  C   UNL     1       3.509   7.647  17.527  0.00  0.00    +0.000 C 
ATOM     19  O   UNL     1       4.468   6.768  16.928  0.00  0.00    +0.000 OA
ENDBRANCH  12  19
ENDBRANCH   1  17
BRANCH  11  20
ATOM     20  C   UNL     1       4.093   3.195  17.022  0.00  0.00    +0.000 C 
ATOM     21  C   UNL     1       2.680   2.817  16.569  0.00  0.00    +0.000 C 
ATOM     22  C   UNL     1       4.840   3.591  15.721  0.00  0.00    +0.000 C 
ENDBRANCH  11  20
TORSDOF 3
ENDMDL
