MODEL 1
REMARK VINA RESULT:      -7.8      0.000      0.000
REMARK  Name = 
REMARK  8 active torsions:
REMARK  status: ('A' for Active; 'I' for Inactive)
REMARK    1  A    between atoms: C_5  and  C_6
REMARK    2  A    between atoms: C_9  and  C_10
REMARK    3  A    between atoms: C_14  and  O_15
REMARK    4  A    between atoms: O_15  and  C_16
REMARK    5  A    between atoms: C_16  and  C_17
REMARK    6  A    between atoms: C_17  and  O_18
REMARK    7  A    between atoms: C_17  and  C_19
REMARK    8  A    between atoms: C_19  and  O_20
REMARK                            x       y       z     vdW  Elec       q    Type
REMARK                         _______ _______ _______ _____ _____    ______ ____
ROOT
ATOM      1  C   UNL     1       3.031   6.932  18.110  0.00  0.00    +0.000 A 
ATOM      2  C   UNL     1       4.097   7.436  17.354  0.00  0.00    +0.000 A 
ATOM      3  C   UNL     1       4.903   6.588  16.583  0.00  0.00    +0.000 A 
ATOM      4  C   UNL     1       4.695   5.194  16.523  0.00  0.00    +0.000 A 
ATOM      5  C   UNL     1       3.595   4.693  17.257  0.00  0.00    +0.000 A 
ATOM      6  C   UNL     1       2.793   5.555  18.029  0.00  0.00    +0.000 A 
ATOM      7  F   UNL     1       1.741   5.061  18.700  0.00  0.00    +0.000 F 
ENDROOT
BRANCH   1  12
ATOM      8  N   UNL     1      -0.018  10.353  21.304  0.00  0.00    +0.000 N 
ATOM      9  C   UNL     1       0.700   9.476  20.497  0.00  0.00    +0.000 A 
ATOM     10  C   UNL     1       1.292   8.318  20.991  0.00  0.00    +0.000 A 
ATOM     11  N   UNL     1       2.027   7.465  20.233  0.00  0.00    +0.000 NA
ATOM     12  C   UNL     1       2.191   7.819  18.933  0.00  0.00    +0.000 A 
ATOM     13  C   UNL     1       1.580   8.979  18.448  0.00  0.00    +0.000 A 
ATOM     14  N   UNL     1       0.835   9.821  19.210  0.00  0.00    +0.000 NA
ATOM     15  H   UNL     1      -0.769   9.887  21.797  0.00  0.00    +0.000 HD
ATOM     16  H   UNL     1      -0.369  11.090  20.694  0.00  0.00    +0.000 HD
ENDBRANCH   1  12
BRANCH   4  17
ATOM     17  C   UNL     1       5.649   4.256  15.647  0.00  0.00    +0.000 C 
ATOM     18  C   UNL     1       5.349   4.094  14.126  0.00  0.00    +0.000 C 
ATOM     19  C   UNL     1       6.865   4.072  13.874  0.00  0.00    +0.000 C 
ATOM     20  C   UNL     1       7.041   4.803  15.213  0.00  0.00    +0.000 C 
ENDBRANCH   4  17
BRANCH   5  21
ATOM     21  O   UNL     1       3.403   3.338  17.135  0.00  0.00    +0.000 OA
BRANCH  21  22
ATOM     22  C   UNL     1       2.440   2.715  17.980  0.00  0.00    +0.000 C 
BRANCH  22  23
ATOM     23  C   UNL     1       3.141   1.740  18.925  0.00  0.00    +0.000 C 
BRANCH  23  24
ATOM     24  O   UNL     1       3.976   0.856  18.168  0.00  0.00    +0.000 OA
ATOM     25  H   UNL     1       3.971   1.159  17.242  0.00  0.00    +0.000 HD
ENDBRANCH  23  24
BRANCH  23  26
ATOM     26  C   UNL     1       3.961   2.487  19.988  0.00  0.00    +0.000 C 
BRANCH  26  27
ATOM     27  O   UNL     1       5.271   2.792  19.515  0.00  0.00    +0.000 OA
ATOM     28  H   UNL     1       5.304   3.748  19.334  0.00  0.00    +0.000 HD
ENDBRANCH  26  27
ENDBRANCH  23  26
ENDBRANCH  22  23
ENDBRANCH  21  22
ENDBRANCH   5  21
TORSDOF 8
ENDMDL
MODEL 2
REMARK VINA RESULT:      -7.5      1.587      2.362
REMARK  Name = 
REMARK  8 active torsions:
REMARK  status: ('A' for Active; 'I' for Inactive)
REMARK    1  A    between atoms: C_5  and  C_6
REMARK    2  A    between atoms: C_9  and  C_10
REMARK    3  A    between atoms: C_14  and  O_15
REMARK    4  A    between atoms: O_15  and  C_16
REMARK    5  A    between atoms: C_16  and  C_17
REMARK    6  A    between atoms: C_17  and  O_18
REMARK    7  A    between atoms: C_17  and  C_19
REMARK    8  A    between atoms: C_19  and  O_20
REMARK                            x       y       z     vdW  Elec       q    Type
REMARK                         _______ _______ _______ _____ _____    ______ ____
ROOT
ATOM      1  C   UNL     1       2.212   7.638  19.251  0.00  0.00    +0.000 A 
ATOM      2  C   UNL     1       2.970   8.118  18.174  0.00  0.00    +0.000 A 
ATOM      3  C   UNL     1       3.737   7.253  17.385  0.00  0.00    +0.000 A 
ATOM      4  C   UNL     1       3.795   5.863  17.622  0.00  0.00    +0.000 A 
ATOM      5  C   UNL     1       3.001   5.376  18.686  0.00  0.00    +0.000 A 
ATOM      6  C   UNL     1       2.235   6.256  19.473  0.00  0.00    +0.000 A 
ATOM      7  F   UNL     1       1.471   5.769  20.463  0.00  0.00    +0.000 F 
ENDROOT
BRANCH   1  12
ATOM      8  N   UNL     1      -0.942  11.006  22.399  0.00  0.00    +0.000 N 
ATOM      9  C   UNL     1      -0.119  10.200  21.618  0.00  0.00    +0.000 A 
ATOM     10  C   UNL     1      -0.101  10.273  20.229  0.00  0.00    +0.000 A 
ATOM     11  N   UNL     1       0.666   9.474  19.442  0.00  0.00    +0.000 NA
ATOM     12  C   UNL     1       1.417   8.548  20.091  0.00  0.00    +0.000 A 
ATOM     13  C   UNL     1       1.396   8.495  21.488  0.00  0.00    +0.000 A 
ATOM     14  N   UNL     1       0.636   9.306  22.269  0.00  0.00    +0.000 NA
ATOM     15  H   UNL     1      -0.801  11.990  22.209  0.00  0.00    +0.000 HD
ATOM     16  H   UNL     1      -0.736  10.777  23.370  0.00  0.00    +0.000 HD
ENDBRANCH   1  12
BRANCH   4  17
ATOM     17  C   UNL     1       4.699   4.909  16.711  0.00  0.00    +0.000 C 
ATOM     18  C   UNL     1       5.409   5.516  15.463  0.00  0.00    +0.000 C 
ATOM     19  C   UNL     1       6.611   4.605  15.759  0.00  0.00    +0.000 C 
ATOM     20  C   UNL     1       6.123   4.527  17.213  0.00  0.00    +0.000 C 
ENDBRANCH   4  17
BRANCH   5  21
ATOM     21  O   UNL     1       3.055   4.013  18.853  0.00  0.00    +0.000 OA
BRANCH  21  22
ATOM     22  C   UNL     1       3.634   3.505  20.051  0.00  0.00    +0.000 C 
BRANCH  22  23
ATOM     23  C   UNL     1       2.621   2.616  20.773  0.00  0.00    +0.000 C 
BRANCH  23  24
ATOM     24  O   UNL     1       2.317   3.179  22.054  0.00  0.00    +0.000 OA
ATOM     25  H   UNL     1       2.561   2.526  22.734  0.00  0.00    +0.000 HD
ENDBRANCH  23  24
BRANCH  23  26
ATOM     26  C   UNL     1       1.343   2.437  19.939  0.00  0.00    +0.000 C 
BRANCH  26  27
ATOM     27  O   UNL     1       1.559   1.555  18.840  0.00  0.00    +0.000 OA
ATOM     28  H   UNL     1       1.909   0.719  19.197  0.00  0.00    +0.000 HD
ENDBRANCH  26  27
ENDBRANCH  23  26
ENDBRANCH  22  23
ENDBRANCH  21  22
ENDBRANCH   5  21
TORSDOF 8
ENDMDL
MODEL 3
REMARK VINA RESULT:      -7.5      2.105      3.900
REMARK  Name = 
REMARK  8 active torsions:
REMARK  status: ('A' for Active; 'I' for Inactive)
REMARK    1  A    between atoms: C_5  and  C_6
REMARK    2  A    between atoms: C_9  and  C_10
REMARK    3  A    between atoms: C_14  and  O_15
REMARK    4  A    between atoms: O_15  and  C_16
REMARK    5  A    between atoms: C_16  and  C_17
REMARK    6  A    between atoms: C_17  and  O_18
REMARK    7  A    between atoms: C_17  and  C_19
REMARK    8  A    between atoms: C_19  and  O_20
REMARK                            x       y       z     vdW  Elec       q    Type
REMARK                         _______ _______ _______ _____ _____    ______ ____
ROOT
ATOM      1  C   UNL     1       1.959   7.309  19.942  0.00  0.00    +0.000 A 
ATOM      2  C   UNL     1       1.719   6.081  20.572  0.00  0.00    +0.000 A 
ATOM      3  C   UNL     1       2.258   4.891  20.068  0.00  0.00    +0.000 A 
ATOM      4  C   UNL     1       3.063   4.855  18.910  0.00  0.00    +0.000 A 
ATOM      5  C   UNL     1       3.334   6.100  18.297  0.00  0.00    +0.000 A 
ATOM      6  C   UNL     1       2.787   7.290  18.813  0.00  0.00    +0.000 A 
ATOM      7  F   UNL     1       3.076   8.463  18.228  0.00  0.00    +0.000 F 
ENDROOT
BRANCH   1  12
ATOM      8  N   UNL     1      -0.381  11.994  21.887  0.00  0.00    +0.000 N 
ATOM      9  C   UNL     1       0.246  10.851  21.399  0.00  0.00    +0.000 A 
ATOM     10  C   UNL     1       0.273  10.533  20.045  0.00  0.00    +0.000 A 
ATOM     11  N   UNL     1       0.846   9.408  19.546  0.00  0.00    +0.000 NA
ATOM     12  C   UNL     1       1.382   8.560  20.462  0.00  0.00    +0.000 A 
ATOM     13  C   UNL     1       1.357   8.899  21.818  0.00  0.00    +0.000 A 
ATOM     14  N   UNL     1       0.793  10.034  22.308  0.00  0.00    +0.000 NA
ATOM     15  H   UNL     1      -0.032  12.836  21.447  0.00  0.00    +0.000 HD
ATOM     16  H   UNL     1      -0.225  12.003  22.894  0.00  0.00    +0.000 HD
ENDBRANCH   1  12
BRANCH   4  17
ATOM     17  C   UNL     1       3.644   3.473  18.352  0.00  0.00    +0.000 C 
ATOM     18  C   UNL     1       4.098   2.385  19.372  0.00  0.00    +0.000 C 
ATOM     19  C   UNL     1       3.545   1.319  18.413  0.00  0.00    +0.000 C 
ATOM     20  C   UNL     1       2.645   2.408  17.810  0.00  0.00    +0.000 C 
ENDBRANCH   4  17
BRANCH   5  21
ATOM     21  O   UNL     1       4.157   6.023  17.199  0.00  0.00    +0.000 OA
BRANCH  21  22
ATOM     22  C   UNL     1       5.486   6.522  17.317  0.00  0.00    +0.000 C 
BRANCH  22  23
ATOM     23  C   UNL     1       6.470   5.495  16.754  0.00  0.00    +0.000 C 
BRANCH  23  24
ATOM     24  O   UNL     1       7.402   6.151  15.887  0.00  0.00    +0.000 OA
ATOM     25  H   UNL     1       8.200   5.595  15.830  0.00  0.00    +0.000 HD
ENDBRANCH  23  24
BRANCH  23  26
ATOM     26  C   UNL     1       7.203   4.751  17.880  0.00  0.00    +0.000 C 
BRANCH  26  27
ATOM     27  O   UNL     1       6.594   4.994  19.146  0.00  0.00    +0.000 OA
ATOM     28  H   UNL     1       7.066   4.458  19.808  0.00  0.00    +0.000 HD
ENDBRANCH  26  27
ENDBRANCH  23  26
ENDBRANCH  22  23
ENDBRANCH  21  22
ENDBRANCH   5  21
TORSDOF 8
ENDMDL
MODEL 4
REMARK VINA RESULT:      -7.5      2.187      3.801
REMARK  Name = 
REMARK  8 active torsions:
REMARK  status: ('A' for Active; 'I' for Inactive)
REMARK    1  A    between atoms: C_5  and  C_6
REMARK    2  A    between atoms: C_9  and  C_10
REMARK    3  A    between atoms: C_14  and  O_15
REMARK    4  A    between atoms: O_15  and  C_16
REMARK    5  A    between atoms: C_16  and  C_17
REMARK    6  A    between atoms: C_17  and  O_18
REMARK    7  A    between atoms: C_17  and  C_19
REMARK    8  A    between atoms: C_19  and  O_20
REMARK                            x       y       z     vdW  Elec       q    Type
REMARK                         _______ _______ _______ _____ _____    ______ ____
ROOT
ATOM      1  C   UNL     1       1.999   7.281  19.883  0.00  0.00    +0.000 A 
ATOM      2  C   UNL     1       1.817   6.069  20.561  0.00  0.00    +0.000 A 
ATOM      3  C   UNL     1       2.394   4.882  20.092  0.00  0.00    +0.000 A 
ATOM      4  C   UNL     1       3.182   4.835  18.922  0.00  0.00    +0.000 A 
ATOM      5  C   UNL     1       3.394   6.066  18.260  0.00  0.00    +0.000 A 
ATOM      6  C   UNL     1       2.808   7.252  18.741  0.00  0.00    +0.000 A 
ATOM      7  F   UNL     1       3.041   8.413  18.109  0.00  0.00    +0.000 F 
ENDROOT
BRANCH   1  12
ATOM      8  N   UNL     1      -0.196  12.064  21.758  0.00  0.00    +0.000 N 
ATOM      9  C   UNL     1       0.305  10.852  21.290  0.00  0.00    +0.000 A 
ATOM     10  C   UNL     1       0.763   9.853  22.143  0.00  0.00    +0.000 A 
ATOM     11  N   UNL     1       1.288   8.677  21.712  0.00  0.00    +0.000 NA
ATOM     12  C   UNL     1       1.381   8.527  20.366  0.00  0.00    +0.000 A 
ATOM     13  C   UNL     1       0.906   9.536  19.523  0.00  0.00    +0.000 A 
ATOM     14  N   UNL     1       0.369  10.704  19.961  0.00  0.00    +0.000 NA
ATOM     15  H   UNL     1      -0.958  11.933  22.411  0.00  0.00    +0.000 HD
ATOM     16  H   UNL     1      -0.489  12.593  20.938  0.00  0.00    +0.000 HD
ENDBRANCH   1  12
BRANCH   4  17
ATOM     17  C   UNL     1       3.808   3.456  18.406  0.00  0.00    +0.000 C 
ATOM     18  C   UNL     1       4.121   2.339  19.446  0.00  0.00    +0.000 C 
ATOM     19  C   UNL     1       3.674   1.303  18.402  0.00  0.00    +0.000 C 
ATOM     20  C   UNL     1       2.868   2.420  17.722  0.00  0.00    +0.000 C 
ENDBRANCH   4  17
BRANCH   5  21
ATOM     21  O   UNL     1       4.202   5.980  17.151  0.00  0.00    +0.000 OA
BRANCH  21  22
ATOM     22  C   UNL     1       5.496   6.572  17.213  0.00  0.00    +0.000 C 
BRANCH  22  23
ATOM     23  C   UNL     1       6.551   5.539  16.820  0.00  0.00    +0.000 C 
BRANCH  23  24
ATOM     24  O   UNL     1       7.483   6.129  15.907  0.00  0.00    +0.000 OA
ATOM     25  H   UNL     1       7.646   5.490  15.190  0.00  0.00    +0.000 HD
ENDBRANCH  23  24
BRANCH  23  26
ATOM     26  C   UNL     1       7.276   4.985  18.057  0.00  0.00    +0.000 C 
BRANCH  26  27
ATOM     27  O   UNL     1       8.254   4.013  17.694  0.00  0.00    +0.000 OA
ATOM     28  H   UNL     1       9.003   4.105  18.309  0.00  0.00    +0.000 HD
ENDBRANCH  26  27
ENDBRANCH  23  26
ENDBRANCH  22  23
ENDBRANCH  21  22
ENDBRANCH   5  21
TORSDOF 8
ENDMDL
MODEL 5
REMARK VINA RESULT:      -7.5      1.498      2.483
REMARK  Name = 
REMARK  8 active torsions:
REMARK  status: ('A' for Active; 'I' for Inactive)
REMARK    1  A    between atoms: C_5  and  C_6
REMARK    2  A    between atoms: C_9  and  C_10
REMARK    3  A    between atoms: C_14  and  O_15
REMARK    4  A    between atoms: O_15  and  C_16
REMARK    5  A    between atoms: C_16  and  C_17
REMARK    6  A    between atoms: C_17  and  O_18
REMARK    7  A    between atoms: C_17  and  C_19
REMARK    8  A    between atoms: C_19  and  O_20
REMARK                            x       y       z     vdW  Elec       q    Type
REMARK                         _______ _______ _______ _____ _____    ______ ____
ROOT
ATOM      1  C   UNL     1       1.891   8.050  19.664  0.00  0.00    +0.000 A 
ATOM      2  C   UNL     1       2.454   8.515  18.469  0.00  0.00    +0.000 A 
ATOM      3  C   UNL     1       3.216   7.672  17.650  0.00  0.00    +0.000 A 
ATOM      4  C   UNL     1       3.461   6.321  17.975  0.00  0.00    +0.000 A 
ATOM      5  C   UNL     1       2.861   5.844  19.163  0.00  0.00    +0.000 A 
ATOM      6  C   UNL     1       2.098   6.701  19.978  0.00  0.00    +0.000 A 
ATOM      7  F   UNL     1       1.519   6.221  21.090  0.00  0.00    +0.000 F 
ENDROOT
BRANCH   1  12
ATOM      8  N   UNL     1      -1.228  11.318  22.950  0.00  0.00    +0.000 N 
ATOM      9  C   UNL     1      -0.418  10.541  22.127  0.00  0.00    +0.000 A 
ATOM     10  C   UNL     1      -0.584  10.489  20.747  0.00  0.00    +0.000 A 
ATOM     11  N   UNL     1       0.169   9.713  19.926  0.00  0.00    +0.000 NA
ATOM     12  C   UNL     1       1.103   8.938  20.535  0.00  0.00    +0.000 A 
ATOM     13  C   UNL     1       1.265   9.010  21.922  0.00  0.00    +0.000 A 
ATOM     14  N   UNL     1       0.517   9.800  22.735  0.00  0.00    +0.000 NA
ATOM     15  H   UNL     1      -1.234  12.290  22.668  0.00  0.00    +0.000 HD
ATOM     16  H   UNL     1      -0.875  11.203  23.898  0.00  0.00    +0.000 HD
ENDBRANCH   1  12
BRANCH   4  17
ATOM     17  C   UNL     1       4.353   5.394  17.024  0.00  0.00    +0.000 C 
ATOM     18  C   UNL     1       5.107   6.052  15.830  0.00  0.00    +0.000 C 
ATOM     19  C   UNL     1       6.273   5.085  16.091  0.00  0.00    +0.000 C 
ATOM     20  C   UNL     1       5.753   4.936  17.529  0.00  0.00    +0.000 C 
ENDBRANCH   4  17
BRANCH   5  21
ATOM     21  O   UNL     1       3.090   4.513  19.417  0.00  0.00    +0.000 OA
BRANCH  21  22
ATOM     22  C   UNL     1       1.984   3.617  19.361  0.00  0.00    +0.000 C 
BRANCH  22  23
ATOM     23  C   UNL     1       2.356   2.396  18.518  0.00  0.00    +0.000 C 
BRANCH  23  24
ATOM     24  O   UNL     1       2.134   2.685  17.133  0.00  0.00    +0.000 OA
ATOM     25  H   UNL     1       2.491   3.573  16.951  0.00  0.00    +0.000 HD
ENDBRANCH  23  24
BRANCH  23  26
ATOM     26  C   UNL     1       3.814   1.976  18.760  0.00  0.00    +0.000 C 
BRANCH  26  27
ATOM     27  O   UNL     1       4.034   0.619  18.381  0.00  0.00    +0.000 OA
ATOM     28  H   UNL     1       3.203   0.280  18.004  0.00  0.00    +0.000 HD
ENDBRANCH  26  27
ENDBRANCH  23  26
ENDBRANCH  22  23
ENDBRANCH  21  22
ENDBRANCH   5  21
TORSDOF 8
ENDMDL
MODEL 6
REMARK VINA RESULT:      -7.5      4.220      7.638
REMARK  Name = 
REMARK  8 active torsions:
REMARK  status: ('A' for Active; 'I' for Inactive)
REMARK    1  A    between atoms: C_5  and  C_6
REMARK    2  A    between atoms: C_9  and  C_10
REMARK    3  A    between atoms: C_14  and  O_15
REMARK    4  A    between atoms: O_15  and  C_16
REMARK    5  A    between atoms: C_16  and  C_17
REMARK    6  A    between atoms: C_17  and  O_18
REMARK    7  A    between atoms: C_17  and  C_19
REMARK    8  A    between atoms: C_19  and  O_20
REMARK                            x       y       z     vdW  Elec       q    Type
REMARK                         _______ _______ _______ _____ _____    ______ ____
ROOT
ATOM      1  C   UNL     1       2.350   7.210  18.659  0.00  0.00    +0.000 A 
ATOM      2  C   UNL     1       2.382   8.174  17.643  0.00  0.00    +0.000 A 
ATOM      3  C   UNL     1       1.928   9.480  17.869  0.00  0.00    +0.000 A 
ATOM      4  C   UNL     1       1.416   9.899  19.115  0.00  0.00    +0.000 A 
ATOM      5  C   UNL     1       1.420   8.934  20.149  0.00  0.00    +0.000 A 
ATOM      6  C   UNL     1       1.877   7.625  19.910  0.00  0.00    +0.000 A 
ATOM      7  F   UNL     1       1.892   6.732  20.912  0.00  0.00    +0.000 F 
ENDROOT
BRANCH   1  12
ATOM      8  N   UNL     1       4.096   1.956  17.916  0.00  0.00    +0.000 N 
ATOM      9  C   UNL     1       3.676   3.276  18.054  0.00  0.00    +0.000 A 
ATOM     10  C   UNL     1       4.496   4.272  18.573  0.00  0.00    +0.000 A 
ATOM     11  N   UNL     1       4.100   5.558  18.752  0.00  0.00    +0.000 NA
ATOM     12  C   UNL     1       2.812   5.833  18.421  0.00  0.00    +0.000 A 
ATOM     13  C   UNL     1       2.003   4.823  17.890  0.00  0.00    +0.000 A 
ATOM     14  N   UNL     1       2.411   3.542  17.701  0.00  0.00    +0.000 NA
ATOM     15  H   UNL     1       4.944   1.883  17.367  0.00  0.00    +0.000 HD
ATOM     16  H   UNL     1       3.325   1.449  17.486  0.00  0.00    +0.000 HD
ENDBRANCH   1  12
BRANCH   4  17
ATOM     17  C   UNL     1       0.889  11.393  19.329  0.00  0.00    +0.000 C 
ATOM     18  C   UNL     1       1.513  12.538  18.476  0.00  0.00    +0.000 C 
ATOM     19  C   UNL     1       0.121  13.185  18.405  0.00  0.00    +0.000 C 
ATOM     20  C   UNL     1      -0.476  11.801  18.698  0.00  0.00    +0.000 C 
ENDBRANCH   4  17
BRANCH   5  21
ATOM     21  O   UNL     1       0.953   9.397  21.357  0.00  0.00    +0.000 OA
BRANCH  21  22
ATOM     22  C   UNL     1      -0.342   8.982  21.782  0.00  0.00    +0.000 C 
BRANCH  22  23
ATOM     23  C   UNL     1      -0.660   9.609  23.140  0.00  0.00    +0.000 C 
BRANCH  23  24
ATOM     24  O   UNL     1       0.520   9.618  23.951  0.00  0.00    +0.000 OA
ATOM     25  H   UNL     1       1.182   9.045  23.524  0.00  0.00    +0.000 HD
ENDBRANCH  23  24
BRANCH  23  26
ATOM     26  C   UNL     1      -1.222  11.030  22.979  0.00  0.00    +0.000 C 
BRANCH  26  27
ATOM     27  O   UNL     1      -0.234  11.926  22.474  0.00  0.00    +0.000 OA
ATOM     28  H   UNL     1      -0.144  11.757  21.519  0.00  0.00    +0.000 HD
ENDBRANCH  26  27
ENDBRANCH  23  26
ENDBRANCH  22  23
ENDBRANCH  21  22
ENDBRANCH   5  21
TORSDOF 8
ENDMDL
MODEL 7
REMARK VINA RESULT:      -7.5      1.266      1.479
REMARK  Name = 
REMARK  8 active torsions:
REMARK  status: ('A' for Active; 'I' for Inactive)
REMARK    1  A    between atoms: C_5  and  C_6
REMARK    2  A    between atoms: C_9  and  C_10
REMARK    3  A    between atoms: C_14  and  O_15
REMARK    4  A    between atoms: O_15  and  C_16
REMARK    5  A    between atoms: C_16  and  C_17
REMARK    6  A    between atoms: C_17  and  O_18
REMARK    7  A    between atoms: C_17  and  C_19
REMARK    8  A    between atoms: C_19  and  O_20
REMARK                            x       y       z     vdW  Elec       q    Type
REMARK                         _______ _______ _______ _____ _____    ______ ____
ROOT
ATOM      1  C   UNL     1       2.837   7.227  18.427  0.00  0.00    +0.000 A 
ATOM      2  C   UNL     1       3.657   7.721  17.405  0.00  0.00    +0.000 A 
ATOM      3  C   UNL     1       4.503   6.873  16.680  0.00  0.00    +0.000 A 
ATOM      4  C   UNL     1       4.582   5.487  16.932  0.00  0.00    +0.000 A 
ATOM      5  C   UNL     1       3.726   4.984  17.940  0.00  0.00    +0.000 A 
ATOM      6  C   UNL     1       2.881   5.848  18.662  0.00  0.00    +0.000 A 
ATOM      7  F   UNL     1       2.061   5.346  19.599  0.00  0.00    +0.000 F 
ENDROOT
BRANCH   1  12
ATOM      8  N   UNL     1      -0.365  10.676  21.436  0.00  0.00    +0.000 N 
ATOM      9  C   UNL     1       0.392   9.791  20.675  0.00  0.00    +0.000 A 
ATOM     10  C   UNL     1       0.994   8.661  21.219  0.00  0.00    +0.000 A 
ATOM     11  N   UNL     1       1.766   7.801  20.506  0.00  0.00    +0.000 NA
ATOM     12  C   UNL     1       1.958   8.120  19.201  0.00  0.00    +0.000 A 
ATOM     13  C   UNL     1       1.337   9.253  18.666  0.00  0.00    +0.000 A 
ATOM     14  N   UNL     1       0.555  10.101  19.382  0.00  0.00    +0.000 NA
ATOM     15  H   UNL     1      -1.119  10.209  21.924  0.00  0.00    +0.000 HD
ATOM     16  H   UNL     1      -0.714  11.386  20.795  0.00  0.00    +0.000 HD
ENDBRANCH   1  12
BRANCH   4  17
ATOM     17  C   UNL     1       5.575   4.552  16.097  0.00  0.00    +0.000 C 
ATOM     18  C   UNL     1       5.381   4.443  14.554  0.00  0.00    +0.000 C 
ATOM     19  C   UNL     1       6.911   4.391  14.410  0.00  0.00    +0.000 C 
ATOM     20  C   UNL     1       7.006   5.078  15.781  0.00  0.00    +0.000 C 
ENDBRANCH   4  17
BRANCH   5  21
ATOM     21  O   UNL     1       3.804   3.624  18.122  0.00  0.00    +0.000 OA
BRANCH  21  22
ATOM     22  C   UNL     1       2.754   2.814  17.602  0.00  0.00    +0.000 C 
BRANCH  22  23
ATOM     23  C   UNL     1       2.082   2.051  18.745  0.00  0.00    +0.000 C 
BRANCH  23  24
ATOM     24  O   UNL     1       2.807   2.273  19.960  0.00  0.00    +0.000 OA
ATOM     25  H   UNL     1       2.760   1.457  20.490  0.00  0.00    +0.000 HD
ENDBRANCH  23  24
BRANCH  23  26
ATOM     26  C   UNL     1       0.612   2.467  18.903  0.00  0.00    +0.000 C 
BRANCH  26  27
ATOM     27  O   UNL     1       0.347   2.952  20.217  0.00  0.00    +0.000 OA
ATOM     28  H   UNL     1       0.006   2.207  20.743  0.00  0.00    +0.000 HD
ENDBRANCH  26  27
ENDBRANCH  23  26
ENDBRANCH  22  23
ENDBRANCH  21  22
ENDBRANCH   5  21
TORSDOF 8
ENDMDL
MODEL 8
REMARK VINA RESULT:      -7.4      1.594      1.899
REMARK  Name = 
REMARK  8 active torsions:
REMARK  status: ('A' for Active; 'I' for Inactive)
REMARK    1  A    between atoms: C_5  and  C_6
REMARK    2  A    between atoms: C_9  and  C_10
REMARK    3  A    between atoms: C_14  and  O_15
REMARK    4  A    between atoms: O_15  and  C_16
REMARK    5  A    between atoms: C_16  and  C_17
REMARK    6  A    between atoms: C_17  and  O_18
REMARK    7  A    between atoms: C_17  and  C_19
REMARK    8  A    between atoms: C_19  and  O_20
REMARK                            x       y       z     vdW  Elec       q    Type
REMARK                         _______ _______ _______ _____ _____    ______ ____
ROOT
ATOM      1  C   UNL     1       2.605   7.387  18.583  0.00  0.00    +0.000 A 
ATOM      2  C   UNL     1       3.502   7.791  17.586  0.00  0.00    +0.000 A 
ATOM      3  C   UNL     1       4.319   6.864  16.927  0.00  0.00    +0.000 A 
ATOM      4  C   UNL     1       4.290   5.485  17.223  0.00  0.00    +0.000 A 
ATOM      5  C   UNL     1       3.358   5.075  18.204  0.00  0.00    +0.000 A 
ATOM      6  C   UNL     1       2.543   6.016  18.860  0.00  0.00    +0.000 A 
ATOM      7  F   UNL     1       1.649   5.601  19.771  0.00  0.00    +0.000 F 
ENDROOT
BRANCH   1  12
ATOM      8  N   UNL     1      -0.749  11.011  21.195  0.00  0.00    +0.000 N 
ATOM      9  C   UNL     1       0.125  10.139  20.553  0.00  0.00    +0.000 A 
ATOM     10  C   UNL     1       0.370  10.196  19.185  0.00  0.00    +0.000 A 
ATOM     11  N   UNL     1       1.191   9.335  18.530  0.00  0.00    +0.000 NA
ATOM     12  C   UNL     1       1.756   8.362  19.288  0.00  0.00    +0.000 A 
ATOM     13  C   UNL     1       1.509   8.324  20.664  0.00  0.00    +0.000 A 
ATOM     14  N   UNL     1       0.698   9.198  21.315  0.00  0.00    +0.000 NA
ATOM     15  H   UNL     1      -0.506  11.980  21.031  0.00  0.00    +0.000 HD
ATOM     16  H   UNL     1      -0.718  10.777  22.186  0.00  0.00    +0.000 HD
ENDBRANCH   1  12
BRANCH   4  17
ATOM     17  C   UNL     1       5.253   4.458  16.463  0.00  0.00    +0.000 C 
ATOM     18  C   UNL     1       5.327   4.512  14.907  0.00  0.00    +0.000 C 
ATOM     19  C   UNL     1       6.828   4.199  15.011  0.00  0.00    +0.000 C 
ATOM     20  C   UNL     1       6.784   4.743  16.447  0.00  0.00    +0.000 C 
ENDBRANCH   4  17
BRANCH   5  21
ATOM     21  O   UNL     1       3.334   3.719  18.429  0.00  0.00    +0.000 OA
BRANCH  21  22
ATOM     22  C   UNL     1       2.310   2.950  17.804  0.00  0.00    +0.000 C 
BRANCH  22  23
ATOM     23  C   UNL     1       1.165   2.724  18.792  0.00  0.00    +0.000 C 
BRANCH  23  24
ATOM     24  O   UNL     1       0.307   1.688  18.300  0.00  0.00    +0.000 OA
ATOM     25  H   UNL     1      -0.609   1.919  18.539  0.00  0.00    +0.000 HD
ENDBRANCH  23  24
BRANCH  23  26
ATOM     26  C   UNL     1       1.696   2.374  20.190  0.00  0.00    +0.000 C 
BRANCH  26  27
ATOM     27  O   UNL     1       0.831   2.862  21.213  0.00  0.00    +0.000 OA
ATOM     28  H   UNL     1      -0.002   2.361  21.158  0.00  0.00    +0.000 HD
ENDBRANCH  26  27
ENDBRANCH  23  26
ENDBRANCH  22  23
ENDBRANCH  21  22
ENDBRANCH   5  21
TORSDOF 8
ENDMDL
MODEL 9
REMARK VINA RESULT:      -7.4      1.968      2.573
REMARK  Name = 
REMARK  8 active torsions:
REMARK  status: ('A' for Active; 'I' for Inactive)
REMARK    1  A    between atoms: C_5  and  C_6
REMARK    2  A    between atoms: C_9  and  C_10
REMARK    3  A    between atoms: C_14  and  O_15
REMARK    4  A    between atoms: O_15  and  C_16
REMARK    5  A    between atoms: C_16  and  C_17
REMARK    6  A    between atoms: C_17  and  O_18
REMARK    7  A    between atoms: C_17  and  C_19
REMARK    8  A    between atoms: C_19  and  O_20
REMARK                            x       y       z     vdW  Elec       q    Type
REMARK                         _______ _______ _______ _____ _____    ______ ____
ROOT
ATOM      1  C   UNL     1       2.084   8.056  19.007  0.00  0.00    +0.000 A 
ATOM      2  C   UNL     1       2.886   8.209  17.869  0.00  0.00    +0.000 A 
ATOM      3  C   UNL     1       3.777   7.205  17.469  0.00  0.00    +0.000 A 
ATOM      4  C   UNL     1       3.921   5.995  18.180  0.00  0.00    +0.000 A 
ATOM      5  C   UNL     1       3.084   5.827  19.307  0.00  0.00    +0.000 A 
ATOM      6  C   UNL     1       2.193   6.843  19.700  0.00  0.00    +0.000 A 
ATOM      7  F   UNL     1       1.393   6.653  20.760  0.00  0.00    +0.000 F 
ENDROOT
BRANCH   1  12
ATOM      8  N   UNL     1      -1.557  11.976  20.613  0.00  0.00    +0.000 N 
ATOM      9  C   UNL     1      -0.615  11.034  20.210  0.00  0.00    +0.000 A 
ATOM     10  C   UNL     1      -0.424  10.690  18.876  0.00  0.00    +0.000 A 
ATOM     11  N   UNL     1       0.464   9.750  18.460  0.00  0.00    +0.000 NA
ATOM     12  C   UNL     1       1.158   9.115  19.438  0.00  0.00    +0.000 A 
ATOM     13  C   UNL     1       0.963   9.481  20.774  0.00  0.00    +0.000 A 
ATOM     14  N   UNL     1       0.083  10.432  21.182  0.00  0.00    +0.000 NA
ATOM     15  H   UNL     1      -1.428  12.865  20.149  0.00  0.00    +0.000 HD
ATOM     16  H   UNL     1      -1.468  12.062  21.624  0.00  0.00    +0.000 HD
ENDBRANCH   1  12
BRANCH   4  17
ATOM     17  C   UNL     1       4.964   4.879  17.704  0.00  0.00    +0.000 C 
ATOM     18  C   UNL     1       4.613   4.007  16.461  0.00  0.00    +0.000 C 
ATOM     19  C   UNL     1       6.098   4.051  16.066  0.00  0.00    +0.000 C 
ATOM     20  C   UNL     1       6.226   5.328  16.910  0.00  0.00    +0.000 C 
ENDBRANCH   4  17
BRANCH   5  21
ATOM     21  O   UNL     1       3.227   4.616  19.943  0.00  0.00    +0.000 OA
BRANCH  21  22
ATOM     22  C   UNL     1       2.438   3.521  19.490  0.00  0.00    +0.000 C 
BRANCH  22  23
ATOM     23  C   UNL     1       1.164   3.425  20.331  0.00  0.00    +0.000 C 
BRANCH  23  24
ATOM     24  O   UNL     1       0.171   2.683  19.615  0.00  0.00    +0.000 OA
ATOM     25  H   UNL     1      -0.622   3.242  19.535  0.00  0.00    +0.000 HD
ENDBRANCH  23  24
BRANCH  23  26
ATOM     26  C   UNL     1       1.447   2.781  21.697  0.00  0.00    +0.000 C 
BRANCH  26  27
ATOM     27  O   UNL     1       2.840   2.541  21.881  0.00  0.00    +0.000 OA
ATOM     28  H   UNL     1       3.064   1.722  21.403  0.00  0.00    +0.000 HD
ENDBRANCH  26  27
ENDBRANCH  23  26
ENDBRANCH  22  23
ENDBRANCH  21  22
ENDBRANCH   5  21
TORSDOF 8
ENDMDL
