MODEL 1
REMARK VINA RESULT:      -8.5      0.000      0.000
REMARK  Name = 
REMARK  4 active torsions:
REMARK  status: ('A' for Active; 'I' for Inactive)
REMARK    1  A    between atoms: C_2  and  C_3
REMARK    2  A    between atoms: C_3  and  O_4
REMARK    3  A    between atoms: O_4  and  C_5
REMARK    4  A    between atoms: C_12  and  C_13
REMARK                            x       y       z     vdW  Elec       q    Type
REMARK                         _______ _______ _______ _____ _____    ______ ____
ROOT
ATOM      1  C   UNL     1       3.593   3.656  17.609  0.00  0.00    +0.000 A 
ATOM      2  C   UNL     1       3.801   2.311  17.924  0.00  0.00    +0.000 A 
ATOM      3  C   UNL     1       3.387   1.804  19.151  0.00  0.00    +0.000 A 
ATOM      4  C   UNL     1       2.774   2.649  20.064  0.00  0.00    +0.000 A 
ATOM      5  C   UNL     1       2.559   4.002  19.758  0.00  0.00    +0.000 A 
ATOM      6  C   UNL     1       1.979   4.872  20.694  0.00  0.00    +0.000 A 
ATOM      7  C   UNL     1       1.799   6.215  20.383  0.00  0.00    +0.000 A 
ATOM      8  C   UNL     1       2.190   6.651  19.130  0.00  0.00    +0.000 A 
ATOM      9  N   UNL     1       2.741   5.823  18.211  0.00  0.00    +0.000 NA
ATOM     10  C   UNL     1       2.950   4.525  18.511  0.00  0.00    +0.000 A 
ENDROOT
BRANCH   8  11
ATOM     11  C   UNL     1       2.059   8.049  18.734  0.00  0.00    +0.000 A 
ATOM     12  N   UNL     1       2.484   8.582  17.597  0.00  0.00    +0.000 NA
ATOM     13  N   UNL     1       2.137   9.913  17.571  0.00  0.00    +0.000 NA
ATOM     14  C   UNL     1       1.493  10.177  18.686  0.00  0.00    +0.000 A 
ATOM     15  C   UNL     1       0.889  11.363  19.190  0.00  0.00    +0.000 A 
ATOM     16  C   UNL     1       0.312  11.352  20.406  0.00  0.00    +0.000 A 
ATOM     17  C   UNL     1       0.282  10.151  21.222  0.00  0.00    +0.000 A 
ATOM     18  C   UNL     1       0.818   9.024  20.731  0.00  0.00    +0.000 A 
ATOM     19  N   UNL     1       1.430   9.034  19.475  0.00  0.00    +0.000 N 
ENDBRANCH   8  11
BRANCH   1  20
ATOM     20  O   UNL     1       4.021   4.218  16.424  0.00  0.00    +0.000 OA
BRANCH  20  21
ATOM     21  C   UNL     1       5.317   3.837  15.965  0.00  0.00    +0.000 C 
BRANCH  21  23
ATOM     22  F   UNL     1       7.453   4.710  15.640  0.00  0.00    +0.000 F 
ATOM     23  C   UNL     1       6.382   4.797  16.490  0.00  0.00    +0.000 C 
ATOM     24  C   UNL     1       6.856   4.390  17.884  0.00  0.00    +0.000 C 
ATOM     25  C   UNL     1       7.872   5.391  18.418  0.00  0.00    +0.000 C 
ATOM     26  N   UNL     1       7.318   6.744  18.431  0.00  0.00    +0.000 NA
ATOM     27  C   UNL     1       6.937   7.171  17.081  0.00  0.00    +0.000 C 
ATOM     28  C   UNL     1       5.889   6.244  16.481  0.00  0.00    +0.000 C 
ATOM     29  H   UNL     1       8.020   7.389  18.793  0.00  0.00    +0.000 HD
ENDBRANCH  21  23
ENDBRANCH  20  21
ENDBRANCH   1  20
TORSDOF 4
ENDMDL
MODEL 2
REMARK VINA RESULT:      -8.5      2.804      7.200
REMARK  Name = 
REMARK  4 active torsions:
REMARK  status: ('A' for Active; 'I' for Inactive)
REMARK    1  A    between atoms: C_2  and  C_3
REMARK    2  A    between atoms: C_3  and  O_4
REMARK    3  A    between atoms: O_4  and  C_5
REMARK    4  A    between atoms: C_12  and  C_13
REMARK                            x       y       z     vdW  Elec       q    Type
REMARK                         _______ _______ _______ _____ _____    ______ ____
ROOT
ATOM      1  C   UNL     1       2.737   6.392  18.961  0.00  0.00    +0.000 A 
ATOM      2  C   UNL     1       1.734   6.131  19.898  0.00  0.00    +0.000 A 
ATOM      3  C   UNL     1       1.418   4.821  20.243  0.00  0.00    +0.000 A 
ATOM      4  C   UNL     1       2.101   3.775  19.642  0.00  0.00    +0.000 A 
ATOM      5  C   UNL     1       3.111   4.025  18.700  0.00  0.00    +0.000 A 
ATOM      6  C   UNL     1       3.777   2.971  18.054  0.00  0.00    +0.000 A 
ATOM      7  C   UNL     1       4.755   3.239  17.104  0.00  0.00    +0.000 A 
ATOM      8  C   UNL     1       5.057   4.562  16.835  0.00  0.00    +0.000 A 
ATOM      9  N   UNL     1       4.432   5.591  17.456  0.00  0.00    +0.000 NA
ATOM     10  C   UNL     1       3.460   5.345  18.357  0.00  0.00    +0.000 A 
ENDROOT
BRANCH   8  11
ATOM     11  C   UNL     1       6.053   4.928  15.834  0.00  0.00    +0.000 A 
ATOM     12  N   UNL     1       7.101   5.716  16.026  0.00  0.00    +0.000 NA
ATOM     13  N   UNL     1       7.827   5.785  14.860  0.00  0.00    +0.000 NA
ATOM     14  C   UNL     1       7.223   5.028  13.971  0.00  0.00    +0.000 A 
ATOM     15  C   UNL     1       7.528   4.704  12.619  0.00  0.00    +0.000 A 
ATOM     16  C   UNL     1       6.695   3.908  11.921  0.00  0.00    +0.000 A 
ATOM     17  C   UNL     1       5.489   3.361  12.518  0.00  0.00    +0.000 A 
ATOM     18  C   UNL     1       5.223   3.636  13.803  0.00  0.00    +0.000 A 
ATOM     19  N   UNL     1       6.076   4.472  14.527  0.00  0.00    +0.000 N 
ENDBRANCH   8  11
BRANCH   1  20
ATOM     20  O   UNL     1       3.060   7.669  18.553  0.00  0.00    +0.000 OA
BRANCH  20  21
ATOM     21  C   UNL     1       2.130   8.322  17.691  0.00  0.00    +0.000 C 
BRANCH  21  23
ATOM     22  F   UNL     1       1.585   9.303  19.734  0.00  0.00    +0.000 F 
ATOM     23  C   UNL     1       1.503   9.530  18.385  0.00  0.00    +0.000 C 
ATOM     24  C   UNL     1       0.026   9.673  18.023  0.00  0.00    +0.000 C 
ATOM     25  C   UNL     1      -0.568  10.915  18.674  0.00  0.00    +0.000 C 
ATOM     26  N   UNL     1       0.180  12.113  18.294  0.00  0.00    +0.000 NA
ATOM     27  C   UNL     1       1.581  12.016  18.714  0.00  0.00    +0.000 C 
ATOM     28  C   UNL     1       2.268  10.816  18.075  0.00  0.00    +0.000 C 
ATOM     29  H   UNL     1      -0.241  12.926  18.744  0.00  0.00    +0.000 HD
ENDBRANCH  21  23
ENDBRANCH  20  21
ENDBRANCH   1  20
TORSDOF 4
ENDMDL
MODEL 3
REMARK VINA RESULT:      -8.4      2.432      6.048
REMARK  Name = 
REMARK  4 active torsions:
REMARK  status: ('A' for Active; 'I' for Inactive)
REMARK    1  A    between atoms: C_2  and  C_3
REMARK    2  A    between atoms: C_3  and  O_4
REMARK    3  A    between atoms: O_4  and  C_5
REMARK    4  A    between atoms: C_12  and  C_13
REMARK                            x       y       z     vdW  Elec       q    Type
REMARK                         _______ _______ _______ _____ _____    ______ ____
ROOT
ATOM      1  C   UNL     1       1.504   6.795  20.657  0.00  0.00    +0.000 A 
ATOM      2  C   UNL     1       0.560   7.426  21.471  0.00  0.00    +0.000 A 
ATOM      3  C   UNL     1       0.129   8.716  21.177  0.00  0.00    +0.000 A 
ATOM      4  C   UNL     1       0.652   9.373  20.074  0.00  0.00    +0.000 A 
ATOM      5  C   UNL     1       1.600   8.748  19.249  0.00  0.00    +0.000 A 
ATOM      6  C   UNL     1       2.166   9.424  18.156  0.00  0.00    +0.000 A 
ATOM      7  C   UNL     1       3.124   8.798  17.367  0.00  0.00    +0.000 A 
ATOM      8  C   UNL     1       3.479   7.499  17.681  0.00  0.00    +0.000 A 
ATOM      9  N   UNL     1       2.936   6.829  18.725  0.00  0.00    +0.000 NA
ATOM     10  C   UNL     1       2.028   7.435  19.518  0.00  0.00    +0.000 A 
ENDROOT
BRANCH   8  11
ATOM     11  C   UNL     1       4.495   6.780  16.919  0.00  0.00    +0.000 A 
ATOM     12  N   UNL     1       4.604   6.750  15.598  0.00  0.00    +0.000 NA
ATOM     13  N   UNL     1       5.711   6.006  15.260  0.00  0.00    +0.000 NA
ATOM     14  C   UNL     1       6.273   5.600  16.376  0.00  0.00    +0.000 A 
ATOM     15  C   UNL     1       7.439   4.828  16.640  0.00  0.00    +0.000 A 
ATOM     16  C   UNL     1       7.768   4.531  17.912  0.00  0.00    +0.000 A 
ATOM     17  C   UNL     1       6.962   4.987  19.031  0.00  0.00    +0.000 A 
ATOM     18  C   UNL     1       5.885   5.746  18.784  0.00  0.00    +0.000 A 
ATOM     19  N   UNL     1       5.532   6.045  17.466  0.00  0.00    +0.000 N 
ENDBRANCH   8  11
BRANCH   1  20
ATOM     20  O   UNL     1       1.995   5.534  20.927  0.00  0.00    +0.000 OA
BRANCH  20  21
ATOM     21  C   UNL     1       1.150   4.432  20.600  0.00  0.00    +0.000 C 
BRANCH  21  23
ATOM     22  F   UNL     1       1.395   2.146  20.218  0.00  0.00    +0.000 F 
ATOM     23  C   UNL     1       1.930   3.354  19.852  0.00  0.00    +0.000 C 
ATOM     24  C   UNL     1       3.404   3.354  20.257  0.00  0.00    +0.000 C 
ATOM     25  C   UNL     1       4.179   2.314  19.459  0.00  0.00    +0.000 C 
ATOM     26  N   UNL     1       4.034   2.542  18.022  0.00  0.00    +0.000 NA
ATOM     27  C   UNL     1       2.628   2.460  17.614  0.00  0.00    +0.000 C 
ATOM     28  C   UNL     1       1.780   3.497  18.338  0.00  0.00    +0.000 C 
ATOM     29  H   UNL     1       4.564   1.831  17.517  0.00  0.00    +0.000 HD
ENDBRANCH  21  23
ENDBRANCH  20  21
ENDBRANCH   1  20
TORSDOF 4
ENDMDL
MODEL 4
REMARK VINA RESULT:      -8.4      2.626      7.015
REMARK  Name = 
REMARK  4 active torsions:
REMARK  status: ('A' for Active; 'I' for Inactive)
REMARK    1  A    between atoms: C_2  and  C_3
REMARK    2  A    between atoms: C_3  and  O_4
REMARK    3  A    between atoms: O_4  and  C_5
REMARK    4  A    between atoms: C_12  and  C_13
REMARK                            x       y       z     vdW  Elec       q    Type
REMARK                         _______ _______ _______ _____ _____    ______ ____
ROOT
ATOM      1  C   UNL     1       2.431   5.874  19.363  0.00  0.00    +0.000 A 
ATOM      2  C   UNL     1       1.379   5.509  20.207  0.00  0.00    +0.000 A 
ATOM      3  C   UNL     1       1.000   4.175  20.322  0.00  0.00    +0.000 A 
ATOM      4  C   UNL     1       1.671   3.212  19.584  0.00  0.00    +0.000 A 
ATOM      5  C   UNL     1       2.729   3.567  18.733  0.00  0.00    +0.000 A 
ATOM      6  C   UNL     1       3.382   2.602  17.950  0.00  0.00    +0.000 A 
ATOM      7  C   UNL     1       4.410   2.978  17.092  0.00  0.00    +0.000 A 
ATOM      8  C   UNL     1       4.772   4.312  17.054  0.00  0.00    +0.000 A 
ATOM      9  N   UNL     1       4.159   5.253  17.810  0.00  0.00    +0.000 NA
ATOM     10  C   UNL     1       3.140   4.908  18.623  0.00  0.00    +0.000 A 
ENDROOT
BRANCH   8  11
ATOM     11  C   UNL     1       5.823   4.792  16.163  0.00  0.00    +0.000 A 
ATOM     12  N   UNL     1       6.820   5.599  16.495  0.00  0.00    +0.000 NA
ATOM     13  N   UNL     1       7.627   5.785  15.397  0.00  0.00    +0.000 NA
ATOM     14  C   UNL     1       7.124   5.079  14.409  0.00  0.00    +0.000 A 
ATOM     15  C   UNL     1       7.541   4.874  13.064  0.00  0.00    +0.000 A 
ATOM     16  C   UNL     1       6.797   4.105  12.246  0.00  0.00    +0.000 A 
ATOM     17  C   UNL     1       5.574   3.470  12.705  0.00  0.00    +0.000 A 
ATOM     18  C   UNL     1       5.202   3.634  13.983  0.00  0.00    +0.000 A 
ATOM     19  N   UNL     1       5.963   4.441  14.832  0.00  0.00    +0.000 N 
ENDBRANCH   8  11
BRANCH   1  20
ATOM     20  O   UNL     1       2.818   7.185  19.180  0.00  0.00    +0.000 OA
BRANCH  20  21
ATOM     21  C   UNL     1       2.196   7.895  18.111  0.00  0.00    +0.000 C 
BRANCH  21  23
ATOM     22  F   UNL     1       2.353  10.211  18.323  0.00  0.00    +0.000 F 
ATOM     23  C   UNL     1       1.520   9.165  18.624  0.00  0.00    +0.000 C 
ATOM     24  C   UNL     1       1.347   9.127  20.142  0.00  0.00    +0.000 C 
ATOM     25  C   UNL     1       0.618  10.371  20.630  0.00  0.00    +0.000 C 
ATOM     26  N   UNL     1      -0.675  10.517  19.961  0.00  0.00    +0.000 NA
ATOM     27  C   UNL     1      -0.508  10.638  18.510  0.00  0.00    +0.000 C 
ATOM     28  C   UNL     1       0.182   9.411  17.928  0.00  0.00    +0.000 C 
ATOM     29  H   UNL     1      -1.137  11.357  20.309  0.00  0.00    +0.000 HD
ENDBRANCH  21  23
ENDBRANCH  20  21
ENDBRANCH   1  20
TORSDOF 4
ENDMDL
MODEL 5
REMARK VINA RESULT:      -8.3      2.698      7.000
REMARK  Name = 
REMARK  4 active torsions:
REMARK  status: ('A' for Active; 'I' for Inactive)
REMARK    1  A    between atoms: C_2  and  C_3
REMARK    2  A    between atoms: C_3  and  O_4
REMARK    3  A    between atoms: O_4  and  C_5
REMARK    4  A    between atoms: C_12  and  C_13
REMARK                            x       y       z     vdW  Elec       q    Type
REMARK                         _______ _______ _______ _____ _____    ______ ____
ROOT
ATOM      1  C   UNL     1       2.474   6.051  19.299  0.00  0.00    +0.000 A 
ATOM      2  C   UNL     1       1.436   5.695  20.164  0.00  0.00    +0.000 A 
ATOM      3  C   UNL     1       1.085   4.359  20.328  0.00  0.00    +0.000 A 
ATOM      4  C   UNL     1       1.768   3.384  19.618  0.00  0.00    +0.000 A 
ATOM      5  C   UNL     1       2.812   3.729  18.746  0.00  0.00    +0.000 A 
ATOM      6  C   UNL     1       3.478   2.752  17.991  0.00  0.00    +0.000 A 
ATOM      7  C   UNL     1       4.492   3.117  17.112  0.00  0.00    +0.000 A 
ATOM      8  C   UNL     1       4.827   4.455  17.025  0.00  0.00    +0.000 A 
ATOM      9  N   UNL     1       4.202   5.410  17.754  0.00  0.00    +0.000 NA
ATOM     10  C   UNL     1       3.196   5.074  18.587  0.00  0.00    +0.000 A 
ENDROOT
BRANCH   8  11
ATOM     11  C   UNL     1       5.861   4.925  16.109  0.00  0.00    +0.000 A 
ATOM     12  N   UNL     1       6.838   5.771  16.402  0.00  0.00    +0.000 NA
ATOM     13  N   UNL     1       7.636   5.932  15.292  0.00  0.00    +0.000 NA
ATOM     14  C   UNL     1       7.147   5.172  14.338  0.00  0.00    +0.000 A 
ATOM     15  C   UNL     1       7.564   4.920  13.001  0.00  0.00    +0.000 A 
ATOM     16  C   UNL     1       6.837   4.098  12.220  0.00  0.00    +0.000 A 
ATOM     17  C   UNL     1       5.633   3.452  12.711  0.00  0.00    +0.000 A 
ATOM     18  C   UNL     1       5.262   3.659  13.983  0.00  0.00    +0.000 A 
ATOM     19  N   UNL     1       6.005   4.521  14.793  0.00  0.00    +0.000 N 
ENDBRANCH   8  11
BRANCH   1  20
ATOM     20  O   UNL     1       2.834   7.362  19.068  0.00  0.00    +0.000 OA
BRANCH  20  21
ATOM     21  C   UNL     1       2.203   8.017  17.969  0.00  0.00    +0.000 C 
BRANCH  21  23
ATOM     22  F   UNL     1       0.266   9.293  17.739  0.00  0.00    +0.000 F 
ATOM     23  C   UNL     1       1.443   9.256  18.440  0.00  0.00    +0.000 C 
ATOM     24  C   UNL     1       2.217  10.535  18.124  0.00  0.00    +0.000 C 
ATOM     25  C   UNL     1       1.476  11.755  18.654  0.00  0.00    +0.000 C 
ATOM     26  N   UNL     1       1.231  11.636  20.090  0.00  0.00    +0.000 NA
ATOM     27  C   UNL     1       0.418  10.454  20.391  0.00  0.00    +0.000 C 
ATOM     28  C   UNL     1       1.105   9.176  19.928  0.00  0.00    +0.000 C 
ATOM     29  H   UNL     1       0.735  12.466  20.414  0.00  0.00    +0.000 HD
ENDBRANCH  21  23
ENDBRANCH  20  21
ENDBRANCH   1  20
TORSDOF 4
ENDMDL
MODEL 6
REMARK VINA RESULT:      -8.3      2.193      4.504
REMARK  Name = 
REMARK  4 active torsions:
REMARK  status: ('A' for Active; 'I' for Inactive)
REMARK    1  A    between atoms: C_2  and  C_3
REMARK    2  A    between atoms: C_3  and  O_4
REMARK    3  A    between atoms: O_4  and  C_5
REMARK    4  A    between atoms: C_12  and  C_13
REMARK                            x       y       z     vdW  Elec       q    Type
REMARK                         _______ _______ _______ _____ _____    ______ ____
ROOT
ATOM      1  C   UNL     1       5.063   3.730  16.933  0.00  0.00    +0.000 A 
ATOM      2  C   UNL     1       5.866   3.265  15.889  0.00  0.00    +0.000 A 
ATOM      3  C   UNL     1       6.281   4.131  14.882  0.00  0.00    +0.000 A 
ATOM      4  C   UNL     1       5.883   5.458  14.920  0.00  0.00    +0.000 A 
ATOM      5  C   UNL     1       5.076   5.937  15.964  0.00  0.00    +0.000 A 
ATOM      6  C   UNL     1       4.633   7.268  15.985  0.00  0.00    +0.000 A 
ATOM      7  C   UNL     1       3.812   7.716  17.013  0.00  0.00    +0.000 A 
ATOM      8  C   UNL     1       3.468   6.821  18.009  0.00  0.00    +0.000 A 
ATOM      9  N   UNL     1       3.896   5.536  18.011  0.00  0.00    +0.000 NA
ATOM     10  C   UNL     1       4.667   5.080  17.003  0.00  0.00    +0.000 A 
ENDROOT
BRANCH   8  11
ATOM     11  C   UNL     1       2.590   7.204  19.110  0.00  0.00    +0.000 A 
ATOM     12  N   UNL     1       2.407   6.527  20.235  0.00  0.00    +0.000 NA
ATOM     13  N   UNL     1       1.543   7.230  21.042  0.00  0.00    +0.000 NA
ATOM     14  C   UNL     1       1.218   8.335  20.409  0.00  0.00    +0.000 A 
ATOM     15  C   UNL     1       0.388   9.436  20.761  0.00  0.00    +0.000 A 
ATOM     16  C   UNL     1       0.207  10.441  19.883  0.00  0.00    +0.000 A 
ATOM     17  C   UNL     1       0.846  10.435  18.579  0.00  0.00    +0.000 A 
ATOM     18  C   UNL     1       1.658   9.416  18.263  0.00  0.00    +0.000 A 
ATOM     19  N   UNL     1       1.839   8.365  19.164  0.00  0.00    +0.000 N 
ENDBRANCH   8  11
BRANCH   1  20
ATOM     20  O   UNL     1       4.589   2.905  17.932  0.00  0.00    +0.000 OA
BRANCH  20  21
ATOM     21  C   UNL     1       3.318   2.296  17.712  0.00  0.00    +0.000 C 
BRANCH  21  23
ATOM     22  F   UNL     1       1.831   1.178  19.117  0.00  0.00    +0.000 F 
ATOM     23  C   UNL     1       2.447   2.393  18.963  0.00  0.00    +0.000 C 
ATOM     24  C   UNL     1       1.358   3.452  18.801  0.00  0.00    +0.000 C 
ATOM     25  C   UNL     1       0.538   3.579  20.078  0.00  0.00    +0.000 C 
ATOM     26  N   UNL     1       1.396   3.884  21.223  0.00  0.00    +0.000 NA
ATOM     27  C   UNL     1       2.390   2.828  21.433  0.00  0.00    +0.000 C 
ATOM     28  C   UNL     1       3.286   2.658  20.213  0.00  0.00    +0.000 C 
ATOM     29  H   UNL     1       0.819   3.962  22.060  0.00  0.00    +0.000 HD
ENDBRANCH  21  23
ENDBRANCH  20  21
ENDBRANCH   1  20
TORSDOF 4
ENDMDL
MODEL 7
REMARK VINA RESULT:      -8.1      2.729      7.038
REMARK  Name = 
REMARK  4 active torsions:
REMARK  status: ('A' for Active; 'I' for Inactive)
REMARK    1  A    between atoms: C_2  and  C_3
REMARK    2  A    between atoms: C_3  and  O_4
REMARK    3  A    between atoms: O_4  and  C_5
REMARK    4  A    between atoms: C_12  and  C_13
REMARK                            x       y       z     vdW  Elec       q    Type
REMARK                         _______ _______ _______ _____ _____    ______ ____
ROOT
ATOM      1  C   UNL     1       2.041   5.170  19.739  0.00  0.00    +0.000 A 
ATOM      2  C   UNL     1       0.976   4.627  20.462  0.00  0.00    +0.000 A 
ATOM      3  C   UNL     1       0.666   3.276  20.349  0.00  0.00    +0.000 A 
ATOM      4  C   UNL     1       1.419   2.473  19.506  0.00  0.00    +0.000 A 
ATOM      5  C   UNL     1       2.492   3.008  18.776  0.00  0.00    +0.000 A 
ATOM      6  C   UNL     1       3.231   2.211  17.887  0.00  0.00    +0.000 A 
ATOM      7  C   UNL     1       4.273   2.765  17.152  0.00  0.00    +0.000 A 
ATOM      8  C   UNL     1       4.563   4.103  17.340  0.00  0.00    +0.000 A 
ATOM      9  N   UNL     1       3.867   4.884  18.201  0.00  0.00    +0.000 NA
ATOM     10  C   UNL     1       2.834   4.368  18.897  0.00  0.00    +0.000 A 
ENDROOT
BRANCH   8  11
ATOM     11  C   UNL     1       5.623   4.767  16.589  0.00  0.00    +0.000 A 
ATOM     12  N   UNL     1       6.469   5.670  17.065  0.00  0.00    +0.000 NA
ATOM     13  N   UNL     1       7.348   6.025  16.068  0.00  0.00    +0.000 NA
ATOM     14  C   UNL     1       7.040   5.326  14.999  0.00  0.00    +0.000 A 
ATOM     15  C   UNL     1       7.610   5.260  13.696  0.00  0.00    +0.000 A 
ATOM     16  C   UNL     1       7.056   4.458  12.767  0.00  0.00    +0.000 A 
ATOM     17  C   UNL     1       5.888   3.647  13.062  0.00  0.00    +0.000 A 
ATOM     18  C   UNL     1       5.375   3.681  14.301  0.00  0.00    +0.000 A 
ATOM     19  N   UNL     1       5.937   4.522  15.264  0.00  0.00    +0.000 N 
ENDBRANCH   8  11
BRANCH   1  20
ATOM     20  O   UNL     1       2.364   6.510  19.783  0.00  0.00    +0.000 OA
BRANCH  20  21
ATOM     21  C   UNL     1       2.142   7.184  21.021  0.00  0.00    +0.000 C 
BRANCH  21  23
ATOM     22  F   UNL     1      -0.113   7.771  20.963  0.00  0.00    +0.000 F 
ATOM     23  C   UNL     1       1.138   8.321  20.847  0.00  0.00    +0.000 C 
ATOM     24  C   UNL     1       1.245   8.949  19.458  0.00  0.00    +0.000 C 
ATOM     25  C   UNL     1       0.280  10.119  19.323  0.00  0.00    +0.000 C 
ATOM     26  N   UNL     1       0.516  11.116  20.366  0.00  0.00    +0.000 NA
ATOM     27  C   UNL     1       0.332  10.538  21.701  0.00  0.00    +0.000 C 
ATOM     28  C   UNL     1       1.291   9.379  21.939  0.00  0.00    +0.000 C 
ATOM     29  H   UNL     1      -0.144  11.885  20.248  0.00  0.00    +0.000 HD
ENDBRANCH  21  23
ENDBRANCH  20  21
ENDBRANCH   1  20
TORSDOF 4
ENDMDL
MODEL 8
REMARK VINA RESULT:      -8.0      2.614      6.898
REMARK  Name = 
REMARK  4 active torsions:
REMARK  status: ('A' for Active; 'I' for Inactive)
REMARK    1  A    between atoms: C_2  and  C_3
REMARK    2  A    between atoms: C_3  and  O_4
REMARK    3  A    between atoms: O_4  and  C_5
REMARK    4  A    between atoms: C_12  and  C_13
REMARK                            x       y       z     vdW  Elec       q    Type
REMARK                         _______ _______ _______ _____ _____    ______ ____
ROOT
ATOM      1  C   UNL     1       2.088   5.168  19.766  0.00  0.00    +0.000 A 
ATOM      2  C   UNL     1       1.032   4.627  20.504  0.00  0.00    +0.000 A 
ATOM      3  C   UNL     1       0.740   3.269  20.423  0.00  0.00    +0.000 A 
ATOM      4  C   UNL     1       1.502   2.458  19.597  0.00  0.00    +0.000 A 
ATOM      5  C   UNL     1       2.566   2.990  18.850  0.00  0.00    +0.000 A 
ATOM      6  C   UNL     1       3.312   2.183  17.978  0.00  0.00    +0.000 A 
ATOM      7  C   UNL     1       4.344   2.734  17.226  0.00  0.00    +0.000 A 
ATOM      8  C   UNL     1       4.616   4.081  17.382  0.00  0.00    +0.000 A 
ATOM      9  N   UNL     1       3.913   4.871  18.227  0.00  0.00    +0.000 NA
ATOM     10  C   UNL     1       2.889   4.357  18.939  0.00  0.00    +0.000 A 
ENDROOT
BRANCH   8  11
ATOM     11  C   UNL     1       5.665   4.741  16.613  0.00  0.00    +0.000 A 
ATOM     12  N   UNL     1       6.525   5.638  17.075  0.00  0.00    +0.000 NA
ATOM     13  N   UNL     1       7.386   5.992  16.062  0.00  0.00    +0.000 NA
ATOM     14  C   UNL     1       7.052   5.299  14.996  0.00  0.00    +0.000 A 
ATOM     15  C   UNL     1       7.595   5.235  13.682  0.00  0.00    +0.000 A 
ATOM     16  C   UNL     1       7.017   4.440  12.761  0.00  0.00    +0.000 A 
ATOM     17  C   UNL     1       5.851   3.635  13.077  0.00  0.00    +0.000 A 
ATOM     18  C   UNL     1       5.364   3.666  14.326  0.00  0.00    +0.000 A 
ATOM     19  N   UNL     1       5.951   4.500  15.281  0.00  0.00    +0.000 N 
ENDBRANCH   8  11
BRANCH   1  20
ATOM     20  O   UNL     1       2.392   6.513  19.777  0.00  0.00    +0.000 OA
BRANCH  20  21
ATOM     21  C   UNL     1       1.679   7.324  20.709  0.00  0.00    +0.000 C 
BRANCH  21  23
ATOM     22  F   UNL     1       2.005   9.628  20.856  0.00  0.00    +0.000 F 
ATOM     23  C   UNL     1       1.352   8.687  20.102  0.00  0.00    +0.000 C 
ATOM     24  C   UNL     1      -0.145   8.983  20.178  0.00  0.00    +0.000 C 
ATOM     25  C   UNL     1      -0.462  10.316  19.515  0.00  0.00    +0.000 C 
ATOM     26  N   UNL     1       0.003  10.336  18.129  0.00  0.00    +0.000 NA
ATOM     27  C   UNL     1       1.453  10.135  18.056  0.00  0.00    +0.000 C 
ATOM     28  C   UNL     1       1.859   8.799  18.665  0.00  0.00    +0.000 C 
ATOM     29  H   UNL     1      -0.224  11.239  17.713  0.00  0.00    +0.000 HD
ENDBRANCH  21  23
ENDBRANCH  20  21
ENDBRANCH   1  20
TORSDOF 4
ENDMDL
MODEL 9
REMARK VINA RESULT:      -8.0      6.945      9.427
REMARK  Name = 
REMARK  4 active torsions:
REMARK  status: ('A' for Active; 'I' for Inactive)
REMARK    1  A    between atoms: C_2  and  C_3
REMARK    2  A    between atoms: C_3  and  O_4
REMARK    3  A    between atoms: O_4  and  C_5
REMARK    4  A    between atoms: C_12  and  C_13
REMARK                            x       y       z     vdW  Elec       q    Type
REMARK                         _______ _______ _______ _____ _____    ______ ____
ROOT
ATOM      1  C   UNL     1      -2.425  10.280  17.727  0.00  0.00    +0.000 A 
ATOM      2  C   UNL     1      -2.065   9.879  16.438  0.00  0.00    +0.000 A 
ATOM      3  C   UNL     1      -2.835  10.259  15.343  0.00  0.00    +0.000 A 
ATOM      4  C   UNL     1      -3.967  11.033  15.543  0.00  0.00    +0.000 A 
ATOM      5  C   UNL     1      -4.338  11.442  16.833  0.00  0.00    +0.000 A 
ATOM      6  C   UNL     1      -5.508  12.188  17.048  0.00  0.00    +0.000 A 
ATOM      7  C   UNL     1      -5.873  12.561  18.336  0.00  0.00    +0.000 A 
ATOM      8  C   UNL     1      -5.046  12.192  19.380  0.00  0.00    +0.000 A 
ATOM      9  N   UNL     1      -3.908  11.481  19.190  0.00  0.00    +0.000 NA
ATOM     10  C   UNL     1      -3.558  11.087  17.949  0.00  0.00    +0.000 A 
ENDROOT
BRANCH   8  11
ATOM     11  C   UNL     1      -5.370  12.521  20.764  0.00  0.00    +0.000 A 
ATOM     12  N   UNL     1      -6.293  11.933  21.512  0.00  0.00    +0.000 NA
ATOM     13  N   UNL     1      -6.268  12.490  22.769  0.00  0.00    +0.000 NA
ATOM     14  C   UNL     1      -5.322  13.402  22.782  0.00  0.00    +0.000 A 
ATOM     15  C   UNL     1      -4.836  14.268  23.801  0.00  0.00    +0.000 A 
ATOM     16  C   UNL     1      -3.854  15.145  23.517  0.00  0.00    +0.000 A 
ATOM     17  C   UNL     1      -3.268  15.226  22.191  0.00  0.00    +0.000 A 
ATOM     18  C   UNL     1      -3.701  14.383  21.242  0.00  0.00    +0.000 A 
ATOM     19  N   UNL     1      -4.728  13.481  21.527  0.00  0.00    +0.000 N 
ENDBRANCH   8  11
BRANCH   1  20
ATOM     20  O   UNL     1      -1.722   9.897  18.850  0.00  0.00    +0.000 OA
BRANCH  20  21
ATOM     21  C   UNL     1      -0.424  10.464  19.019  0.00  0.00    +0.000 C 
BRANCH  21  23
ATOM     22  F   UNL     1       1.142  11.221  20.570  0.00  0.00    +0.000 F 
ATOM     23  C   UNL     1      -0.117  10.683  20.498  0.00  0.00    +0.000 C 
ATOM     24  C   UNL     1      -0.106   9.361  21.265  0.00  0.00    +0.000 C 
ATOM     25  C   UNL     1       0.141   9.603  22.748  0.00  0.00    +0.000 C 
ATOM     26  N   UNL     1      -0.855  10.519  23.302  0.00  0.00    +0.000 NA
ATOM     27  C   UNL     1      -0.813  11.818  22.625  0.00  0.00    +0.000 C 
ATOM     28  C   UNL     1      -1.090  11.675  21.134  0.00  0.00    +0.000 C 
ATOM     29  H   UNL     1      -0.663  10.659  24.294  0.00  0.00    +0.000 HD
ENDBRANCH  21  23
ENDBRANCH  20  21
ENDBRANCH   1  20
TORSDOF 4
ENDMDL
