MODEL 1
REMARK VINA RESULT:      -5.0      0.000      0.000
REMARK  Name = 
REMARK  9 active torsions:
REMARK  status: ('A' for Active; 'I' for Inactive)
REMARK    1  A    between atoms: C_1  and  C_2
REMARK    2  A    between atoms: C_2  and  C_3
REMARK    3  A    between atoms: C_3  and  C_4
REMARK    4  A    between atoms: C_4  and  O_5
REMARK    5  A    between atoms: O_5  and  P_6
REMARK    6  A    between atoms: P_6  and  O_8
REMARK    7  A    between atoms: P_6  and  C_9
REMARK    8  A    between atoms: C_9  and  O_11
REMARK    9  A    between atoms: O_11  and  C_12
REMARK                            x       y       z     vdW  Elec       q    Type
REMARK                         _______ _______ _______ _____ _____    ______ ____
ROOT
ATOM      1  P   UNL     1       5.537   4.619  17.666  0.00  0.00    +0.000 P 
ATOM      2  O   UNL     1       4.733   5.868  17.914  0.00  0.00    +0.000 OA
ENDROOT
BRANCH   1   3
ATOM      3  O   UNL     1       5.831   3.936  19.108  0.00  0.00    +0.000 OA
ATOM      4  H   UNL     1       5.723   2.968  19.040  0.00  0.00    +0.000 HD
ENDBRANCH   1   3
BRANCH   1   5
ATOM      5  C   UNL     1       7.167   4.819  16.831  0.00  0.00    +0.000 C 
ATOM      6  O   UNL     1       8.123   4.193  17.282  0.00  0.00    +0.000 OA
BRANCH   5   7
ATOM      7  O   UNL     1       7.240   5.558  15.671  0.00  0.00    +0.000 OA
ATOM      8  C   UNL     1       6.837   4.839  14.495  0.00  0.00    +0.000 C 
ENDBRANCH   5   7
ENDBRANCH   1   5
BRANCH   1   9
ATOM      9  O   UNL     1       4.613   3.445  17.030  0.00  0.00    +0.000 OA
BRANCH   9  10
ATOM     10  C   UNL     1       3.612   2.829  17.832  0.00  0.00    +0.000 C 
BRANCH  10  11
ATOM     11  C   UNL     1       2.220   3.426  17.556  0.00  0.00    +0.000 C 
BRANCH  11  13
ATOM     12  C   UNL     1       0.863   3.026  19.703  0.00  0.00    +0.000 C 
ATOM     13  C   UNL     1       1.624   4.023  18.839  0.00  0.00    +0.000 C 
ENDBRANCH  11  13
ENDBRANCH  10  11
ENDBRANCH   9  10
ENDBRANCH   1   9
TORSDOF 7
ENDMDL
MODEL 2
REMARK VINA RESULT:      -5.0      1.631      2.200
REMARK  Name = 
REMARK  9 active torsions:
REMARK  status: ('A' for Active; 'I' for Inactive)
REMARK    1  A    between atoms: C_1  and  C_2
REMARK    2  A    between atoms: C_2  and  C_3
REMARK    3  A    between atoms: C_3  and  C_4
REMARK    4  A    between atoms: C_4  and  O_5
REMARK    5  A    between atoms: O_5  and  P_6
REMARK    6  A    between atoms: P_6  and  O_8
REMARK    7  A    between atoms: P_6  and  C_9
REMARK    8  A    between atoms: C_9  and  O_11
REMARK    9  A    between atoms: O_11  and  C_12
REMARK                            x       y       z     vdW  Elec       q    Type
REMARK                         _______ _______ _______ _____ _____    ______ ____
ROOT
ATOM      1  P   UNL     1       7.306   5.145  18.254  0.00  0.00    +0.000 P 
ATOM      2  O   UNL     1       7.789   5.769  19.536  0.00  0.00    +0.000 OA
ENDROOT
BRANCH   1   3
ATOM      3  O   UNL     1       8.378   4.002  17.835  0.00  0.00    +0.000 OA
ATOM      4  H   UNL     1       9.245   4.203  18.235  0.00  0.00    +0.000 HD
ENDBRANCH   1   3
BRANCH   1   5
ATOM      5  C   UNL     1       7.117   6.256  16.795  0.00  0.00    +0.000 C 
ATOM      6  O   UNL     1       6.763   7.414  16.999  0.00  0.00    +0.000 OA
BRANCH   5   7
ATOM      7  O   UNL     1       7.488   5.796  15.551  0.00  0.00    +0.000 OA
ATOM      8  C   UNL     1       6.582   4.835  14.990  0.00  0.00    +0.000 C 
ENDBRANCH   5   7
ENDBRANCH   1   5
BRANCH   1   9
ATOM      9  O   UNL     1       6.025   4.184  18.516  0.00  0.00    +0.000 OA
BRANCH   9  10
ATOM     10  C   UNL     1       4.774   4.764  18.870  0.00  0.00    +0.000 C 
BRANCH  10  11
ATOM     11  C   UNL     1       3.784   4.735  17.691  0.00  0.00    +0.000 C 
BRANCH  11  13
ATOM     12  C   UNL     1       1.599   3.893  18.752  0.00  0.00    +0.000 C 
ATOM     13  C   UNL     1       2.365   5.074  18.170  0.00  0.00    +0.000 C 
ENDBRANCH  11  13
ENDBRANCH  10  11
ENDBRANCH   9  10
ENDBRANCH   1   9
TORSDOF 7
ENDMDL
MODEL 3
REMARK VINA RESULT:      -4.9      1.051      1.141
REMARK  Name = 
REMARK  9 active torsions:
REMARK  status: ('A' for Active; 'I' for Inactive)
REMARK    1  A    between atoms: C_1  and  C_2
REMARK    2  A    between atoms: C_2  and  C_3
REMARK    3  A    between atoms: C_3  and  C_4
REMARK    4  A    between atoms: C_4  and  O_5
REMARK    5  A    between atoms: O_5  and  P_6
REMARK    6  A    between atoms: P_6  and  O_8
REMARK    7  A    between atoms: P_6  and  C_9
REMARK    8  A    between atoms: C_9  and  O_11
REMARK    9  A    between atoms: O_11  and  C_12
REMARK                            x       y       z     vdW  Elec       q    Type
REMARK                         _______ _______ _______ _____ _____    ______ ____
ROOT
ATOM      1  P   UNL     1       5.658   4.622  18.227  0.00  0.00    +0.000 P 
ATOM      2  O   UNL     1       6.081   5.619  19.272  0.00  0.00    +0.000 OA
ENDROOT
BRANCH   1   3
ATOM      3  O   UNL     1       5.374   3.215  18.984  0.00  0.00    +0.000 OA
ATOM      4  H   UNL     1       4.418   3.122  19.156  0.00  0.00    +0.000 HD
ENDBRANCH   1   3
BRANCH   1   5
ATOM      5  C   UNL     1       6.854   4.264  16.872  0.00  0.00    +0.000 C 
ATOM      6  O   UNL     1       8.051   4.272  17.146  0.00  0.00    +0.000 OA
BRANCH   5   7
ATOM      7  O   UNL     1       6.373   3.884  15.637  0.00  0.00    +0.000 OA
ATOM      8  C   UNL     1       6.288   4.960  14.690  0.00  0.00    +0.000 C 
ENDBRANCH   5   7
ENDBRANCH   1   5
BRANCH   1   9
ATOM      9  O   UNL     1       4.149   4.922  17.709  0.00  0.00    +0.000 OA
BRANCH   9  10
ATOM     10  C   UNL     1       3.267   3.835  17.456  0.00  0.00    +0.000 C 
BRANCH  10  11
ATOM     11  C   UNL     1       1.805   4.210  17.763  0.00  0.00    +0.000 C 
BRANCH  11  13
ATOM     12  C   UNL     1       1.012   3.623  20.138  0.00  0.00    +0.000 C 
ATOM     13  C   UNL     1       1.164   3.168  18.692  0.00  0.00    +0.000 C 
ENDBRANCH  11  13
ENDBRANCH  10  11
ENDBRANCH   9  10
ENDBRANCH   1   9
TORSDOF 7
ENDMDL
MODEL 4
REMARK VINA RESULT:      -4.9      1.391      1.960
REMARK  Name = 
REMARK  9 active torsions:
REMARK  status: ('A' for Active; 'I' for Inactive)
REMARK    1  A    between atoms: C_1  and  C_2
REMARK    2  A    between atoms: C_2  and  C_3
REMARK    3  A    between atoms: C_3  and  C_4
REMARK    4  A    between atoms: C_4  and  O_5
REMARK    5  A    between atoms: O_5  and  P_6
REMARK    6  A    between atoms: P_6  and  O_8
REMARK    7  A    between atoms: P_6  and  C_9
REMARK    8  A    between atoms: C_9  and  O_11
REMARK    9  A    between atoms: O_11  and  C_12
REMARK                            x       y       z     vdW  Elec       q    Type
REMARK                         _______ _______ _______ _____ _____    ______ ____
ROOT
ATOM      1  P   UNL     1       6.029   4.743  18.709  0.00  0.00    +0.000 P 
ATOM      2  O   UNL     1       6.890   5.307  19.807  0.00  0.00    +0.000 OA
ENDROOT
BRANCH   1   3
ATOM      3  O   UNL     1       5.456   3.315  19.225  0.00  0.00    +0.000 OA
ATOM      4  H   UNL     1       4.693   3.051  18.677  0.00  0.00    +0.000 HD
ENDBRANCH   1   3
BRANCH   1   5
ATOM      5  C   UNL     1       6.834   4.435  17.081  0.00  0.00    +0.000 C 
ATOM      6  O   UNL     1       8.051   4.274  17.064  0.00  0.00    +0.000 OA
BRANCH   5   7
ATOM      7  O   UNL     1       6.045   4.277  15.962  0.00  0.00    +0.000 OA
ATOM      8  C   UNL     1       5.615   5.514  15.373  0.00  0.00    +0.000 C 
ENDBRANCH   5   7
ENDBRANCH   1   5
BRANCH   1   9
ATOM      9  O   UNL     1       4.618   5.540  18.603  0.00  0.00    +0.000 OA
BRANCH   9  10
ATOM     10  C   UNL     1       3.646   5.383  19.630  0.00  0.00    +0.000 C 
BRANCH  10  11
ATOM     11  C   UNL     1       2.213   5.490  19.073  0.00  0.00    +0.000 C 
BRANCH  11  13
ATOM     12  C   UNL     1       2.125   3.157  17.995  0.00  0.00    +0.000 C 
ATOM     13  C   UNL     1       2.072   4.665  17.786  0.00  0.00    +0.000 C 
ENDBRANCH  11  13
ENDBRANCH  10  11
ENDBRANCH   9  10
ENDBRANCH   1   9
TORSDOF 7
ENDMDL
MODEL 5
REMARK VINA RESULT:      -4.9      2.126      5.097
REMARK  Name = 
REMARK  9 active torsions:
REMARK  status: ('A' for Active; 'I' for Inactive)
REMARK    1  A    between atoms: C_1  and  C_2
REMARK    2  A    between atoms: C_2  and  C_3
REMARK    3  A    between atoms: C_3  and  C_4
REMARK    4  A    between atoms: C_4  and  O_5
REMARK    5  A    between atoms: O_5  and  P_6
REMARK    6  A    between atoms: P_6  and  O_8
REMARK    7  A    between atoms: P_6  and  C_9
REMARK    8  A    between atoms: C_9  and  O_11
REMARK    9  A    between atoms: O_11  and  C_12
REMARK                            x       y       z     vdW  Elec       q    Type
REMARK                         _______ _______ _______ _____ _____    ______ ____
ROOT
ATOM      1  P   UNL     1       6.789   5.357  16.441  0.00  0.00    +0.000 P 
ATOM      2  O   UNL     1       7.877   4.344  16.681  0.00  0.00    +0.000 OA
ENDROOT
BRANCH   1   3
ATOM      3  O   UNL     1       7.465   6.829  16.533  0.00  0.00    +0.000 OA
ATOM      4  H   UNL     1       7.913   7.038  15.692  0.00  0.00    +0.000 HD
ENDBRANCH   1   3
BRANCH   1   5
ATOM      5  C   UNL     1       5.363   5.354  17.608  0.00  0.00    +0.000 C 
ATOM      6  O   UNL     1       4.273   5.725  17.182  0.00  0.00    +0.000 OA
BRANCH   5   7
ATOM      7  O   UNL     1       5.531   4.829  18.871  0.00  0.00    +0.000 OA
ATOM      8  C   UNL     1       4.599   3.787  19.198  0.00  0.00    +0.000 C 
ENDBRANCH   5   7
ENDBRANCH   1   5
BRANCH   1   9
ATOM      9  O   UNL     1       6.356   5.392  14.877  0.00  0.00    +0.000 OA
BRANCH   9  10
ATOM     10  C   UNL     1       5.835   4.216  14.268  0.00  0.00    +0.000 C 
BRANCH  10  11
ATOM     11  C   UNL     1       6.553   3.901  12.942  0.00  0.00    +0.000 C 
BRANCH  11  13
ATOM     12  C   UNL     1       4.418   3.448  11.583  0.00  0.00    +0.000 C 
ATOM     13  C   UNL     1       5.737   2.900  12.112  0.00  0.00    +0.000 C 
ENDBRANCH  11  13
ENDBRANCH  10  11
ENDBRANCH   9  10
ENDBRANCH   1   9
TORSDOF 7
ENDMDL
MODEL 6
REMARK VINA RESULT:      -4.8      2.139      4.859
REMARK  Name = 
REMARK  9 active torsions:
REMARK  status: ('A' for Active; 'I' for Inactive)
REMARK    1  A    between atoms: C_1  and  C_2
REMARK    2  A    between atoms: C_2  and  C_3
REMARK    3  A    between atoms: C_3  and  C_4
REMARK    4  A    between atoms: C_4  and  O_5
REMARK    5  A    between atoms: O_5  and  P_6
REMARK    6  A    between atoms: P_6  and  O_8
REMARK    7  A    between atoms: P_6  and  C_9
REMARK    8  A    between atoms: C_9  and  O_11
REMARK    9  A    between atoms: O_11  and  C_12
REMARK                            x       y       z     vdW  Elec       q    Type
REMARK                         _______ _______ _______ _____ _____    ______ ____
ROOT
ATOM      1  P   UNL     1       7.106   5.284  17.451  0.00  0.00    +0.000 P 
ATOM      2  O   UNL     1       8.176   4.229  17.370  0.00  0.00    +0.000 OA
ENDROOT
BRANCH   1   3
ATOM      3  O   UNL     1       7.793   6.630  18.044  0.00  0.00    +0.000 OA
ATOM      4  H   UNL     1       8.387   7.017  17.373  0.00  0.00    +0.000 HD
ENDBRANCH   1   3
BRANCH   1   5
ATOM      5  C   UNL     1       5.645   4.922  18.514  0.00  0.00    +0.000 C 
ATOM      6  O   UNL     1       5.660   3.889  19.178  0.00  0.00    +0.000 OA
BRANCH   5   7
ATOM      7  O   UNL     1       4.646   5.865  18.624  0.00  0.00    +0.000 OA
ATOM      8  C   UNL     1       3.572   5.477  19.494  0.00  0.00    +0.000 C 
ENDBRANCH   5   7
ENDBRANCH   1   5
BRANCH   1   9
ATOM      9  O   UNL     1       6.722   5.843  15.976  0.00  0.00    +0.000 OA
BRANCH   9  10
ATOM     10  C   UNL     1       5.652   5.242  15.256  0.00  0.00    +0.000 C 
BRANCH  10  11
ATOM     11  C   UNL     1       6.059   3.877  14.671  0.00  0.00    +0.000 C 
BRANCH  11  13
ATOM     12  C   UNL     1       5.728   3.220  12.208  0.00  0.00    +0.000 C 
ATOM     13  C   UNL     1       6.529   4.031  13.218  0.00  0.00    +0.000 C 
ENDBRANCH  11  13
ENDBRANCH  10  11
ENDBRANCH   9  10
ENDBRANCH   1   9
TORSDOF 7
ENDMDL
MODEL 7
REMARK VINA RESULT:      -4.8      1.369      1.512
REMARK  Name = 
REMARK  9 active torsions:
REMARK  status: ('A' for Active; 'I' for Inactive)
REMARK    1  A    between atoms: C_1  and  C_2
REMARK    2  A    between atoms: C_2  and  C_3
REMARK    3  A    between atoms: C_3  and  C_4
REMARK    4  A    between atoms: C_4  and  O_5
REMARK    5  A    between atoms: O_5  and  P_6
REMARK    6  A    between atoms: P_6  and  O_8
REMARK    7  A    between atoms: P_6  and  C_9
REMARK    8  A    between atoms: C_9  and  O_11
REMARK    9  A    between atoms: O_11  and  C_12
REMARK                            x       y       z     vdW  Elec       q    Type
REMARK                         _______ _______ _______ _____ _____    ______ ____
ROOT
ATOM      1  P   UNL     1       5.221   4.449  18.334  0.00  0.00    +0.000 P 
ATOM      2  O   UNL     1       4.314   5.453  18.995  0.00  0.00    +0.000 OA
ENDROOT
BRANCH   1   3
ATOM      3  O   UNL     1       5.453   3.236  19.385  0.00  0.00    +0.000 OA
ATOM      4  H   UNL     1       4.810   2.523  19.211  0.00  0.00    +0.000 HD
ENDBRANCH   1   3
BRANCH   1   5
ATOM      5  C   UNL     1       6.891   5.033  17.819  0.00  0.00    +0.000 C 
ATOM      6  O   UNL     1       7.866   4.391  18.202  0.00  0.00    +0.000 OA
BRANCH   5   7
ATOM      7  O   UNL     1       6.991   6.086  16.936  0.00  0.00    +0.000 OA
ATOM      8  C   UNL     1       7.469   7.302  17.531  0.00  0.00    +0.000 C 
ENDBRANCH   5   7
ENDBRANCH   1   5
BRANCH   1   9
ATOM      9  O   UNL     1       4.433   3.618  17.183  0.00  0.00    +0.000 OA
BRANCH   9  10
ATOM     10  C   UNL     1       3.011   3.628  17.161  0.00  0.00    +0.000 C 
BRANCH  10  11
ATOM     11  C   UNL     1       2.425   2.406  17.892  0.00  0.00    +0.000 C 
BRANCH  11  13
ATOM     12  C   UNL     1       1.335   2.832  20.181  0.00  0.00    +0.000 C 
ATOM     13  C   UNL     1       1.160   2.797  18.669  0.00  0.00    +0.000 C 
ENDBRANCH  11  13
ENDBRANCH  10  11
ENDBRANCH   9  10
ENDBRANCH   1   9
TORSDOF 7
ENDMDL
MODEL 8
REMARK VINA RESULT:      -4.8      1.871      2.764
REMARK  Name = 
REMARK  9 active torsions:
REMARK  status: ('A' for Active; 'I' for Inactive)
REMARK    1  A    between atoms: C_1  and  C_2
REMARK    2  A    between atoms: C_2  and  C_3
REMARK    3  A    between atoms: C_3  and  C_4
REMARK    4  A    between atoms: C_4  and  O_5
REMARK    5  A    between atoms: O_5  and  P_6
REMARK    6  A    between atoms: P_6  and  O_8
REMARK    7  A    between atoms: P_6  and  C_9
REMARK    8  A    between atoms: C_9  and  O_11
REMARK    9  A    between atoms: O_11  and  C_12
REMARK                            x       y       z     vdW  Elec       q    Type
REMARK                         _______ _______ _______ _____ _____    ______ ____
ROOT
ATOM      1  P   UNL     1       7.019   4.690  17.656  0.00  0.00    +0.000 P 
ATOM      2  O   UNL     1       8.405   4.113  17.770  0.00  0.00    +0.000 OA
ENDROOT
BRANCH   1   3
ATOM      3  O   UNL     1       6.236   3.851  16.509  0.00  0.00    +0.000 OA
ATOM      4  H   UNL     1       6.163   4.392  15.699  0.00  0.00    +0.000 HD
ENDBRANCH   1   3
BRANCH   1   5
ATOM      5  C   UNL     1       6.882   6.470  17.198  0.00  0.00    +0.000 C 
ATOM      6  O   UNL     1       7.727   7.243  17.643  0.00  0.00    +0.000 OA
BRANCH   5   7
ATOM      7  O   UNL     1       5.923   6.856  16.289  0.00  0.00    +0.000 OA
ATOM      8  C   UNL     1       4.606   6.978  16.848  0.00  0.00    +0.000 C 
ENDBRANCH   5   7
ENDBRANCH   1   5
BRANCH   1   9
ATOM      9  O   UNL     1       6.103   4.267  18.927  0.00  0.00    +0.000 OA
BRANCH   9  10
ATOM     10  C   UNL     1       4.727   3.964  18.728  0.00  0.00    +0.000 C 
BRANCH  10  11
ATOM     11  C   UNL     1       4.319   2.675  19.467  0.00  0.00    +0.000 C 
BRANCH  11  13
ATOM     12  C   UNL     1       2.419   2.299  17.775  0.00  0.00    +0.000 C 
ATOM     13  C   UNL     1       3.614   1.704  18.508  0.00  0.00    +0.000 C 
ENDBRANCH  11  13
ENDBRANCH  10  11
ENDBRANCH   9  10
ENDBRANCH   1   9
TORSDOF 7
ENDMDL
MODEL 9
REMARK VINA RESULT:      -4.7      1.178      1.540
REMARK  Name = 
REMARK  9 active torsions:
REMARK  status: ('A' for Active; 'I' for Inactive)
REMARK    1  A    between atoms: C_1  and  C_2
REMARK    2  A    between atoms: C_2  and  C_3
REMARK    3  A    between atoms: C_3  and  C_4
REMARK    4  A    between atoms: C_4  and  O_5
REMARK    5  A    between atoms: O_5  and  P_6
REMARK    6  A    between atoms: P_6  and  O_8
REMARK    7  A    between atoms: P_6  and  C_9
REMARK    8  A    between atoms: C_9  and  O_11
REMARK    9  A    between atoms: O_11  and  C_12
REMARK                            x       y       z     vdW  Elec       q    Type
REMARK                         _______ _______ _______ _____ _____    ______ ____
ROOT
ATOM      1  P   UNL     1       5.674   4.807  18.719  0.00  0.00    +0.000 P 
ATOM      2  O   UNL     1       4.571   5.832  18.713  0.00  0.00    +0.000 OA
ENDROOT
BRANCH   1   3
ATOM      3  O   UNL     1       6.756   5.264  19.838  0.00  0.00    +0.000 OA
ATOM      4  H   UNL     1       6.552   4.831  20.688  0.00  0.00    +0.000 HD
ENDBRANCH   1   3
BRANCH   1   5
ATOM      5  C   UNL     1       6.605   4.561  17.148  0.00  0.00    +0.000 C 
ATOM      6  O   UNL     1       7.828   4.474  17.215  0.00  0.00    +0.000 OA
BRANCH   5   7
ATOM      7  O   UNL     1       5.905   4.365  15.978  0.00  0.00    +0.000 OA
ATOM      8  C   UNL     1       6.717   4.432  14.796  0.00  0.00    +0.000 C 
ENDBRANCH   5   7
ENDBRANCH   1   5
BRANCH   1   9
ATOM      9  O   UNL     1       5.183   3.424  19.414  0.00  0.00    +0.000 OA
BRANCH   9  10
ATOM     10  C   UNL     1       3.974   2.812  18.980  0.00  0.00    +0.000 C 
BRANCH  10  11
ATOM     11  C   UNL     1       2.859   2.954  20.032  0.00  0.00    +0.000 C 
BRANCH  11  13
ATOM     12  C   UNL     1       1.695   3.918  17.953  0.00  0.00    +0.000 C 
ATOM     13  C   UNL     1       1.685   3.767  19.468  0.00  0.00    +0.000 C 
ENDBRANCH  11  13
ENDBRANCH  10  11
ENDBRANCH   9  10
ENDBRANCH   1   9
TORSDOF 7
ENDMDL
