MODEL 1
REMARK VINA RESULT:      -4.6      0.000      0.000
REMARK  Name = 
REMARK  9 active torsions:
REMARK  status: ('A' for Active; 'I' for Inactive)
REMARK    1  A    between atoms: N_1  and  C_2
REMARK    2  A    between atoms: C_2  and  C_3
REMARK    3  A    between atoms: C_3  and  C_4
REMARK    4  A    between atoms: C_4  and  N_5
REMARK    5  A    between atoms: C_4  and  C_6
REMARK    6  A    between atoms: C_6  and  S_7
REMARK    7  A    between atoms: S_7  and  P_8
REMARK    8  A    between atoms: P_8  and  O_10
REMARK    9  A    between atoms: P_8  and  O_11
REMARK                            x       y       z     vdW  Elec       q    Type
REMARK                         _______ _______ _______ _____ _____    ______ ____
ROOT
ATOM      1  C   UNL     1       4.512   4.041  16.697  0.00  0.00    +0.000 C 
ENDROOT
BRANCH   1   2
ATOM      2  N   UNL     1       4.744   3.015  17.727  0.00  0.00    +0.000 NA
ATOM      3  H   UNL     1       5.745   2.852  17.840  0.00  0.00    +0.000 HD
ATOM      4  H   UNL     1       4.337   2.126  17.442  0.00  0.00    +0.000 HD
ENDBRANCH   1   2
BRANCH   1   5
ATOM      5  C   UNL     1       5.558   3.949  15.565  0.00  0.00    +0.000 C 
BRANCH   5   6
ATOM      6  C   UNL     1       6.049   5.308  15.064  0.00  0.00    +0.000 C 
BRANCH   6   7
ATOM      7  N   UNL     1       7.501   5.390  15.189  0.00  0.00    +0.000 NA
ATOM      8  H   UNL     1       7.815   4.777  15.940  0.00  0.00    +0.000 HD
ATOM      9  H   UNL     1       7.774   6.335  15.455  0.00  0.00    +0.000 HD
ENDBRANCH   6   7
ENDBRANCH   5   6
ENDBRANCH   1   5
BRANCH   1  10
ATOM     10  C   UNL     1       4.528   5.423  17.386  0.00  0.00    +0.000 C 
BRANCH  10  11
ATOM     11  S   UNL     1       5.161   5.370  19.089  0.00  0.00    +0.000 S 
BRANCH  11  12
ATOM     12  P   UNL     1       7.197   5.579  18.830  0.00  0.00    +0.000 P 
ATOM     13  O   UNL     1       7.573   6.813  18.080  0.00  0.00    +0.000 OA
BRANCH  12  14
ATOM     14  O   UNL     1       7.896   5.482  20.268  0.00  0.00    +0.000 OA
ATOM     15  H   UNL     1       7.564   4.723  20.782  0.00  0.00    +0.000 HD
ENDBRANCH  12  14
BRANCH  12  16
ATOM     16  O   UNL     1       7.800   4.256  18.158  0.00  0.00    +0.000 OA
ATOM     17  H   UNL     1       7.233   3.973  17.416  0.00  0.00    +0.000 HD
ENDBRANCH  12  16
ENDBRANCH  11  12
ENDBRANCH  10  11
ENDBRANCH   1  10
TORSDOF 9
ENDMDL
MODEL 2
REMARK VINA RESULT:      -4.5      2.729      4.225
REMARK  Name = 
REMARK  9 active torsions:
REMARK  status: ('A' for Active; 'I' for Inactive)
REMARK    1  A    between atoms: N_1  and  C_2
REMARK    2  A    between atoms: C_2  and  C_3
REMARK    3  A    between atoms: C_3  and  C_4
REMARK    4  A    between atoms: C_4  and  N_5
REMARK    5  A    between atoms: C_4  and  C_6
REMARK    6  A    between atoms: C_6  and  S_7
REMARK    7  A    between atoms: S_7  and  P_8
REMARK    8  A    between atoms: P_8  and  O_10
REMARK    9  A    between atoms: P_8  and  O_11
REMARK                            x       y       z     vdW  Elec       q    Type
REMARK                         _______ _______ _______ _____ _____    ______ ____
ROOT
ATOM      1  C   UNL     1       4.275   3.061  19.752  0.00  0.00    +0.000 C 
ENDROOT
BRANCH   1   2
ATOM      2  N   UNL     1       4.982   1.781  19.923  0.00  0.00    +0.000 NA
ATOM      3  H   UNL     1       4.749   1.370  20.828  0.00  0.00    +0.000 HD
ATOM      4  H   UNL     1       5.990   1.927  19.924  0.00  0.00    +0.000 HD
ENDBRANCH   1   2
BRANCH   1   5
ATOM      5  C   UNL     1       2.762   2.843  19.535  0.00  0.00    +0.000 C 
BRANCH   5   6
ATOM      6  C   UNL     1       1.914   3.111  20.779  0.00  0.00    +0.000 C 
BRANCH   6   7
ATOM      7  N   UNL     1       2.588   2.589  21.963  0.00  0.00    +0.000 NA
ATOM      8  H   UNL     1       2.660   3.322  22.668  0.00  0.00    +0.000 HD
ATOM      9  H   UNL     1       3.543   2.320  21.729  0.00  0.00    +0.000 HD
ENDBRANCH   6   7
ENDBRANCH   5   6
ENDBRANCH   1   5
BRANCH   1  10
ATOM     10  C   UNL     1       4.925   3.814  18.572  0.00  0.00    +0.000 C 
BRANCH  10  11
ATOM     11  S   UNL     1       5.363   5.533  18.970  0.00  0.00    +0.000 S 
BRANCH  11  12
ATOM     12  P   UNL     1       7.426   5.499  18.945  0.00  0.00    +0.000 P 
ATOM     13  O   UNL     1       7.988   4.395  18.115  0.00  0.00    +0.000 OA
BRANCH  12  14
ATOM     14  O   UNL     1       7.944   6.947  18.495  0.00  0.00    +0.000 OA
ATOM     15  H   UNL     1       8.915   6.972  18.405  0.00  0.00    +0.000 HD
ENDBRANCH  12  14
BRANCH  12  16
ATOM     16  O   UNL     1       7.989   5.476  20.444  0.00  0.00    +0.000 OA
ATOM     17  H   UNL     1       8.151   4.555  20.723  0.00  0.00    +0.000 HD
ENDBRANCH  12  16
ENDBRANCH  11  12
ENDBRANCH  10  11
ENDBRANCH   1  10
TORSDOF 9
ENDMDL
MODEL 3
REMARK VINA RESULT:      -4.4      2.750      3.343
REMARK  Name = 
REMARK  9 active torsions:
REMARK  status: ('A' for Active; 'I' for Inactive)
REMARK    1  A    between atoms: N_1  and  C_2
REMARK    2  A    between atoms: C_2  and  C_3
REMARK    3  A    between atoms: C_3  and  C_4
REMARK    4  A    between atoms: C_4  and  N_5
REMARK    5  A    between atoms: C_4  and  C_6
REMARK    6  A    between atoms: C_6  and  S_7
REMARK    7  A    between atoms: S_7  and  P_8
REMARK    8  A    between atoms: P_8  and  O_10
REMARK    9  A    between atoms: P_8  and  O_11
REMARK                            x       y       z     vdW  Elec       q    Type
REMARK                         _______ _______ _______ _____ _____    ______ ____
ROOT
ATOM      1  C   UNL     1       4.014   3.949  19.360  0.00  0.00    +0.000 C 
ENDROOT
BRANCH   1   2
ATOM      2  N   UNL     1       5.041   2.893  19.349  0.00  0.00    +0.000 NA
ATOM      3  H   UNL     1       4.900   2.276  18.548  0.00  0.00    +0.000 HD
ATOM      4  H   UNL     1       4.960   2.310  20.180  0.00  0.00    +0.000 HD
ENDBRANCH   1   2
BRANCH   1   5
ATOM      5  C   UNL     1       3.031   3.790  18.181  0.00  0.00    +0.000 C 
BRANCH   5   6
ATOM      6  C   UNL     1       2.875   2.349  17.695  0.00  0.00    +0.000 C 
BRANCH   6   7
ATOM      7  N   UNL     1       2.114   1.575  18.671  0.00  0.00    +0.000 NA
ATOM      8  H   UNL     1       1.368   2.150  19.060  0.00  0.00    +0.000 HD
ATOM      9  H   UNL     1       2.714   1.315  19.453  0.00  0.00    +0.000 HD
ENDBRANCH   6   7
ENDBRANCH   5   6
ENDBRANCH   1   5
BRANCH   1  10
ATOM     10  C   UNL     1       4.732   5.316  19.333  0.00  0.00    +0.000 C 
BRANCH  10  11
ATOM     11  S   UNL     1       5.027   5.939  17.651  0.00  0.00    +0.000 S 
BRANCH  11  12
ATOM     12  P   UNL     1       7.055   5.653  17.403  0.00  0.00    +0.000 P 
ATOM     13  O   UNL     1       7.514   5.875  16.000  0.00  0.00    +0.000 OA
BRANCH  12  14
ATOM     14  O   UNL     1       7.822   6.573  18.466  0.00  0.00    +0.000 OA
ATOM     15  H   UNL     1       8.461   6.059  18.995  0.00  0.00    +0.000 HD
ENDBRANCH  12  14
BRANCH  12  16
ATOM     16  O   UNL     1       7.474   4.210  17.956  0.00  0.00    +0.000 OA
ATOM     17  H   UNL     1       8.277   3.900  17.496  0.00  0.00    +0.000 HD
ENDBRANCH  12  16
ENDBRANCH  11  12
ENDBRANCH  10  11
ENDBRANCH   1  10
TORSDOF 9
ENDMDL
MODEL 4
REMARK VINA RESULT:      -4.4      2.690      3.782
REMARK  Name = 
REMARK  9 active torsions:
REMARK  status: ('A' for Active; 'I' for Inactive)
REMARK    1  A    between atoms: N_1  and  C_2
REMARK    2  A    between atoms: C_2  and  C_3
REMARK    3  A    between atoms: C_3  and  C_4
REMARK    4  A    between atoms: C_4  and  N_5
REMARK    5  A    between atoms: C_4  and  C_6
REMARK    6  A    between atoms: C_6  and  S_7
REMARK    7  A    between atoms: S_7  and  P_8
REMARK    8  A    between atoms: P_8  and  O_10
REMARK    9  A    between atoms: P_8  and  O_11
REMARK                            x       y       z     vdW  Elec       q    Type
REMARK                         _______ _______ _______ _____ _____    ______ ____
ROOT
ATOM      1  C   UNL     1       4.349   4.193  18.897  0.00  0.00    +0.000 C 
ENDROOT
BRANCH   1   2
ATOM      2  N   UNL     1       5.592   3.454  19.173  0.00  0.00    +0.000 NA
ATOM      3  H   UNL     1       5.378   2.483  19.405  0.00  0.00    +0.000 HD
ATOM      4  H   UNL     1       6.066   3.847  19.985  0.00  0.00    +0.000 HD
ENDBRANCH   1   2
BRANCH   1   5
ATOM      5  C   UNL     1       3.303   3.295  18.201  0.00  0.00    +0.000 C 
BRANCH   5   6
ATOM      6  C   UNL     1       3.142   1.918  18.847  0.00  0.00    +0.000 C 
BRANCH   6   7
ATOM      7  N   UNL     1       4.117   0.988  18.287  0.00  0.00    +0.000 NA
ATOM      8  H   UNL     1       3.752   0.587  17.424  0.00  0.00    +0.000 HD
ATOM      9  H   UNL     1       4.262   0.208  18.928  0.00  0.00    +0.000 HD
ENDBRANCH   6   7
ENDBRANCH   5   6
ENDBRANCH   1   5
BRANCH   1  10
ATOM     10  C   UNL     1       4.705   5.429  18.044  0.00  0.00    +0.000 C 
BRANCH  10  11
ATOM     11  S   UNL     1       5.110   5.021  16.319  0.00  0.00    +0.000 S 
BRANCH  11  12
ATOM     12  P   UNL     1       7.153   5.296  16.249  0.00  0.00    +0.000 P 
ATOM     13  O   UNL     1       7.909   4.324  17.091  0.00  0.00    +0.000 OA
BRANCH  12  14
ATOM     14  O   UNL     1       7.607   5.279  14.713  0.00  0.00    +0.000 OA
ATOM     15  H   UNL     1       8.459   5.736  14.582  0.00  0.00    +0.000 HD
ENDBRANCH  12  14
BRANCH  12  16
ATOM     16  O   UNL     1       7.512   6.815  16.608  0.00  0.00    +0.000 OA
ATOM     17  H   UNL     1       6.730   7.259  16.987  0.00  0.00    +0.000 HD
ENDBRANCH  12  16
ENDBRANCH  11  12
ENDBRANCH  10  11
ENDBRANCH   1  10
TORSDOF 9
ENDMDL
MODEL 5
REMARK VINA RESULT:      -4.4      4.295      4.428
REMARK  Name = 
REMARK  9 active torsions:
REMARK  status: ('A' for Active; 'I' for Inactive)
REMARK    1  A    between atoms: N_1  and  C_2
REMARK    2  A    between atoms: C_2  and  C_3
REMARK    3  A    between atoms: C_3  and  C_4
REMARK    4  A    between atoms: C_4  and  N_5
REMARK    5  A    between atoms: C_4  and  C_6
REMARK    6  A    between atoms: C_6  and  S_7
REMARK    7  A    between atoms: S_7  and  P_8
REMARK    8  A    between atoms: P_8  and  O_10
REMARK    9  A    between atoms: P_8  and  O_11
REMARK                            x       y       z     vdW  Elec       q    Type
REMARK                         _______ _______ _______ _____ _____    ______ ____
ROOT
ATOM      1  C   UNL     1       4.678   3.833  17.740  0.00  0.00    +0.000 C 
ENDROOT
BRANCH   1   2
ATOM      2  N   UNL     1       5.504   3.566  18.929  0.00  0.00    +0.000 NA
ATOM      3  H   UNL     1       6.297   2.974  18.679  0.00  0.00    +0.000 HD
ATOM      4  H   UNL     1       4.969   3.053  19.627  0.00  0.00    +0.000 HD
ENDBRANCH   1   2
BRANCH   1   5
ATOM      5  C   UNL     1       5.546   4.250  16.533  0.00  0.00    +0.000 C 
BRANCH   5   6
ATOM      6  C   UNL     1       6.774   5.080  16.912  0.00  0.00    +0.000 C 
BRANCH   6   7
ATOM      7  N   UNL     1       7.917   4.202  17.142  0.00  0.00    +0.000 NA
ATOM      8  H   UNL     1       7.590   3.258  17.342  0.00  0.00    +0.000 HD
ATOM      9  H   UNL     1       8.432   4.510  17.966  0.00  0.00    +0.000 HD
ENDBRANCH   6   7
ENDBRANCH   5   6
ENDBRANCH   1   5
BRANCH   1  10
ATOM     10  C   UNL     1       3.643   4.917  18.108  0.00  0.00    +0.000 C 
BRANCH  10  11
ATOM     11  S   UNL     1       1.923   4.344  17.975  0.00  0.00    +0.000 S 
BRANCH  11  12
ATOM     12  P   UNL     1       1.778   2.968  19.505  0.00  0.00    +0.000 P 
ATOM     13  O   UNL     1       2.864   3.097  20.520  0.00  0.00    +0.000 OA
BRANCH  12  14
ATOM     14  O   UNL     1       0.311   3.079  20.140  0.00  0.00    +0.000 OA
ATOM     15  H   UNL     1      -0.327   2.502  19.680  0.00  0.00    +0.000 HD
ENDBRANCH  12  14
BRANCH  12  16
ATOM     16  O   UNL     1       1.687   1.487  18.901  0.00  0.00    +0.000 OA
ATOM     17  H   UNL     1       1.472   1.530  17.950  0.00  0.00    +0.000 HD
ENDBRANCH  12  16
ENDBRANCH  11  12
ENDBRANCH  10  11
ENDBRANCH   1  10
TORSDOF 9
ENDMDL
MODEL 6
REMARK VINA RESULT:      -4.4      4.328      4.585
REMARK  Name = 
REMARK  9 active torsions:
REMARK  status: ('A' for Active; 'I' for Inactive)
REMARK    1  A    between atoms: N_1  and  C_2
REMARK    2  A    between atoms: C_2  and  C_3
REMARK    3  A    between atoms: C_3  and  C_4
REMARK    4  A    between atoms: C_4  and  N_5
REMARK    5  A    between atoms: C_4  and  C_6
REMARK    6  A    between atoms: C_6  and  S_7
REMARK    7  A    between atoms: S_7  and  P_8
REMARK    8  A    between atoms: P_8  and  O_10
REMARK    9  A    between atoms: P_8  and  O_11
REMARK                            x       y       z     vdW  Elec       q    Type
REMARK                         _______ _______ _______ _____ _____    ______ ____
ROOT
ATOM      1  C   UNL     1       4.769   4.288  18.342  0.00  0.00    +0.000 C 
ENDROOT
BRANCH   1   2
ATOM      2  N   UNL     1       5.343   3.119  19.028  0.00  0.00    +0.000 NA
ATOM      3  H   UNL     1       4.795   2.896  19.859  0.00  0.00    +0.000 HD
ATOM      4  H   UNL     1       6.287   3.324  19.351  0.00  0.00    +0.000 HD
ENDBRANCH   1   2
BRANCH   1   5
ATOM      5  C   UNL     1       5.871   5.253  17.855  0.00  0.00    +0.000 C 
BRANCH   5   6
ATOM      6  C   UNL     1       6.885   4.608  16.909  0.00  0.00    +0.000 C 
BRANCH   6   7
ATOM      7  N   UNL     1       8.047   4.149  17.664  0.00  0.00    +0.000 NA
ATOM      8  H   UNL     1       7.879   4.272  18.661  0.00  0.00    +0.000 HD
ATOM      9  H   UNL     1       8.859   4.723  17.436  0.00  0.00    +0.000 HD
ENDBRANCH   6   7
ENDBRANCH   5   6
ENDBRANCH   1   5
BRANCH   1  10
ATOM     10  C   UNL     1       3.785   4.978  19.311  0.00  0.00    +0.000 C 
BRANCH  10  11
ATOM     11  S   UNL     1       2.585   3.832  20.053  0.00  0.00    +0.000 S 
BRANCH  11  12
ATOM     12  P   UNL     1       1.668   2.996  18.405  0.00  0.00    +0.000 P 
ATOM     13  O   UNL     1       1.408   3.979  17.313  0.00  0.00    +0.000 OA
BRANCH  12  14
ATOM     14  O   UNL     1       2.547   1.745  17.925  0.00  0.00    +0.000 OA
ATOM     15  H   UNL     1       2.019   0.925  17.888  0.00  0.00    +0.000 HD
ENDBRANCH  12  14
BRANCH  12  16
ATOM     16  O   UNL     1       0.339   2.223  18.852  0.00  0.00    +0.000 OA
ATOM     17  H   UNL     1       0.446   1.877  19.759  0.00  0.00    +0.000 HD
ENDBRANCH  12  16
ENDBRANCH  11  12
ENDBRANCH  10  11
ENDBRANCH   1  10
TORSDOF 9
ENDMDL
MODEL 7
REMARK VINA RESULT:      -4.3      3.247      4.390
REMARK  Name = 
REMARK  9 active torsions:
REMARK  status: ('A' for Active; 'I' for Inactive)
REMARK    1  A    between atoms: N_1  and  C_2
REMARK    2  A    between atoms: C_2  and  C_3
REMARK    3  A    between atoms: C_3  and  C_4
REMARK    4  A    between atoms: C_4  and  N_5
REMARK    5  A    between atoms: C_4  and  C_6
REMARK    6  A    between atoms: C_6  and  S_7
REMARK    7  A    between atoms: S_7  and  P_8
REMARK    8  A    between atoms: P_8  and  O_10
REMARK    9  A    between atoms: P_8  and  O_11
REMARK                            x       y       z     vdW  Elec       q    Type
REMARK                         _______ _______ _______ _____ _____    ______ ____
ROOT
ATOM      1  C   UNL     1       3.170   4.534  19.170  0.00  0.00    +0.000 C 
ENDROOT
BRANCH   1   2
ATOM      2  N   UNL     1       3.204   5.571  20.215  0.00  0.00    +0.000 NA
ATOM      3  H   UNL     1       2.841   6.451  19.848  0.00  0.00    +0.000 HD
ATOM      4  H   UNL     1       4.164   5.753  20.504  0.00  0.00    +0.000 HD
ENDBRANCH   1   2
BRANCH   1   5
ATOM      5  C   UNL     1       2.184   3.403  19.531  0.00  0.00    +0.000 C 
BRANCH   5   6
ATOM      6  C   UNL     1       1.432   3.633  20.843  0.00  0.00    +0.000 C 
BRANCH   6   7
ATOM      7  N   UNL     1       2.269   3.238  21.972  0.00  0.00    +0.000 NA
ATOM      8  H   UNL     1       3.165   2.892  21.631  0.00  0.00    +0.000 HD
ATOM      9  H   UNL     1       1.834   2.465  22.474  0.00  0.00    +0.000 HD
ENDBRANCH   6   7
ENDBRANCH   5   6
ENDBRANCH   1   5
BRANCH   1  10
ATOM     10  C   UNL     1       4.607   4.005  18.971  0.00  0.00    +0.000 C 
BRANCH  10  11
ATOM     11  S   UNL     1       5.860   5.322  18.944  0.00  0.00    +0.000 S 
BRANCH  11  12
ATOM     12  P   UNL     1       6.973   4.864  17.269  0.00  0.00    +0.000 P 
ATOM     13  O   UNL     1       7.320   6.059  16.446  0.00  0.00    +0.000 OA
BRANCH  12  14
ATOM     14  O   UNL     1       8.259   4.031  17.737  0.00  0.00    +0.000 OA
ATOM     15  H   UNL     1       9.041   4.236  17.191  0.00  0.00    +0.000 HD
ENDBRANCH  12  14
BRANCH  12  16
ATOM     16  O   UNL     1       6.229   3.734  16.412  0.00  0.00    +0.000 OA
ATOM     17  H   UNL     1       6.211   2.896  16.913  0.00  0.00    +0.000 HD
ENDBRANCH  12  16
ENDBRANCH  11  12
ENDBRANCH  10  11
ENDBRANCH   1  10
TORSDOF 9
ENDMDL
MODEL 8
REMARK VINA RESULT:      -4.3      3.259      3.626
REMARK  Name = 
REMARK  9 active torsions:
REMARK  status: ('A' for Active; 'I' for Inactive)
REMARK    1  A    between atoms: N_1  and  C_2
REMARK    2  A    between atoms: C_2  and  C_3
REMARK    3  A    between atoms: C_3  and  C_4
REMARK    4  A    between atoms: C_4  and  N_5
REMARK    5  A    between atoms: C_4  and  C_6
REMARK    6  A    between atoms: C_6  and  S_7
REMARK    7  A    between atoms: S_7  and  P_8
REMARK    8  A    between atoms: P_8  and  O_10
REMARK    9  A    between atoms: P_8  and  O_11
REMARK                            x       y       z     vdW  Elec       q    Type
REMARK                         _______ _______ _______ _____ _____    ______ ____
ROOT
ATOM      1  C   UNL     1       3.248   4.607  18.758  0.00  0.00    +0.000 C 
ENDROOT
BRANCH   1   2
ATOM      2  N   UNL     1       2.569   4.542  20.063  0.00  0.00    +0.000 NA
ATOM      3  H   UNL     1       1.752   5.153  20.064  0.00  0.00    +0.000 HD
ATOM      4  H   UNL     1       3.184   4.880  20.801  0.00  0.00    +0.000 HD
ENDBRANCH   1   2
BRANCH   1   5
ATOM      5  C   UNL     1       2.451   3.854  17.671  0.00  0.00    +0.000 C 
BRANCH   5   6
ATOM      6  C   UNL     1       2.663   2.339  17.687  0.00  0.00    +0.000 C 
BRANCH   6   7
ATOM      7  N   UNL     1       1.807   1.728  18.701  0.00  0.00    +0.000 NA
ATOM      8  H   UNL     1       2.105   2.029  19.628  0.00  0.00    +0.000 HD
ATOM      9  H   UNL     1       1.912   0.715  18.679  0.00  0.00    +0.000 HD
ENDBRANCH   6   7
ENDBRANCH   5   6
ENDBRANCH   1   5
BRANCH   1  10
ATOM     10  C   UNL     1       4.672   4.036  18.929  0.00  0.00    +0.000 C 
BRANCH  10  11
ATOM     11  S   UNL     1       5.966   5.313  18.911  0.00  0.00    +0.000 S 
BRANCH  11  12
ATOM     12  P   UNL     1       7.050   4.846  17.219  0.00  0.00    +0.000 P 
ATOM     13  O   UNL     1       7.391   6.039  16.390  0.00  0.00    +0.000 OA
BRANCH  12  14
ATOM     14  O   UNL     1       8.338   4.006  17.667  0.00  0.00    +0.000 OA
ATOM     15  H   UNL     1       8.115   3.074  17.851  0.00  0.00    +0.000 HD
ENDBRANCH  12  14
BRANCH  12  16
ATOM     16  O   UNL     1       6.285   3.721  16.375  0.00  0.00    +0.000 OA
ATOM     17  H   UNL     1       6.774   3.536  15.550  0.00  0.00    +0.000 HD
ENDBRANCH  12  16
ENDBRANCH  11  12
ENDBRANCH  10  11
ENDBRANCH   1  10
TORSDOF 9
ENDMDL
MODEL 9
REMARK VINA RESULT:      -4.3      3.060      3.957
REMARK  Name = 
REMARK  9 active torsions:
REMARK  status: ('A' for Active; 'I' for Inactive)
REMARK    1  A    between atoms: N_1  and  C_2
REMARK    2  A    between atoms: C_2  and  C_3
REMARK    3  A    between atoms: C_3  and  C_4
REMARK    4  A    between atoms: C_4  and  N_5
REMARK    5  A    between atoms: C_4  and  C_6
REMARK    6  A    between atoms: C_6  and  S_7
REMARK    7  A    between atoms: S_7  and  P_8
REMARK    8  A    between atoms: P_8  and  O_10
REMARK    9  A    between atoms: P_8  and  O_11
REMARK                            x       y       z     vdW  Elec       q    Type
REMARK                         _______ _______ _______ _____ _____    ______ ____
ROOT
ATOM      1  C   UNL     1       4.368   3.435  19.142  0.00  0.00    +0.000 C 
ENDROOT
BRANCH   1   2
ATOM      2  N   UNL     1       5.059   2.241  19.654  0.00  0.00    +0.000 NA
ATOM      3  H   UNL     1       5.495   2.447  20.553  0.00  0.00    +0.000 HD
ATOM      4  H   UNL     1       5.812   1.968  19.025  0.00  0.00    +0.000 HD
ENDBRANCH   1   2
BRANCH   1   5
ATOM      5  C   UNL     1       3.622   3.132  17.824  0.00  0.00    +0.000 C 
BRANCH   5   6
ATOM      6  C   UNL     1       2.154   2.749  18.019  0.00  0.00    +0.000 C 
BRANCH   6   7
ATOM      7  N   UNL     1       1.975   2.108  19.318  0.00  0.00    +0.000 NA
ATOM      8  H   UNL     1       1.218   2.565  19.824  0.00  0.00    +0.000 HD
ATOM      9  H   UNL     1       2.814   2.228  19.884  0.00  0.00    +0.000 HD
ENDBRANCH   6   7
ENDBRANCH   5   6
ENDBRANCH   1   5
BRANCH   1  10
ATOM     10  C   UNL     1       5.414   4.557  18.967  0.00  0.00    +0.000 C 
BRANCH  10  11
ATOM     11  S   UNL     1       5.317   5.386  17.351  0.00  0.00    +0.000 S 
BRANCH  11  12
ATOM     12  P   UNL     1       6.907   4.571  16.320  0.00  0.00    +0.000 P 
ATOM     13  O   UNL     1       8.070   4.242  17.194  0.00  0.00    +0.000 OA
BRANCH  12  14
ATOM     14  O   UNL     1       6.370   3.310  15.490  0.00  0.00    +0.000 OA
ATOM     15  H   UNL     1       6.346   3.491  14.532  0.00  0.00    +0.000 HD
ENDBRANCH  12  14
BRANCH  12  16
ATOM     16  O   UNL     1       7.316   5.528  15.103  0.00  0.00    +0.000 OA
ATOM     17  H   UNL     1       8.132   5.197  14.681  0.00  0.00    +0.000 HD
ENDBRANCH  12  16
ENDBRANCH  11  12
ENDBRANCH  10  11
ENDBRANCH   1  10
TORSDOF 9
ENDMDL
