MODEL 1
REMARK VINA RESULT:      -8.4      0.000      0.000
REMARK  Name = 
REMARK  9 active torsions:
REMARK  status: ('A' for Active; 'I' for Inactive)
REMARK    1  A    between atoms: O_1  and  C_2
REMARK    2  A    between atoms: C_2  and  C_3
REMARK    3  A    between atoms: C_2  and  C_24
REMARK    4  A    between atoms: C_3  and  N_4
REMARK    5  A    between atoms: N_4  and  C_5
REMARK    6  A    between atoms: N_4  and  C_17
REMARK    7  A    between atoms: C_5  and  C_6
REMARK    8  A    between atoms: C_9  and  O_10
REMARK    9  A    between atoms: O_10  and  C_11
REMARK                            x       y       z     vdW  Elec       q    Type
REMARK                         _______ _______ _______ _____ _____    ______ ____
ROOT
ATOM      1  N   UNL     1       3.396   5.526  18.325  0.00  0.00    +0.000 N 
ENDROOT
BRANCH   1   2
ATOM      2  C   UNL     1       4.718   5.153  17.948  0.00  0.00    +0.000 A 
ATOM      3  C   UNL     1       5.796   5.409  18.811  0.00  0.00    +0.000 A 
ATOM      4  C   UNL     1       7.125   5.140  18.437  0.00  0.00    +0.000 A 
ATOM      5  C   UNL     1       7.396   4.589  17.189  0.00  0.00    +0.000 A 
ATOM      6  C   UNL     1       6.340   4.297  16.337  0.00  0.00    +0.000 A 
ATOM      7  F   UNL     1       6.589   3.772  15.137  0.00  0.00    +0.000 F 
ATOM      8  C   UNL     1       5.020   4.572  16.701  0.00  0.00    +0.000 A 
ENDBRANCH   1   2
BRANCH   1   9
ATOM      9  C   UNL     1       2.416   4.407  18.326  0.00  0.00    +0.000 C 
BRANCH   9  10
ATOM     10  C   UNL     1       2.497   3.468  19.538  0.00  0.00    +0.000 C 
BRANCH  10  11
ATOM     11  C   UNL     1       1.080   3.257  20.100  0.00  0.00    +0.000 C 
ATOM     12  F   UNL     1       0.451   4.422  20.381  0.00  0.00    +0.000 F 
ATOM     13  F   UNL     1       0.312   2.605  19.190  0.00  0.00    +0.000 F 
ATOM     14  F   UNL     1       1.072   2.510  21.228  0.00  0.00    +0.000 F 
ENDBRANCH  10  11
BRANCH  10  15
ATOM     15  O   UNL     1       3.172   2.246  19.182  0.00  0.00    +0.000 OA
ATOM     16  H   UNL     1       3.843   2.487  18.516  0.00  0.00    +0.000 HD
ENDBRANCH  10  15
ENDBRANCH   9  10
ENDBRANCH   1   9
BRANCH   1  17
ATOM     17  C   UNL     1       2.978   6.867  17.838  0.00  0.00    +0.000 C 
BRANCH  17  18
ATOM     18  C   UNL     1       2.210   7.685  18.857  0.00  0.00    +0.000 A 
ATOM     19  C   UNL     1       1.607   8.895  18.508  0.00  0.00    +0.000 A 
ATOM     20  C   UNL     1       0.962   9.667  19.484  0.00  0.00    +0.000 A 
ATOM     21  C   UNL     1       0.909   9.251  20.820  0.00  0.00    +0.000 A 
ATOM     22  C   UNL     1       1.495   8.042  21.170  0.00  0.00    +0.000 A 
ATOM     23  C   UNL     1       2.107   7.253  20.190  0.00  0.00    +0.000 A 
BRANCH  21  24
ATOM     24  O   UNL     1       0.256  10.121  21.637  0.00  0.00    +0.000 OA
BRANCH  24  25
ATOM     25  C   UNL     1      -0.380   9.670  22.821  0.00  0.00    +0.000 C 
ATOM     26  F   UNL     1       0.479   9.418  23.830  0.00  0.00    +0.000 F 
ATOM     27  F   UNL     1      -1.301  10.568  23.229  0.00  0.00    +0.000 F 
ATOM     28  F   UNL     1      -1.020   8.512  22.535  0.00  0.00    +0.000 F 
ENDBRANCH  24  25
ENDBRANCH  21  24
ENDBRANCH  17  18
ENDBRANCH   1  17
TORSDOF 9
ENDMDL
MODEL 2
REMARK VINA RESULT:      -8.3      0.084      1.036
REMARK  Name = 
REMARK  9 active torsions:
REMARK  status: ('A' for Active; 'I' for Inactive)
REMARK    1  A    between atoms: O_1  and  C_2
REMARK    2  A    between atoms: C_2  and  C_3
REMARK    3  A    between atoms: C_2  and  C_24
REMARK    4  A    between atoms: C_3  and  N_4
REMARK    5  A    between atoms: N_4  and  C_5
REMARK    6  A    between atoms: N_4  and  C_17
REMARK    7  A    between atoms: C_5  and  C_6
REMARK    8  A    between atoms: C_9  and  O_10
REMARK    9  A    between atoms: O_10  and  C_11
REMARK                            x       y       z     vdW  Elec       q    Type
REMARK                         _______ _______ _______ _____ _____    ______ ____
ROOT
ATOM      1  N   UNL     1       3.388   5.490  18.296  0.00  0.00    +0.000 N 
ENDROOT
BRANCH   1   2
ATOM      2  C   UNL     1       4.720   5.145  17.929  0.00  0.00    +0.000 A 
ATOM      3  C   UNL     1       5.784   5.407  18.808  0.00  0.00    +0.000 A 
ATOM      4  C   UNL     1       7.122   5.166  18.446  0.00  0.00    +0.000 A 
ATOM      5  C   UNL     1       7.416   4.636  17.194  0.00  0.00    +0.000 A 
ATOM      6  C   UNL     1       6.375   4.338  16.326  0.00  0.00    +0.000 A 
ATOM      7  F   UNL     1       6.646   3.833  15.122  0.00  0.00    +0.000 F 
ATOM      8  C   UNL     1       5.046   4.585  16.678  0.00  0.00    +0.000 A 
ENDBRANCH   1   2
BRANCH   1   9
ATOM      9  C   UNL     1       2.428   4.353  18.276  0.00  0.00    +0.000 C 
BRANCH   9  10
ATOM     10  C   UNL     1       2.508   3.410  19.484  0.00  0.00    +0.000 C 
BRANCH  10  11
ATOM     11  C   UNL     1       1.090   3.188  20.039  0.00  0.00    +0.000 C 
ATOM     12  F   UNL     1       0.280   2.551  19.161  0.00  0.00    +0.000 F 
ATOM     13  F   UNL     1       1.142   2.418  21.155  0.00  0.00    +0.000 F 
ATOM     14  F   UNL     1       0.480   4.344  20.387  0.00  0.00    +0.000 F 
ENDBRANCH  10  11
BRANCH  10  15
ATOM     15  O   UNL     1       3.191   2.193  19.126  0.00  0.00    +0.000 OA
ATOM     16  H   UNL     1       4.146   2.389  19.175  0.00  0.00    +0.000 HD
ENDBRANCH  10  15
ENDBRANCH   9  10
ENDBRANCH   1   9
BRANCH   1  17
ATOM     17  C   UNL     1       2.951   6.828  17.817  0.00  0.00    +0.000 C 
BRANCH  17  18
ATOM     18  C   UNL     1       2.220   7.651  18.859  0.00  0.00    +0.000 A 
ATOM     19  C   UNL     1       1.643   8.880  18.535  0.00  0.00    +0.000 A 
ATOM     20  C   UNL     1       1.033   9.655  19.531  0.00  0.00    +0.000 A 
ATOM     21  C   UNL     1       0.990   9.223  20.863  0.00  0.00    +0.000 A 
ATOM     22  C   UNL     1       1.550   7.995  21.187  0.00  0.00    +0.000 A 
ATOM     23  C   UNL     1       2.126   7.203  20.187  0.00  0.00    +0.000 A 
BRANCH  21  24
ATOM     24  O   UNL     1       0.372  10.097  21.701  0.00  0.00    +0.000 OA
BRANCH  24  25
ATOM     25  C   UNL     1      -0.446   9.634  22.763  0.00  0.00    +0.000 C 
ATOM     26  F   UNL     1      -1.404  10.511  23.126  0.00  0.00    +0.000 F 
ATOM     27  F   UNL     1      -1.016   8.456  22.436  0.00  0.00    +0.000 F 
ATOM     28  F   UNL     1       0.347   9.433  23.842  0.00  0.00    +0.000 F 
ENDBRANCH  24  25
ENDBRANCH  21  24
ENDBRANCH  17  18
ENDBRANCH   1  17
TORSDOF 9
ENDMDL
MODEL 3
REMARK VINA RESULT:      -8.3      2.243      7.746
REMARK  Name = 
REMARK  9 active torsions:
REMARK  status: ('A' for Active; 'I' for Inactive)
REMARK    1  A    between atoms: O_1  and  C_2
REMARK    2  A    between atoms: C_2  and  C_3
REMARK    3  A    between atoms: C_2  and  C_24
REMARK    4  A    between atoms: C_3  and  N_4
REMARK    5  A    between atoms: N_4  and  C_5
REMARK    6  A    between atoms: N_4  and  C_17
REMARK    7  A    between atoms: C_5  and  C_6
REMARK    8  A    between atoms: C_9  and  O_10
REMARK    9  A    between atoms: O_10  and  C_11
REMARK                            x       y       z     vdW  Elec       q    Type
REMARK                         _______ _______ _______ _____ _____    ______ ____
ROOT
ATOM      1  N   UNL     1       3.337   5.645  18.693  0.00  0.00    +0.000 N 
ENDROOT
BRANCH   1   2
ATOM      2  C   UNL     1       2.586   6.828  18.942  0.00  0.00    +0.000 A 
ATOM      3  C   UNL     1       2.433   7.792  17.931  0.00  0.00    +0.000 A 
ATOM      4  C   UNL     1       1.777   9.014  18.165  0.00  0.00    +0.000 A 
ATOM      5  C   UNL     1       1.243   9.284  19.420  0.00  0.00    +0.000 A 
ATOM      6  C   UNL     1       1.353   8.329  20.420  0.00  0.00    +0.000 A 
ATOM      7  F   UNL     1       0.847   8.580  21.629  0.00  0.00    +0.000 F 
ATOM      8  C   UNL     1       2.012   7.119  20.195  0.00  0.00    +0.000 A 
ENDBRANCH   1   2
BRANCH   1   9
ATOM      9  C   UNL     1       2.989   4.496  19.572  0.00  0.00    +0.000 C 
BRANCH   9  10
ATOM     10  C   UNL     1       2.281   3.328  18.872  0.00  0.00    +0.000 C 
BRANCH  10  11
ATOM     11  C   UNL     1       1.032   2.943  19.685  0.00  0.00    +0.000 C 
ATOM     12  F   UNL     1       1.322   2.146  20.740  0.00  0.00    +0.000 F 
ATOM     13  F   UNL     1       0.442   4.058  20.186  0.00  0.00    +0.000 F 
ATOM     14  F   UNL     1       0.100   2.306  18.940  0.00  0.00    +0.000 F 
ENDBRANCH  10  11
BRANCH  10  15
ATOM     15  O   UNL     1       2.002   3.661  17.498  0.00  0.00    +0.000 OA
ATOM     16  H   UNL     1       2.826   3.492  17.003  0.00  0.00    +0.000 HD
ENDBRANCH  10  15
ENDBRANCH   9  10
ENDBRANCH   1   9
BRANCH   1  17
ATOM     17  C   UNL     1       4.759   5.889  18.334  0.00  0.00    +0.000 C 
BRANCH  17  18
ATOM     18  C   UNL     1       5.168   5.309  16.995  0.00  0.00    +0.000 A 
ATOM     19  C   UNL     1       5.420   3.944  16.845  0.00  0.00    +0.000 A 
ATOM     20  C   UNL     1       5.865   3.442  15.614  0.00  0.00    +0.000 A 
ATOM     21  C   UNL     1       6.069   4.287  14.516  0.00  0.00    +0.000 A 
ATOM     22  C   UNL     1       5.807   5.643  14.657  0.00  0.00    +0.000 A 
ATOM     23  C   UNL     1       5.327   6.140  15.873  0.00  0.00    +0.000 A 
BRANCH  21  24
ATOM     24  O   UNL     1       6.511   3.641  13.404  0.00  0.00    +0.000 OA
BRANCH  24  25
ATOM     25  C   UNL     1       5.647   3.413  12.303  0.00  0.00    +0.000 C 
ATOM     26  F   UNL     1       5.952   4.156  11.218  0.00  0.00    +0.000 F 
ATOM     27  F   UNL     1       5.650   2.107  11.967  0.00  0.00    +0.000 F 
ATOM     28  F   UNL     1       4.392   3.748  12.682  0.00  0.00    +0.000 F 
ENDBRANCH  24  25
ENDBRANCH  21  24
ENDBRANCH  17  18
ENDBRANCH   1  17
TORSDOF 9
ENDMDL
MODEL 4
REMARK VINA RESULT:      -8.3      2.901      7.710
REMARK  Name = 
REMARK  9 active torsions:
REMARK  status: ('A' for Active; 'I' for Inactive)
REMARK    1  A    between atoms: O_1  and  C_2
REMARK    2  A    between atoms: C_2  and  C_3
REMARK    3  A    between atoms: C_2  and  C_24
REMARK    4  A    between atoms: C_3  and  N_4
REMARK    5  A    between atoms: N_4  and  C_5
REMARK    6  A    between atoms: N_4  and  C_17
REMARK    7  A    between atoms: C_5  and  C_6
REMARK    8  A    between atoms: C_9  and  O_10
REMARK    9  A    between atoms: O_10  and  C_11
REMARK                            x       y       z     vdW  Elec       q    Type
REMARK                         _______ _______ _______ _____ _____    ______ ____
ROOT
ATOM      1  N   UNL     1       3.141   5.912  18.764  0.00  0.00    +0.000 N 
ENDROOT
BRANCH   1   2
ATOM      2  C   UNL     1       2.446   7.115  19.077  0.00  0.00    +0.000 A 
ATOM      3  C   UNL     1       1.953   7.326  20.376  0.00  0.00    +0.000 A 
ATOM      4  C   UNL     1       1.183   8.458  20.701  0.00  0.00    +0.000 A 
ATOM      5  C   UNL     1       0.909   9.413  19.727  0.00  0.00    +0.000 A 
ATOM      6  C   UNL     1       1.417   9.237  18.448  0.00  0.00    +0.000 A 
ATOM      7  F   UNL     1       1.157  10.145  17.506  0.00  0.00    +0.000 F 
ATOM      8  C   UNL     1       2.174   8.111  18.119  0.00  0.00    +0.000 A 
ENDBRANCH   1   2
BRANCH   1   9
ATOM      9  C   UNL     1       2.743   4.737  19.586  0.00  0.00    +0.000 C 
BRANCH   9  10
ATOM     10  C   UNL     1       1.429   4.064  19.170  0.00  0.00    +0.000 C 
BRANCH  10  11
ATOM     11  C   UNL     1       1.751   2.725  18.482  0.00  0.00    +0.000 C 
ATOM     12  F   UNL     1       2.128   2.881  17.191  0.00  0.00    +0.000 F 
ATOM     13  F   UNL     1       2.778   2.111  19.120  0.00  0.00    +0.000 F 
ATOM     14  F   UNL     1       0.707   1.866  18.498  0.00  0.00    +0.000 F 
ENDBRANCH  10  11
BRANCH  10  15
ATOM     15  O   UNL     1       0.548   3.939  20.303  0.00  0.00    +0.000 OA
ATOM     16  H   UNL     1      -0.357   3.882  19.943  0.00  0.00    +0.000 HD
ENDBRANCH  10  15
ENDBRANCH   9  10
ENDBRANCH   1   9
BRANCH   1  17
ATOM     17  C   UNL     1       4.572   6.110  18.410  0.00  0.00    +0.000 C 
BRANCH  17  18
ATOM     18  C   UNL     1       5.004   5.382  17.153  0.00  0.00    +0.000 A 
ATOM     19  C   UNL     1       5.211   4.001  17.152  0.00  0.00    +0.000 A 
ATOM     20  C   UNL     1       5.678   3.360  15.996  0.00  0.00    +0.000 A 
ATOM     21  C   UNL     1       5.949   4.081  14.826  0.00  0.00    +0.000 A 
ATOM     22  C   UNL     1       5.732   5.452  14.818  0.00  0.00    +0.000 A 
ATOM     23  C   UNL     1       5.230   6.087  15.959  0.00  0.00    +0.000 A 
BRANCH  21  24
ATOM     24  O   UNL     1       6.404   3.309  13.802  0.00  0.00    +0.000 OA
BRANCH  24  25
ATOM     25  C   UNL     1       5.823   3.395  12.512  0.00  0.00    +0.000 C 
ATOM     26  F   UNL     1       5.855   2.232  11.829  0.00  0.00    +0.000 F 
ATOM     27  F   UNL     1       4.549   3.829  12.599  0.00  0.00    +0.000 F 
ATOM     28  F   UNL     1       6.529   4.302  11.797  0.00  0.00    +0.000 F 
ENDBRANCH  24  25
ENDBRANCH  21  24
ENDBRANCH  17  18
ENDBRANCH   1  17
TORSDOF 9
ENDMDL
MODEL 5
REMARK VINA RESULT:      -8.2      3.532      5.623
REMARK  Name = 
REMARK  9 active torsions:
REMARK  status: ('A' for Active; 'I' for Inactive)
REMARK    1  A    between atoms: O_1  and  C_2
REMARK    2  A    between atoms: C_2  and  C_3
REMARK    3  A    between atoms: C_2  and  C_24
REMARK    4  A    between atoms: C_3  and  N_4
REMARK    5  A    between atoms: N_4  and  C_5
REMARK    6  A    between atoms: N_4  and  C_17
REMARK    7  A    between atoms: C_5  and  C_6
REMARK    8  A    between atoms: C_9  and  O_10
REMARK    9  A    between atoms: O_10  and  C_11
REMARK                            x       y       z     vdW  Elec       q    Type
REMARK                         _______ _______ _______ _____ _____    ______ ____
ROOT
ATOM      1  N   UNL     1       6.162   5.184  15.788  0.00  0.00    +0.000 N 
ENDROOT
BRANCH   1   2
ATOM      2  C   UNL     1       6.454   4.745  14.466  0.00  0.00    +0.000 A 
ATOM      3  C   UNL     1       7.525   5.312  13.755  0.00  0.00    +0.000 A 
ATOM      4  C   UNL     1       7.789   4.972  12.416  0.00  0.00    +0.000 A 
ATOM      5  C   UNL     1       6.990   4.035  11.769  0.00  0.00    +0.000 A 
ATOM      6  C   UNL     1       5.950   3.438  12.467  0.00  0.00    +0.000 A 
ATOM      7  F   UNL     1       5.176   2.542  11.854  0.00  0.00    +0.000 F 
ATOM      8  C   UNL     1       5.678   3.781  13.793  0.00  0.00    +0.000 A 
ENDBRANCH   1   2
BRANCH   1   9
ATOM      9  C   UNL     1       6.668   4.287  16.863  0.00  0.00    +0.000 C 
BRANCH   9  10
ATOM     10  C   UNL     1       7.801   4.868  17.719  0.00  0.00    +0.000 C 
BRANCH  10  11
ATOM     11  C   UNL     1       7.190   5.571  18.944  0.00  0.00    +0.000 C 
ATOM     12  F   UNL     1       8.093   5.782  19.930  0.00  0.00    +0.000 F 
ATOM     13  F   UNL     1       6.707   6.788  18.588  0.00  0.00    +0.000 F 
ATOM     14  F   UNL     1       6.158   4.880  19.481  0.00  0.00    +0.000 F 
ENDBRANCH  10  11
BRANCH  10  15
ATOM     15  O   UNL     1       8.756   3.842  18.052  0.00  0.00    +0.000 OA
ATOM     16  H   UNL     1       9.175   4.118  18.889  0.00  0.00    +0.000 HD
ENDBRANCH  10  15
ENDBRANCH   9  10
ENDBRANCH   1   9
BRANCH   1  17
ATOM     17  C   UNL     1       4.830   5.828  15.936  0.00  0.00    +0.000 C 
BRANCH  17  18
ATOM     18  C   UNL     1       3.974   5.234  17.038  0.00  0.00    +0.000 A 
ATOM     19  C   UNL     1       3.603   3.888  17.018  0.00  0.00    +0.000 A 
ATOM     20  C   UNL     1       2.754   3.378  18.010  0.00  0.00    +0.000 A 
ATOM     21  C   UNL     1       2.259   4.196  19.033  0.00  0.00    +0.000 A 
ATOM     22  C   UNL     1       2.636   5.532  19.065  0.00  0.00    +0.000 A 
ATOM     23  C   UNL     1       3.514   6.034  18.097  0.00  0.00    +0.000 A 
BRANCH  21  24
ATOM     24  O   UNL     1       1.442   3.547  19.905  0.00  0.00    +0.000 OA
BRANCH  24  25
ATOM     25  C   UNL     1       1.884   3.221  21.212  0.00  0.00    +0.000 C 
ATOM     26  F   UNL     1       2.320   4.288  21.913  0.00  0.00    +0.000 F 
ATOM     27  F   UNL     1       0.900   2.605  21.899  0.00  0.00    +0.000 F 
ATOM     28  F   UNL     1       2.921   2.360  21.099  0.00  0.00    +0.000 F 
ENDBRANCH  24  25
ENDBRANCH  21  24
ENDBRANCH  17  18
ENDBRANCH   1  17
TORSDOF 9
ENDMDL
MODEL 6
REMARK VINA RESULT:      -8.2      1.105      1.478
REMARK  Name = 
REMARK  9 active torsions:
REMARK  status: ('A' for Active; 'I' for Inactive)
REMARK    1  A    between atoms: O_1  and  C_2
REMARK    2  A    between atoms: C_2  and  C_3
REMARK    3  A    between atoms: C_2  and  C_24
REMARK    4  A    between atoms: C_3  and  N_4
REMARK    5  A    between atoms: N_4  and  C_5
REMARK    6  A    between atoms: N_4  and  C_17
REMARK    7  A    between atoms: C_5  and  C_6
REMARK    8  A    between atoms: C_9  and  O_10
REMARK    9  A    between atoms: O_10  and  C_11
REMARK                            x       y       z     vdW  Elec       q    Type
REMARK                         _______ _______ _______ _____ _____    ______ ____
ROOT
ATOM      1  N   UNL     1       3.189   5.562  18.193  0.00  0.00    +0.000 N 
ENDROOT
BRANCH   1   2
ATOM      2  C   UNL     1       4.571   5.312  17.959  0.00  0.00    +0.000 A 
ATOM      3  C   UNL     1       4.987   4.745  16.742  0.00  0.00    +0.000 A 
ATOM      4  C   UNL     1       6.330   4.397  16.508  0.00  0.00    +0.000 A 
ATOM      5  C   UNL     1       7.288   4.632  17.489  0.00  0.00    +0.000 A 
ATOM      6  C   UNL     1       6.900   5.224  18.683  0.00  0.00    +0.000 A 
ATOM      7  F   UNL     1       7.810   5.450  19.632  0.00  0.00    +0.000 F 
ATOM      8  C   UNL     1       5.566   5.561  18.923  0.00  0.00    +0.000 A 
ENDBRANCH   1   2
BRANCH   1   9
ATOM      9  C   UNL     1       2.304   4.384  17.989  0.00  0.00    +0.000 C 
BRANCH   9  10
ATOM     10  C   UNL     1       2.520   3.226  18.972  0.00  0.00    +0.000 C 
BRANCH  10  11
ATOM     11  C   UNL     1       1.708   3.500  20.251  0.00  0.00    +0.000 C 
ATOM     12  F   UNL     1       2.411   4.193  21.176  0.00  0.00    +0.000 F 
ATOM     13  F   UNL     1       0.611   4.241  19.954  0.00  0.00    +0.000 F 
ATOM     14  F   UNL     1       1.268   2.366  20.842  0.00  0.00    +0.000 F 
ENDBRANCH  10  11
BRANCH  10  15
ATOM     15  O   UNL     1       2.210   1.968  18.343  0.00  0.00    +0.000 OA
ATOM     16  H   UNL     1       1.628   2.175  17.587  0.00  0.00    +0.000 HD
ENDBRANCH  10  15
ENDBRANCH   9  10
ENDBRANCH   1   9
BRANCH   1  17
ATOM     17  C   UNL     1       2.731   6.908  17.757  0.00  0.00    +0.000 C 
BRANCH  17  18
ATOM     18  C   UNL     1       2.067   7.721  18.852  0.00  0.00    +0.000 A 
ATOM     19  C   UNL     1       1.479   8.957  18.578  0.00  0.00    +0.000 A 
ATOM     20  C   UNL     1       0.933   9.722  19.618  0.00  0.00    +0.000 A 
ATOM     21  C   UNL     1       0.966   9.273  20.944  0.00  0.00    +0.000 A 
ATOM     22  C   UNL     1       1.538   8.038  21.219  0.00  0.00    +0.000 A 
ATOM     23  C   UNL     1       2.049   7.256  20.177  0.00  0.00    +0.000 A 
BRANCH  21  24
ATOM     24  O   UNL     1       0.404  10.139  21.828  0.00  0.00    +0.000 OA
BRANCH  24  25
ATOM     25  C   UNL     1      -0.384   9.668  22.909  0.00  0.00    +0.000 C 
ATOM     26  F   UNL     1       0.336   9.366  24.009  0.00  0.00    +0.000 F 
ATOM     27  F   UNL     1      -1.331  10.574  23.229  0.00  0.00    +0.000 F 
ATOM     28  F   UNL     1      -1.005   8.534  22.508  0.00  0.00    +0.000 F 
ENDBRANCH  24  25
ENDBRANCH  21  24
ENDBRANCH  17  18
ENDBRANCH   1  17
TORSDOF 9
ENDMDL
MODEL 7
REMARK VINA RESULT:      -8.2      1.506      1.778
REMARK  Name = 
REMARK  9 active torsions:
REMARK  status: ('A' for Active; 'I' for Inactive)
REMARK    1  A    between atoms: O_1  and  C_2
REMARK    2  A    between atoms: C_2  and  C_3
REMARK    3  A    between atoms: C_2  and  C_24
REMARK    4  A    between atoms: C_3  and  N_4
REMARK    5  A    between atoms: N_4  and  C_5
REMARK    6  A    between atoms: N_4  and  C_17
REMARK    7  A    between atoms: C_5  and  C_6
REMARK    8  A    between atoms: C_9  and  O_10
REMARK    9  A    between atoms: O_10  and  C_11
REMARK                            x       y       z     vdW  Elec       q    Type
REMARK                         _______ _______ _______ _____ _____    ______ ____
ROOT
ATOM      1  N   UNL     1       3.845   5.711  18.252  0.00  0.00    +0.000 N 
ENDROOT
BRANCH   1   2
ATOM      2  C   UNL     1       5.227   6.040  18.332  0.00  0.00    +0.000 A 
ATOM      3  C   UNL     1       5.800   6.909  17.388  0.00  0.00    +0.000 A 
ATOM      4  C   UNL     1       7.180   7.186  17.377  0.00  0.00    +0.000 A 
ATOM      5  C   UNL     1       8.010   6.608  18.332  0.00  0.00    +0.000 A 
ATOM      6  C   UNL     1       7.456   5.775  19.292  0.00  0.00    +0.000 A 
ATOM      7  F   UNL     1       8.244   5.212  20.210  0.00  0.00    +0.000 F 
ATOM      8  C   UNL     1       6.089   5.489  19.301  0.00  0.00    +0.000 A 
ENDBRANCH   1   2
BRANCH   1   9
ATOM      9  C   UNL     1       3.567   4.284  17.931  0.00  0.00    +0.000 C 
BRANCH   9  10
ATOM     10  C   UNL     1       2.860   3.491  19.038  0.00  0.00    +0.000 C 
BRANCH  10  11
ATOM     11  C   UNL     1       1.340   3.553  18.802  0.00  0.00    +0.000 C 
ATOM     12  F   UNL     1       1.011   4.267  17.701  0.00  0.00    +0.000 F 
ATOM     13  F   UNL     1       0.848   2.301  18.620  0.00  0.00    +0.000 F 
ATOM     14  F   UNL     1       0.671   4.090  19.848  0.00  0.00    +0.000 F 
ENDBRANCH  10  11
BRANCH  10  15
ATOM     15  O   UNL     1       3.385   2.152  19.110  0.00  0.00    +0.000 OA
ATOM     16  H   UNL     1       3.949   2.035  18.322  0.00  0.00    +0.000 HD
ENDBRANCH  10  15
ENDBRANCH   9  10
ENDBRANCH   1   9
BRANCH   1  17
ATOM     17  C   UNL     1       2.998   6.776  17.653  0.00  0.00    +0.000 C 
BRANCH  17  18
ATOM     18  C   UNL     1       2.232   7.602  18.668  0.00  0.00    +0.000 A 
ATOM     19  C   UNL     1       1.683   8.840  18.326  0.00  0.00    +0.000 A 
ATOM     20  C   UNL     1       1.040   9.617  19.299  0.00  0.00    +0.000 A 
ATOM     21  C   UNL     1       0.935   9.178  20.625  0.00  0.00    +0.000 A 
ATOM     22  C   UNL     1       1.466   7.942  20.966  0.00  0.00    +0.000 A 
ATOM     23  C   UNL     1       2.076   7.149  19.988  0.00  0.00    +0.000 A 
BRANCH  21  24
ATOM     24  O   UNL     1       0.291  10.056  21.441  0.00  0.00    +0.000 OA
BRANCH  24  25
ATOM     25  C   UNL     1      -0.251   9.634  22.681  0.00  0.00    +0.000 C 
ATOM     26  F   UNL     1       0.685   9.382  23.620  0.00  0.00    +0.000 F 
ATOM     27  F   UNL     1      -1.121  10.552  23.150  0.00  0.00    +0.000 F 
ATOM     28  F   UNL     1      -0.930   8.482  22.469  0.00  0.00    +0.000 F 
ENDBRANCH  24  25
ENDBRANCH  21  24
ENDBRANCH  17  18
ENDBRANCH   1  17
TORSDOF 9
ENDMDL
MODEL 8
REMARK VINA RESULT:      -8.2      0.914      1.881
REMARK  Name = 
REMARK  9 active torsions:
REMARK  status: ('A' for Active; 'I' for Inactive)
REMARK    1  A    between atoms: O_1  and  C_2
REMARK    2  A    between atoms: C_2  and  C_3
REMARK    3  A    between atoms: C_2  and  C_24
REMARK    4  A    between atoms: C_3  and  N_4
REMARK    5  A    between atoms: N_4  and  C_5
REMARK    6  A    between atoms: N_4  and  C_17
REMARK    7  A    between atoms: C_5  and  C_6
REMARK    8  A    between atoms: C_9  and  O_10
REMARK    9  A    between atoms: O_10  and  C_11
REMARK                            x       y       z     vdW  Elec       q    Type
REMARK                         _______ _______ _______ _____ _____    ______ ____
ROOT
ATOM      1  N   UNL     1       3.262   5.342  18.302  0.00  0.00    +0.000 N 
ENDROOT
BRANCH   1   2
ATOM      2  C   UNL     1       4.603   5.162  17.858  0.00  0.00    +0.000 A 
ATOM      3  C   UNL     1       4.861   4.505  16.643  0.00  0.00    +0.000 A 
ATOM      4  C   UNL     1       6.172   4.227  16.215  0.00  0.00    +0.000 A 
ATOM      5  C   UNL     1       7.254   4.622  16.994  0.00  0.00    +0.000 A 
ATOM      6  C   UNL     1       7.019   5.303  18.180  0.00  0.00    +0.000 A 
ATOM      7  F   UNL     1       8.050   5.683  18.936  0.00  0.00    +0.000 F 
ATOM      8  C   UNL     1       5.719   5.573  18.614  0.00  0.00    +0.000 A 
ENDBRANCH   1   2
BRANCH   1   9
ATOM      9  C   UNL     1       2.471   4.086  18.401  0.00  0.00    +0.000 C 
BRANCH   9  10
ATOM     10  C   UNL     1       2.481   3.415  19.781  0.00  0.00    +0.000 C 
BRANCH  10  11
ATOM     11  C   UNL     1       1.029   3.249  20.265  0.00  0.00    +0.000 C 
ATOM     12  F   UNL     1       0.944   2.581  21.439  0.00  0.00    +0.000 F 
ATOM     13  F   UNL     1       0.465   4.467  20.465  0.00  0.00    +0.000 F 
ATOM     14  F   UNL     1       0.252   2.597  19.371  0.00  0.00    +0.000 F 
ENDBRANCH  10  11
BRANCH  10  15
ATOM     15  O   UNL     1       3.224   2.182  19.734  0.00  0.00    +0.000 OA
ATOM     16  H   UNL     1       2.566   1.462  19.777  0.00  0.00    +0.000 HD
ENDBRANCH  10  15
ENDBRANCH   9  10
ENDBRANCH   1   9
BRANCH   1  17
ATOM     17  C   UNL     1       2.614   6.581  17.795  0.00  0.00    +0.000 C 
BRANCH  17  18
ATOM     18  C   UNL     1       2.163   7.534  18.884  0.00  0.00    +0.000 A 
ATOM     19  C   UNL     1       2.210   7.167  20.231  0.00  0.00    +0.000 A 
ATOM     20  C   UNL     1       1.722   8.038  21.215  0.00  0.00    +0.000 A 
ATOM     21  C   UNL     1       1.179   9.284  20.876  0.00  0.00    +0.000 A 
ATOM     22  C   UNL     1       1.144   9.659  19.540  0.00  0.00    +0.000 A 
ATOM     23  C   UNL     1       1.664   8.806  18.561  0.00  0.00    +0.000 A 
BRANCH  21  24
ATOM     24  O   UNL     1       0.744   9.999  21.949  0.00  0.00    +0.000 OA
BRANCH  24  25
ATOM     25  C   UNL     1      -0.334   9.535  22.744  0.00  0.00    +0.000 C 
ATOM     26  F   UNL     1      -0.929   8.430  22.252  0.00  0.00    +0.000 F 
ATOM     27  F   UNL     1       0.083   9.297  24.005  0.00  0.00    +0.000 F 
ATOM     28  F   UNL     1      -1.269  10.513  22.789  0.00  0.00    +0.000 F 
ENDBRANCH  24  25
ENDBRANCH  21  24
ENDBRANCH  17  18
ENDBRANCH   1  17
TORSDOF 9
ENDMDL
MODEL 9
REMARK VINA RESULT:      -8.2      2.815      4.585
REMARK  Name = 
REMARK  9 active torsions:
REMARK  status: ('A' for Active; 'I' for Inactive)
REMARK    1  A    between atoms: O_1  and  C_2
REMARK    2  A    between atoms: C_2  and  C_3
REMARK    3  A    between atoms: C_2  and  C_24
REMARK    4  A    between atoms: C_3  and  N_4
REMARK    5  A    between atoms: N_4  and  C_5
REMARK    6  A    between atoms: N_4  and  C_17
REMARK    7  A    between atoms: C_5  and  C_6
REMARK    8  A    between atoms: C_9  and  O_10
REMARK    9  A    between atoms: O_10  and  C_11
REMARK                            x       y       z     vdW  Elec       q    Type
REMARK                         _______ _______ _______ _____ _____    ______ ____
ROOT
ATOM      1  N   UNL     1       3.365   5.571  17.967  0.00  0.00    +0.000 N 
ENDROOT
BRANCH   1   2
ATOM      2  C   UNL     1       2.837   4.267  18.186  0.00  0.00    +0.000 A 
ATOM      3  C   UNL     1       1.480   4.102  18.509  0.00  0.00    +0.000 A 
ATOM      4  C   UNL     1       0.941   2.841  18.823  0.00  0.00    +0.000 A 
ATOM      5  C   UNL     1       1.755   1.713  18.799  0.00  0.00    +0.000 A 
ATOM      6  C   UNL     1       3.090   1.853  18.447  0.00  0.00    +0.000 A 
ATOM      7  F   UNL     1       3.881   0.779  18.424  0.00  0.00    +0.000 F 
ATOM      8  C   UNL     1       3.632   3.105  18.145  0.00  0.00    +0.000 A 
ENDBRANCH   1   2
BRANCH   1   9
ATOM      9  C   UNL     1       4.521   5.620  17.030  0.00  0.00    +0.000 C 
BRANCH   9  10
ATOM     10  C   UNL     1       5.750   6.379  17.548  0.00  0.00    +0.000 C 
BRANCH  10  11
ATOM     11  C   UNL     1       6.709   5.378  18.216  0.00  0.00    +0.000 C 
ATOM     12  F   UNL     1       6.911   4.269  17.467  0.00  0.00    +0.000 F 
ATOM     13  F   UNL     1       7.925   5.953  18.401  0.00  0.00    +0.000 F 
ATOM     14  F   UNL     1       6.276   4.973  19.431  0.00  0.00    +0.000 F 
ENDBRANCH  10  11
BRANCH  10  15
ATOM     15  O   UNL     1       6.352   7.144  16.486  0.00  0.00    +0.000 OA
ATOM     16  H   UNL     1       5.937   6.836  15.657  0.00  0.00    +0.000 HD
ENDBRANCH  10  15
ENDBRANCH   9  10
ENDBRANCH   1   9
BRANCH   1  17
ATOM     17  C   UNL     1       3.361   6.441  19.172  0.00  0.00    +0.000 C 
BRANCH  17  18
ATOM     18  C   UNL     1       2.424   7.629  19.075  0.00  0.00    +0.000 A 
ATOM     19  C   UNL     1       2.274   8.335  17.880  0.00  0.00    +0.000 A 
ATOM     20  C   UNL     1       1.455   9.472  17.832  0.00  0.00    +0.000 A 
ATOM     21  C   UNL     1       0.777   9.926  18.970  0.00  0.00    +0.000 A 
ATOM     22  C   UNL     1       0.911   9.219  20.158  0.00  0.00    +0.000 A 
ATOM     23  C   UNL     1       1.698   8.062  20.197  0.00  0.00    +0.000 A 
BRANCH  21  24
ATOM     24  O   UNL     1       0.035  11.045  18.754  0.00  0.00    +0.000 OA
BRANCH  24  25
ATOM     25  C   UNL     1      -1.353  10.958  18.480  0.00  0.00    +0.000 C 
ATOM     26  F   UNL     1      -1.754   9.721  18.122  0.00  0.00    +0.000 F 
ATOM     27  F   UNL     1      -2.068  11.370  19.547  0.00  0.00    +0.000 F 
ATOM     28  F   UNL     1      -1.626  11.786  17.445  0.00  0.00    +0.000 F 
ENDBRANCH  24  25
ENDBRANCH  21  24
ENDBRANCH  17  18
ENDBRANCH   1  17
TORSDOF 9
ENDMDL
