MODEL 1
REMARK VINA RESULT:      -8.8      0.000      0.000
REMARK  Name = 
REMARK  2 active torsions:
REMARK  status: ('A' for Active; 'I' for Inactive)
REMARK    1  A    between atoms: C_2  and  C_3
REMARK    2  A    between atoms: C_17  and  C_18
REMARK                            x       y       z     vdW  Elec       q    Type
REMARK                         _______ _______ _______ _____ _____    ______ ____
ROOT
ATOM      1  O   UNL     1       3.306   2.126  16.868  0.00  0.00    +0.000 OA
ATOM      2  C   UNL     1       3.178   2.749  17.943  0.00  0.00    +0.000 C 
ATOM      3  N   UNL     1       3.460   4.130  17.894  0.00  0.00    +0.000 N 
ATOM      4  C   UNL     1       4.381   4.332  16.739  0.00  0.00    +0.000 C 
ATOM      5  C   UNL     1       4.680   5.753  16.353  0.00  0.00    +0.000 C 
ATOM      6  C   UNL     1       4.985   6.563  17.594  0.00  0.00    +0.000 C 
ATOM      7  C   UNL     1       4.979   5.757  18.931  0.00  0.00    +0.000 C 
ATOM      8  C   UNL     1       3.521   5.220  18.989  0.00  0.00    +0.000 C 
ATOM      9  C   UNL     1       2.876   6.631  18.691  0.00  0.00    +0.000 A 
ATOM     10  C   UNL     1       1.877   7.400  19.309  0.00  0.00    +0.000 A 
ATOM     11  C   UNL     1       1.659   8.779  18.901  0.00  0.00    +0.000 A 
ATOM     12  C   UNL     1       2.420   9.296  17.839  0.00  0.00    +0.000 A 
ATOM     13  C   UNL     1       3.467   8.597  17.301  0.00  0.00    +0.000 A 
ATOM     14  C   UNL     1       3.722   7.330  17.821  0.00  0.00    +0.000 A 
ENDROOT
BRANCH  11  15
ATOM     15  C   UNL     1       0.749   9.737  19.609  0.00  0.00    +0.000 A 
ATOM     16  C   UNL     1      -0.263  10.457  18.926  0.00  0.00    +0.000 A 
ATOM     17  C   UNL     1      -1.199  11.256  19.613  0.00  0.00    +0.000 A 
ATOM     18  C   UNL     1      -1.120  11.321  20.988  0.00  0.00    +0.000 A 
ATOM     19  C   UNL     1      -0.169  10.617  21.676  0.00  0.00    +0.000 A 
ATOM     20  C   UNL     1       0.763   9.828  21.025  0.00  0.00    +0.000 A 
ATOM     21  O   UNL     1      -0.277  10.780  23.024  0.00  0.00    +0.000 OA
ATOM     22  C   UNL     1      -1.362  11.732  23.097  0.00  0.00    +0.000 C 
ATOM     23  O   UNL     1      -1.936  12.036  21.807  0.00  0.00    +0.000 OA
ENDBRANCH  11  15
BRANCH   2  24
ATOM     24  C   UNL     1       2.924   1.839  19.182  0.00  0.00    +0.000 C 
ATOM     25  C   UNL     1       3.523   2.151  20.555  0.00  0.00    +0.000 C 
ATOM     26  C   UNL     1       2.740   3.073  21.525  0.00  0.00    +0.000 C 
ATOM     27  C   UNL     1       1.220   3.169  21.372  0.00  0.00    +0.000 C 
ATOM     28  C   UNL     1       0.797   3.041  19.927  0.00  0.00    +0.000 C 
ATOM     29  C   UNL     1       1.370   1.730  19.371  0.00  0.00    +0.000 C 
ENDBRANCH   2  24
TORSDOF 2
ENDMDL
MODEL 2
REMARK VINA RESULT:      -8.7      2.652      9.005
REMARK  Name = 
REMARK  2 active torsions:
REMARK  status: ('A' for Active; 'I' for Inactive)
REMARK    1  A    between atoms: C_2  and  C_3
REMARK    2  A    between atoms: C_17  and  C_18
REMARK                            x       y       z     vdW  Elec       q    Type
REMARK                         _______ _______ _______ _____ _____    ______ ____
ROOT
ATOM      1  O   UNL     1       0.268  14.357  21.876  0.00  0.00    +0.000 OA
ATOM      2  C   UNL     1      -0.212  13.211  22.003  0.00  0.00    +0.000 C 
ATOM      3  N   UNL     1       0.038  12.315  20.942  0.00  0.00    +0.000 N 
ATOM      4  C   UNL     1       0.289  13.153  19.733  0.00  0.00    +0.000 C 
ATOM      5  C   UNL     1       0.772  12.438  18.504  0.00  0.00    +0.000 C 
ATOM      6  C   UNL     1      -0.054  11.189  18.285  0.00  0.00    +0.000 C 
ATOM      7  C   UNL     1      -1.210  10.970  19.311  0.00  0.00    +0.000 C 
ATOM      8  C   UNL     1      -0.444  10.873  20.660  0.00  0.00    +0.000 C 
ATOM      9  C   UNL     1       0.598   9.818  20.116  0.00  0.00    +0.000 A 
ATOM     10  C   UNL     1       1.054   8.570  20.570  0.00  0.00    +0.000 A 
ATOM     11  C   UNL     1       1.881   7.738  19.710  0.00  0.00    +0.000 A 
ATOM     12  C   UNL     1       2.264   8.238  18.455  0.00  0.00    +0.000 A 
ATOM     13  C   UNL     1       1.743   9.401  17.957  0.00  0.00    +0.000 A 
ATOM     14  C   UNL     1       0.846  10.095  18.766  0.00  0.00    +0.000 A 
ENDROOT
BRANCH  11  15
ATOM     15  C   UNL     1       2.270   6.324  20.022  0.00  0.00    +0.000 A 
ATOM     16  C   UNL     1       1.433   5.463  20.775  0.00  0.00    +0.000 A 
ATOM     17  C   UNL     1       1.740   4.099  20.954  0.00  0.00    +0.000 A 
ATOM     18  C   UNL     1       2.883   3.602  20.366  0.00  0.00    +0.000 A 
ATOM     19  C   UNL     1       3.697   4.404  19.612  0.00  0.00    +0.000 A 
ATOM     20  C   UNL     1       3.419   5.747  19.423  0.00  0.00    +0.000 A 
ATOM     21  O   UNL     1       4.753   3.724  19.086  0.00  0.00    +0.000 OA
ATOM     22  C   UNL     1       4.548   2.415  19.663  0.00  0.00    +0.000 C 
ATOM     23  O   UNL     1       3.331   2.320  20.433  0.00  0.00    +0.000 OA
ENDBRANCH  11  15
BRANCH   2  24
ATOM     24  C   UNL     1      -1.167  13.049  23.223  0.00  0.00    +0.000 C 
ATOM     25  C   UNL     1      -1.532  14.226  24.130  0.00  0.00    +0.000 C 
ATOM     26  C   UNL     1      -2.748  15.113  23.757  0.00  0.00    +0.000 C 
ATOM     27  C   UNL     1      -3.858  14.503  22.897  0.00  0.00    +0.000 C 
ATOM     28  C   UNL     1      -3.310  13.500  21.910  0.00  0.00    +0.000 C 
ATOM     29  C   UNL     1      -2.512  12.444  22.688  0.00  0.00    +0.000 C 
ENDBRANCH   2  24
TORSDOF 2
ENDMDL
MODEL 3
REMARK VINA RESULT:      -8.5      1.912      4.129
REMARK  Name = 
REMARK  2 active torsions:
REMARK  status: ('A' for Active; 'I' for Inactive)
REMARK    1  A    between atoms: C_2  and  C_3
REMARK    2  A    between atoms: C_17  and  C_18
REMARK                            x       y       z     vdW  Elec       q    Type
REMARK                         _______ _______ _______ _____ _____    ______ ____
ROOT
ATOM      1  O   UNL     1       7.094   4.334  17.899  0.00  0.00    +0.000 OA
ATOM      2  C   UNL     1       6.209   5.079  17.427  0.00  0.00    +0.000 C 
ATOM      3  N   UNL     1       4.968   5.068  18.098  0.00  0.00    +0.000 N 
ATOM      4  C   UNL     1       4.882   3.756  18.803  0.00  0.00    +0.000 C 
ATOM      5  C   UNL     1       3.733   3.574  19.753  0.00  0.00    +0.000 C 
ATOM      6  C   UNL     1       2.456   4.064  19.106  0.00  0.00    +0.000 C 
ATOM      7  C   UNL     1       2.609   4.570  17.637  0.00  0.00    +0.000 C 
ATOM      8  C   UNL     1       3.613   5.746  17.793  0.00  0.00    +0.000 C 
ATOM      9  C   UNL     1       2.814   6.412  18.982  0.00  0.00    +0.000 A 
ATOM     10  C   UNL     1       2.334   7.707  19.235  0.00  0.00    +0.000 A 
ATOM     11  C   UNL     1       1.434   7.947  20.352  0.00  0.00    +0.000 A 
ATOM     12  C   UNL     1       1.114   6.876  21.202  0.00  0.00    +0.000 A 
ATOM     13  C   UNL     1       1.485   5.592  20.909  0.00  0.00    +0.000 A 
ATOM     14  C   UNL     1       2.234   5.395  19.751  0.00  0.00    +0.000 A 
ENDROOT
BRANCH  11  15
ATOM     15  C   UNL     1       0.725   9.245  20.603  0.00  0.00    +0.000 A 
ATOM     16  C   UNL     1       0.165  10.012  19.551  0.00  0.00    +0.000 A 
ATOM     17  C   UNL     1      -0.612  11.161  19.802  0.00  0.00    +0.000 A 
ATOM     18  C   UNL     1      -0.832  11.530  21.111  0.00  0.00    +0.000 A 
ATOM     19  C   UNL     1      -0.326  10.793  22.148  0.00  0.00    +0.000 A 
ATOM     20  C   UNL     1       0.443   9.663  21.929  0.00  0.00    +0.000 A 
ATOM     21  O   UNL     1      -0.682  11.295  23.363  0.00  0.00    +0.000 OA
ATOM     22  C   UNL     1      -1.409  12.479  22.966  0.00  0.00    +0.000 C 
ATOM     23  O   UNL     1      -1.553  12.601  21.535  0.00  0.00    +0.000 OA
ENDBRANCH  11  15
BRANCH   2  24
ATOM     24  C   UNL     1       6.584   5.732  16.062  0.00  0.00    +0.000 C 
ATOM     25  C   UNL     1       7.628   5.117  15.128  0.00  0.00    +0.000 C 
ATOM     26  C   UNL     1       7.176   4.061  14.087  0.00  0.00    +0.000 C 
ATOM     27  C   UNL     1       5.720   4.080  13.615  0.00  0.00    +0.000 C 
ATOM     28  C   UNL     1       4.784   4.520  14.716  0.00  0.00    +0.000 C 
ATOM     29  C   UNL     1       5.259   5.883  15.237  0.00  0.00    +0.000 C 
ENDBRANCH   2  24
TORSDOF 2
ENDMDL
MODEL 4
REMARK VINA RESULT:      -8.4      2.763      8.824
REMARK  Name = 
REMARK  2 active torsions:
REMARK  status: ('A' for Active; 'I' for Inactive)
REMARK    1  A    between atoms: C_2  and  C_3
REMARK    2  A    between atoms: C_17  and  C_18
REMARK                            x       y       z     vdW  Elec       q    Type
REMARK                         _______ _______ _______ _____ _____    ______ ____
ROOT
ATOM      1  O   UNL     1       0.155  14.371  21.982  0.00  0.00    +0.000 OA
ATOM      2  C   UNL     1      -0.289  13.204  22.037  0.00  0.00    +0.000 C 
ATOM      3  N   UNL     1      -0.023  12.388  20.918  0.00  0.00    +0.000 N 
ATOM      4  C   UNL     1       0.191  13.309  19.765  0.00  0.00    +0.000 C 
ATOM      5  C   UNL     1       0.683  12.691  18.488  0.00  0.00    +0.000 C 
ATOM      6  C   UNL     1      -0.108  11.434  18.195  0.00  0.00    +0.000 C 
ATOM      7  C   UNL     1      -1.246  11.113  19.213  0.00  0.00    +0.000 C 
ATOM      8  C   UNL     1      -0.464  10.953  20.547  0.00  0.00    +0.000 C 
ATOM      9  C   UNL     1       0.603   9.968  19.927  0.00  0.00    +0.000 A 
ATOM     10  C   UNL     1       1.101   8.707  20.295  0.00  0.00    +0.000 A 
ATOM     11  C   UNL     1       1.943   7.958  19.376  0.00  0.00    +0.000 A 
ATOM     12  C   UNL     1       2.299   8.550  18.153  0.00  0.00    +0.000 A 
ATOM     13  C   UNL     1       1.738   9.727  17.736  0.00  0.00    +0.000 A 
ATOM     14  C   UNL     1       0.829  10.339  18.596  0.00  0.00    +0.000 A 
ENDROOT
BRANCH  11  15
ATOM     15  C   UNL     1       2.378   6.539  19.591  0.00  0.00    +0.000 A 
ATOM     16  C   UNL     1       3.542   6.009  18.980  0.00  0.00    +0.000 A 
ATOM     17  C   UNL     1       4.018   4.718  19.287  0.00  0.00    +0.000 A 
ATOM     18  C   UNL     1       3.328   3.968  20.214  0.00  0.00    +0.000 A 
ATOM     19  C   UNL     1       2.216   4.465  20.839  0.00  0.00    +0.000 A 
ATOM     20  C   UNL     1       1.726   5.727  20.554  0.00  0.00    +0.000 A 
ATOM     21  O   UNL     1       1.698   3.591  21.747  0.00  0.00    +0.000 OA
ATOM     22  C   UNL     1       2.573   2.456  21.563  0.00  0.00    +0.000 C 
ATOM     23  O   UNL     1       3.643   2.712  20.629  0.00  0.00    +0.000 OA
ENDBRANCH  11  15
BRANCH   2  24
ATOM     24  C   UNL     1      -1.226  12.934  23.253  0.00  0.00    +0.000 C 
ATOM     25  C   UNL     1      -1.752  14.065  24.139  0.00  0.00    +0.000 C 
ATOM     26  C   UNL     1      -3.070  14.778  23.743  0.00  0.00    +0.000 C 
ATOM     27  C   UNL     1      -4.082  14.016  22.884  0.00  0.00    +0.000 C 
ATOM     28  C   UNL     1      -3.397  13.081  21.916  0.00  0.00    +0.000 C 
ATOM     29  C   UNL     1      -2.474  12.151  22.715  0.00  0.00    +0.000 C 
ENDBRANCH   2  24
TORSDOF 2
ENDMDL
MODEL 5
REMARK VINA RESULT:      -8.4      0.685      1.393
REMARK  Name = 
REMARK  2 active torsions:
REMARK  status: ('A' for Active; 'I' for Inactive)
REMARK    1  A    between atoms: C_2  and  C_3
REMARK    2  A    between atoms: C_17  and  C_18
REMARK                            x       y       z     vdW  Elec       q    Type
REMARK                         _______ _______ _______ _____ _____    ______ ____
ROOT
ATOM      1  O   UNL     1       3.455   2.215  16.851  0.00  0.00    +0.000 OA
ATOM      2  C   UNL     1       3.294   2.813  17.936  0.00  0.00    +0.000 C 
ATOM      3  N   UNL     1       3.515   4.206  17.913  0.00  0.00    +0.000 N 
ATOM      4  C   UNL     1       4.432   4.469  16.767  0.00  0.00    +0.000 C 
ATOM      5  C   UNL     1       4.670   5.908  16.408  0.00  0.00    +0.000 C 
ATOM      6  C   UNL     1       4.933   6.709  17.665  0.00  0.00    +0.000 C 
ATOM      7  C   UNL     1       4.955   5.879  18.987  0.00  0.00    +0.000 C 
ATOM      8  C   UNL     1       3.522   5.279  19.027  0.00  0.00    +0.000 C 
ATOM      9  C   UNL     1       2.817   6.665  18.750  0.00  0.00    +0.000 A 
ATOM     10  C   UNL     1       1.781   7.377  19.374  0.00  0.00    +0.000 A 
ATOM     11  C   UNL     1       1.505   8.753  18.989  0.00  0.00    +0.000 A 
ATOM     12  C   UNL     1       2.248   9.321  17.941  0.00  0.00    +0.000 A 
ATOM     13  C   UNL     1       3.328   8.679  17.398  0.00  0.00    +0.000 A 
ATOM     14  C   UNL     1       3.635   7.416  17.897  0.00  0.00    +0.000 A 
ENDROOT
BRANCH  11  15
ATOM     15  C   UNL     1       0.550   9.658  19.708  0.00  0.00    +0.000 A 
ATOM     16  C   UNL     1       0.688   9.953  21.087  0.00  0.00    +0.000 A 
ATOM     17  C   UNL     1      -0.131  10.904  21.729  0.00  0.00    +0.000 A 
ATOM     18  C   UNL     1      -1.081  11.563  20.979  0.00  0.00    +0.000 A 
ATOM     19  C   UNL     1      -1.219  11.317  19.639  0.00  0.00    +0.000 A 
ATOM     20  C   UNL     1      -0.430  10.386  18.986  0.00  0.00    +0.000 A 
ATOM     21  O   UNL     1      -2.183  12.092  19.067  0.00  0.00    +0.000 OA
ATOM     22  C   UNL     1      -2.685  12.799  20.222  0.00  0.00    +0.000 C 
ATOM     23  O   UNL     1      -1.951  12.506  21.429  0.00  0.00    +0.000 OA
ENDBRANCH  11  15
BRANCH   2  24
ATOM     24  C   UNL     1       3.073   1.872  19.158  0.00  0.00    +0.000 C 
ATOM     25  C   UNL     1       3.617   2.205  20.549  0.00  0.00    +0.000 C 
ATOM     26  C   UNL     1       2.750   3.058  21.510  0.00  0.00    +0.000 C 
ATOM     27  C   UNL     1       1.231   3.052  21.320  0.00  0.00    +0.000 C 
ATOM     28  C   UNL     1       0.852   2.915  19.864  0.00  0.00    +0.000 C 
ATOM     29  C   UNL     1       1.527   1.654  19.307  0.00  0.00    +0.000 C 
ENDBRANCH   2  24
TORSDOF 2
ENDMDL
MODEL 6
REMARK VINA RESULT:      -7.9      1.988      4.153
REMARK  Name = 
REMARK  2 active torsions:
REMARK  status: ('A' for Active; 'I' for Inactive)
REMARK    1  A    between atoms: C_2  and  C_3
REMARK    2  A    between atoms: C_17  and  C_18
REMARK                            x       y       z     vdW  Elec       q    Type
REMARK                         _______ _______ _______ _____ _____    ______ ____
ROOT
ATOM      1  O   UNL     1       5.675   3.360  19.609  0.00  0.00    +0.000 OA
ATOM      2  C   UNL     1       5.067   4.117  18.824  0.00  0.00    +0.000 C 
ATOM      3  N   UNL     1       3.864   4.673  19.309  0.00  0.00    +0.000 N 
ATOM      4  C   UNL     1       3.372   3.751  20.373  0.00  0.00    +0.000 C 
ATOM      5  C   UNL     1       2.199   4.220  21.185  0.00  0.00    +0.000 C 
ATOM      6  C   UNL     1       1.143   4.797  20.266  0.00  0.00    +0.000 C 
ATOM      7  C   UNL     1       1.476   4.721  18.743  0.00  0.00    +0.000 C 
ATOM      8  C   UNL     1       2.783   5.557  18.645  0.00  0.00    +0.000 C 
ATOM      9  C   UNL     1       2.192   6.774  19.461  0.00  0.00    +0.000 A 
ATOM     10  C   UNL     1       2.118   8.158  19.236  0.00  0.00    +0.000 A 
ATOM     11  C   UNL     1       1.305   8.996  20.104  0.00  0.00    +0.000 A 
ATOM     12  C   UNL     1       0.658   8.403  21.201  0.00  0.00    +0.000 A 
ATOM     13  C   UNL     1       0.634   7.045  21.370  0.00  0.00    +0.000 A 
ATOM     14  C   UNL     1       1.316   6.274  20.432  0.00  0.00    +0.000 A 
ENDROOT
BRANCH  11  15
ATOM     15  C   UNL     1       1.013  10.444  19.850  0.00  0.00    +0.000 A 
ATOM     16  C   UNL     1       1.590  11.148  18.763  0.00  0.00    +0.000 A 
ATOM     17  C   UNL     1       1.213  12.470  18.451  0.00  0.00    +0.000 A 
ATOM     18  C   UNL     1       0.250  13.077  19.227  0.00  0.00    +0.000 A 
ATOM     19  C   UNL     1      -0.343  12.413  20.267  0.00  0.00    +0.000 A 
ATOM     20  C   UNL     1       0.011  11.116  20.596  0.00  0.00    +0.000 A 
ATOM     21  O   UNL     1      -1.294  13.165  20.888  0.00  0.00    +0.000 OA
ATOM     22  C   UNL     1      -1.174  14.409  20.162  0.00  0.00    +0.000 C 
ATOM     23  O   UNL     1      -0.233  14.339  19.070  0.00  0.00    +0.000 OA
ENDBRANCH  11  15
BRANCH   2  24
ATOM     24  C   UNL     1       5.653   4.146  17.381  0.00  0.00    +0.000 C 
ATOM     25  C   UNL     1       4.982   4.925  16.247  0.00  0.00    +0.000 C 
ATOM     26  C   UNL     1       5.352   6.416  16.038  0.00  0.00    +0.000 C 
ATOM     27  C   UNL     1       6.718   6.903  16.527  0.00  0.00    +0.000 C 
ATOM     28  C   UNL     1       7.155   6.173  17.774  0.00  0.00    +0.000 C 
ATOM     29  C   UNL     1       7.129   4.666  17.486  0.00  0.00    +0.000 C 
ENDBRANCH   2  24
TORSDOF 2
ENDMDL
MODEL 7
REMARK VINA RESULT:      -7.8      2.145      4.460
REMARK  Name = 
REMARK  2 active torsions:
REMARK  status: ('A' for Active; 'I' for Inactive)
REMARK    1  A    between atoms: C_2  and  C_3
REMARK    2  A    between atoms: C_17  and  C_18
REMARK                            x       y       z     vdW  Elec       q    Type
REMARK                         _______ _______ _______ _____ _____    ______ ____
ROOT
ATOM      1  O   UNL     1       7.252   4.372  17.406  0.00  0.00    +0.000 OA
ATOM      2  C   UNL     1       6.293   5.067  17.008  0.00  0.00    +0.000 C 
ATOM      3  N   UNL     1       5.112   4.987  17.775  0.00  0.00    +0.000 N 
ATOM      4  C   UNL     1       5.154   3.674  18.480  0.00  0.00    +0.000 C 
ATOM      5  C   UNL     1       4.096   3.429  19.516  0.00  0.00    +0.000 C 
ATOM      6  C   UNL     1       2.746   3.846  18.973  0.00  0.00    +0.000 C 
ATOM      7  C   UNL     1       2.754   4.359  17.499  0.00  0.00    +0.000 C 
ATOM      8  C   UNL     1       3.701   5.590  17.580  0.00  0.00    +0.000 C 
ATOM      9  C   UNL     1       2.962   6.211  18.831  0.00  0.00    +0.000 A 
ATOM     10  C   UNL     1       2.433   7.477  19.125  0.00  0.00    +0.000 A 
ATOM     11  C   UNL     1       1.612   7.669  20.310  0.00  0.00    +0.000 A 
ATOM     12  C   UNL     1       1.420   6.582  21.179  0.00  0.00    +0.000 A 
ATOM     13  C   UNL     1       1.837   5.320  20.853  0.00  0.00    +0.000 A 
ATOM     14  C   UNL     1       2.502   5.164  19.639  0.00  0.00    +0.000 A 
ENDROOT
BRANCH  11  15
ATOM     15  C   UNL     1       0.855   8.925  20.622  0.00  0.00    +0.000 A 
ATOM     16  C   UNL     1       0.346   9.194  21.917  0.00  0.00    +0.000 A 
ATOM     17  C   UNL     1      -0.250  10.430  22.238  0.00  0.00    +0.000 A 
ATOM     18  C   UNL     1      -0.323  11.397  21.259  0.00  0.00    +0.000 A 
ATOM     19  C   UNL     1       0.184  11.174  20.006  0.00  0.00    +0.000 A 
ATOM     20  C   UNL     1       0.770   9.968  19.664  0.00  0.00    +0.000 A 
ATOM     21  O   UNL     1       0.051  12.259  19.193  0.00  0.00    +0.000 OA
ATOM     22  C   UNL     1      -0.669  13.163  20.060  0.00  0.00    +0.000 C 
ATOM     23  O   UNL     1      -0.859  12.639  21.392  0.00  0.00    +0.000 OA
ENDBRANCH  11  15
BRANCH   2  24
ATOM     24  C   UNL     1       6.523   5.738  15.621  0.00  0.00    +0.000 C 
ATOM     25  C   UNL     1       7.641   5.290  14.677  0.00  0.00    +0.000 C 
ATOM     26  C   UNL     1       7.360   4.145  13.671  0.00  0.00    +0.000 C 
ATOM     27  C   UNL     1       5.915   3.897  13.233  0.00  0.00    +0.000 C 
ATOM     28  C   UNL     1       4.937   4.197  14.344  0.00  0.00    +0.000 C 
ATOM     29  C   UNL     1       5.176   5.635  14.823  0.00  0.00    +0.000 C 
ENDBRANCH   2  24
TORSDOF 2
ENDMDL
MODEL 8
REMARK VINA RESULT:      -7.8      2.663      8.988
REMARK  Name = 
REMARK  2 active torsions:
REMARK  status: ('A' for Active; 'I' for Inactive)
REMARK    1  A    between atoms: C_2  and  C_3
REMARK    2  A    between atoms: C_17  and  C_18
REMARK                            x       y       z     vdW  Elec       q    Type
REMARK                         _______ _______ _______ _____ _____    ______ ____
ROOT
ATOM      1  O   UNL     1      -1.779  11.684  19.526  0.00  0.00    +0.000 OA
ATOM      2  C   UNL     1      -0.560  11.546  19.293  0.00  0.00    +0.000 C 
ATOM      3  N   UNL     1       0.040  10.378  19.809  0.00  0.00    +0.000 N 
ATOM      4  C   UNL     1      -0.800   9.948  20.964  0.00  0.00    +0.000 C 
ATOM      5  C   UNL     1      -0.480   8.612  21.570  0.00  0.00    +0.000 C 
ATOM      6  C   UNL     1       1.017   8.482  21.754  0.00  0.00    +0.000 C 
ATOM      7  C   UNL     1       1.847   9.738  21.343  0.00  0.00    +0.000 C 
ATOM      8  C   UNL     1       1.505   9.884  19.834  0.00  0.00    +0.000 C 
ATOM      9  C   UNL     1       1.798   8.365  19.511  0.00  0.00    +0.000 A 
ATOM     10  C   UNL     1       2.582   7.703  18.553  0.00  0.00    +0.000 A 
ATOM     11  C   UNL     1       2.809   6.270  18.659  0.00  0.00    +0.000 A 
ATOM     12  C   UNL     1       2.175   5.562  19.694  0.00  0.00    +0.000 A 
ATOM     13  C   UNL     1       1.498   6.207  20.694  0.00  0.00    +0.000 A 
ATOM     14  C   UNL     1       1.425   7.596  20.620  0.00  0.00    +0.000 A 
ENDROOT
BRANCH  11  15
ATOM     15  C   UNL     1       3.767   5.499  17.802  0.00  0.00    +0.000 A 
ATOM     16  C   UNL     1       3.613   4.110  17.565  0.00  0.00    +0.000 A 
ATOM     17  C   UNL     1       4.437   3.416  16.656  0.00  0.00    +0.000 A 
ATOM     18  C   UNL     1       5.409   4.123  15.981  0.00  0.00    +0.000 A 
ATOM     19  C   UNL     1       5.564   5.470  16.171  0.00  0.00    +0.000 A 
ATOM     20  C   UNL     1       4.770   6.174  17.060  0.00  0.00    +0.000 A 
ATOM     21  O   UNL     1       6.548   5.994  15.389  0.00  0.00    +0.000 OA
ATOM     22  C   UNL     1       7.044   4.802  14.740  0.00  0.00    +0.000 C 
ATOM     23  O   UNL     1       6.286   3.619  15.073  0.00  0.00    +0.000 OA
ENDBRANCH  11  15
BRANCH   2  24
ATOM     24  C   UNL     1       0.112  12.794  18.644  0.00  0.00    +0.000 C 
ATOM     25  C   UNL     1      -0.570  14.163  18.621  0.00  0.00    +0.000 C 
ATOM     26  C   UNL     1      -0.365  15.125  19.819  0.00  0.00    +0.000 C 
ATOM     27  C   UNL     1       0.901  14.973  20.667  0.00  0.00    +0.000 C 
ATOM     28  C   UNL     1       1.338  13.530  20.759  0.00  0.00    +0.000 C 
ATOM     29  C   UNL     1       1.507  12.985  19.334  0.00  0.00    +0.000 C 
ENDBRANCH   2  24
TORSDOF 2
ENDMDL
MODEL 9
REMARK VINA RESULT:      -7.8      2.379      4.422
REMARK  Name = 
REMARK  2 active torsions:
REMARK  status: ('A' for Active; 'I' for Inactive)
REMARK    1  A    between atoms: C_2  and  C_3
REMARK    2  A    between atoms: C_17  and  C_18
REMARK                            x       y       z     vdW  Elec       q    Type
REMARK                         _______ _______ _______ _____ _____    ______ ____
ROOT
ATOM      1  O   UNL     1       5.693   3.349  19.599  0.00  0.00    +0.000 OA
ATOM      2  C   UNL     1       5.103   4.133  18.826  0.00  0.00    +0.000 C 
ATOM      3  N   UNL     1       3.884   4.666  19.296  0.00  0.00    +0.000 N 
ATOM      4  C   UNL     1       3.366   3.702  20.310  0.00  0.00    +0.000 C 
ATOM      5  C   UNL     1       2.168   4.137  21.105  0.00  0.00    +0.000 C 
ATOM      6  C   UNL     1       1.136   4.743  20.178  0.00  0.00    +0.000 C 
ATOM      7  C   UNL     1       1.513   4.724  18.663  0.00  0.00    +0.000 C 
ATOM      8  C   UNL     1       2.818   5.569  18.634  0.00  0.00    +0.000 C 
ATOM      9  C   UNL     1       2.198   6.752  19.477  0.00  0.00    +0.000 A 
ATOM     10  C   UNL     1       2.123   8.143  19.301  0.00  0.00    +0.000 A 
ATOM     11  C   UNL     1       1.281   8.945  20.175  0.00  0.00    +0.000 A 
ATOM     12  C   UNL     1       0.606   8.309  21.231  0.00  0.00    +0.000 A 
ATOM     13  C   UNL     1       0.584   6.946  21.349  0.00  0.00    +0.000 A 
ATOM     14  C   UNL     1       1.297   6.213  20.403  0.00  0.00    +0.000 A 
ENDROOT
BRANCH  11  15
ATOM     15  C   UNL     1       0.989  10.401  19.967  0.00  0.00    +0.000 A 
ATOM     16  C   UNL     1       0.071  11.108  20.783  0.00  0.00    +0.000 A 
ATOM     17  C   UNL     1      -0.104  12.502  20.670  0.00  0.00    +0.000 A 
ATOM     18  C   UNL     1       0.653  13.183  19.741  0.00  0.00    +0.000 A 
ATOM     19  C   UNL     1       1.566  12.531  18.957  0.00  0.00    +0.000 A 
ATOM     20  C   UNL     1       1.754  11.162  19.047  0.00  0.00    +0.000 A 
ATOM     21  O   UNL     1       2.240  13.379  18.131  0.00  0.00    +0.000 OA
ATOM     22  C   UNL     1       1.588  14.631  18.436  0.00  0.00    +0.000 C 
ATOM     23  O   UNL     1       0.617  14.520  19.498  0.00  0.00    +0.000 OA
ENDBRANCH  11  15
BRANCH   2  24
ATOM     24  C   UNL     1       5.730   4.218  17.402  0.00  0.00    +0.000 C 
ATOM     25  C   UNL     1       5.181   5.159  16.328  0.00  0.00    +0.000 C 
ATOM     26  C   UNL     1       5.718   6.612  16.256  0.00  0.00    +0.000 C 
ATOM     27  C   UNL     1       7.115   6.901  16.811  0.00  0.00    +0.000 C 
ATOM     28  C   UNL     1       7.434   6.024  17.999  0.00  0.00    +0.000 C 
ATOM     29  C   UNL     1       7.251   4.559  17.580  0.00  0.00    +0.000 C 
ENDBRANCH   2  24
TORSDOF 2
ENDMDL
