MODEL 1
REMARK VINA RESULT:      -7.9      0.000      0.000
REMARK  Name = 
REMARK  7 active torsions:
REMARK  status: ('A' for Active; 'I' for Inactive)
REMARK    1  A    between atoms: C_1  and  O_2
REMARK    2  A    between atoms: O_2  and  C_3
REMARK    3  A    between atoms: C_6  and  C_7
REMARK    4  A    between atoms: C_7  and  C_8
REMARK    5  A    between atoms: N_9  and  N_10
REMARK    6  A    between atoms: C_11  and  C_13
REMARK    7  A    between atoms: C_20  and  N_21
REMARK                            x       y       z     vdW  Elec       q    Type
REMARK                         _______ _______ _______ _____ _____    ______ ____
ROOT
ATOM      1  C   UNL     1       2.741   5.853  19.647  0.00  0.00    +0.000 C 
ATOM      2  C   UNL     1       2.098   5.043  20.756  0.00  0.00    +0.000 C 
ATOM      3  N   UNL     1       2.625   7.145  19.549  0.00  0.00    +0.000 NA
ENDROOT
BRANCH   1   7
ATOM      4  C   UNL     1       5.171   3.965  16.605  0.00  0.00    +0.000 A 
ATOM      5  C   UNL     1       3.809   3.653  16.728  0.00  0.00    +0.000 A 
ATOM      6  C   UNL     1       3.008   4.258  17.701  0.00  0.00    +0.000 A 
ATOM      7  C   UNL     1       3.569   5.144  18.619  0.00  0.00    +0.000 A 
ATOM      8  C   UNL     1       4.945   5.407  18.560  0.00  0.00    +0.000 A 
ATOM      9  C   UNL     1       5.751   4.816  17.564  0.00  0.00    +0.000 A 
BRANCH   9  10
ATOM     10  N   UNL     1       7.191   5.144  17.573  0.00  0.00    +0.000 N 
ATOM     11  O   UNL     1       7.593   6.119  16.927  0.00  0.00    +0.000 OA
ATOM     12  O   UNL     1       7.939   4.403  18.229  0.00  0.00    +0.000 OA
ENDBRANCH   9  10
BRANCH   4  14
ATOM     13  C   UNL     1       5.841   4.172  14.340  0.00  0.00    +0.000 C 
ATOM     14  O   UNL     1       5.906   3.446  15.572  0.00  0.00    +0.000 OA
ENDBRANCH   4  14
ENDBRANCH   1   7
BRANCH   3  15
ATOM     15  N   UNL     1       1.877   7.826  20.463  0.00  0.00    +0.000 N 
ATOM     16  C   UNL     1       1.258   9.012  20.097  0.00  0.00    +0.000 C 
ATOM     17  O   UNL     1       1.307   9.522  18.976  0.00  0.00    +0.000 OA
ATOM     18  H   UNL     1       1.682   7.404  21.360  0.00  0.00    +0.000 HD
BRANCH  16  19
ATOM     19  C   UNL     1       0.451   9.682  21.152  0.00  0.00    +0.000 A 
ATOM     20  C   UNL     1      -0.291  10.838  20.908  0.00  0.00    +0.000 A 
ATOM     21  C   UNL     1      -1.016  11.377  21.958  0.00  0.00    +0.000 A 
ATOM     22  N   UNL     1      -1.044  10.849  23.200  0.00  0.00    +0.000 NA
ATOM     23  C   UNL     1      -0.334   9.719  23.403  0.00  0.00    +0.000 A 
ATOM     24  C   UNL     1       0.417   9.102  22.422  0.00  0.00    +0.000 A 
ENDBRANCH  16  19
ENDBRANCH   3  15
TORSDOF 5
ENDMDL
MODEL 2
REMARK VINA RESULT:      -7.8      0.133      1.181
REMARK  Name = 
REMARK  7 active torsions:
REMARK  status: ('A' for Active; 'I' for Inactive)
REMARK    1  A    between atoms: C_1  and  O_2
REMARK    2  A    between atoms: O_2  and  C_3
REMARK    3  A    between atoms: C_6  and  C_7
REMARK    4  A    between atoms: C_7  and  C_8
REMARK    5  A    between atoms: N_9  and  N_10
REMARK    6  A    between atoms: C_11  and  C_13
REMARK    7  A    between atoms: C_20  and  N_21
REMARK                            x       y       z     vdW  Elec       q    Type
REMARK                         _______ _______ _______ _____ _____    ______ ____
ROOT
ATOM      1  C   UNL     1       2.697   5.855  19.653  0.00  0.00    +0.000 C 
ATOM      2  C   UNL     1       2.036   5.038  20.745  0.00  0.00    +0.000 C 
ATOM      3  N   UNL     1       2.572   7.147  19.554  0.00  0.00    +0.000 NA
ENDROOT
BRANCH   1   7
ATOM      4  C   UNL     1       5.212   3.994  16.664  0.00  0.00    +0.000 A 
ATOM      5  C   UNL     1       3.852   3.664  16.761  0.00  0.00    +0.000 A 
ATOM      6  C   UNL     1       3.024   4.260  17.716  0.00  0.00    +0.000 A 
ATOM      7  C   UNL     1       3.555   5.156  18.643  0.00  0.00    +0.000 A 
ATOM      8  C   UNL     1       4.928   5.436  18.610  0.00  0.00    +0.000 A 
ATOM      9  C   UNL     1       5.762   4.854  17.632  0.00  0.00    +0.000 A 
BRANCH   9  10
ATOM     10  N   UNL     1       7.196   5.202  17.668  0.00  0.00    +0.000 N 
ATOM     11  O   UNL     1       7.978   4.477  18.295  0.00  0.00    +0.000 OA
ATOM     12  O   UNL     1       7.547   6.231  17.069  0.00  0.00    +0.000 OA
ENDBRANCH   9  10
BRANCH   4  14
ATOM     13  C   UNL     1       5.927   4.207  14.413  0.00  0.00    +0.000 C 
ATOM     14  O   UNL     1       5.974   3.482  15.647  0.00  0.00    +0.000 OA
ENDBRANCH   4  14
ENDBRANCH   1   7
BRANCH   3  15
ATOM     15  N   UNL     1       1.797   7.819  20.451  0.00  0.00    +0.000 N 
ATOM     16  C   UNL     1       1.220   9.027  20.089  0.00  0.00    +0.000 C 
ATOM     17  O   UNL     1       1.329   9.564  18.986  0.00  0.00    +0.000 OA
ATOM     18  H   UNL     1       1.554   7.379  21.327  0.00  0.00    +0.000 HD
BRANCH  16  19
ATOM     19  C   UNL     1       0.379   9.687  21.125  0.00  0.00    +0.000 A 
ATOM     20  C   UNL     1       0.282   9.204  22.431  0.00  0.00    +0.000 A 
ATOM     21  C   UNL     1      -0.521   9.899  23.321  0.00  0.00    +0.000 A 
ATOM     22  N   UNL     1      -1.212  11.011  22.997  0.00  0.00    +0.000 NA
ATOM     23  C   UNL     1      -1.083  11.469  21.733  0.00  0.00    +0.000 A 
ATOM     24  C   UNL     1      -0.305  10.852  20.773  0.00  0.00    +0.000 A 
ENDBRANCH  16  19
ENDBRANCH   3  15
TORSDOF 5
ENDMDL
MODEL 3
REMARK VINA RESULT:      -7.1      2.925      3.960
REMARK  Name = 
REMARK  7 active torsions:
REMARK  status: ('A' for Active; 'I' for Inactive)
REMARK    1  A    between atoms: C_1  and  O_2
REMARK    2  A    between atoms: O_2  and  C_3
REMARK    3  A    between atoms: C_6  and  C_7
REMARK    4  A    between atoms: C_7  and  C_8
REMARK    5  A    between atoms: N_9  and  N_10
REMARK    6  A    between atoms: C_11  and  C_13
REMARK    7  A    between atoms: C_20  and  N_21
REMARK                            x       y       z     vdW  Elec       q    Type
REMARK                         _______ _______ _______ _____ _____    ______ ____
ROOT
ATOM      1  C   UNL     1       1.936   7.880  19.532  0.00  0.00    +0.000 C 
ATOM      2  C   UNL     1       1.999   8.800  18.330  0.00  0.00    +0.000 C 
ATOM      3  N   UNL     1       1.431   8.236  20.677  0.00  0.00    +0.000 NA
ENDROOT
BRANCH   1   7
ATOM      4  C   UNL     1       3.511   3.855  19.323  0.00  0.00    +0.000 A 
ATOM      5  C   UNL     1       3.918   4.831  18.402  0.00  0.00    +0.000 A 
ATOM      6  C   UNL     1       3.424   6.138  18.458  0.00  0.00    +0.000 A 
ATOM      7  C   UNL     1       2.457   6.481  19.403  0.00  0.00    +0.000 A 
ATOM      8  C   UNL     1       1.982   5.497  20.281  0.00  0.00    +0.000 A 
ATOM      9  C   UNL     1       2.496   4.184  20.242  0.00  0.00    +0.000 A 
BRANCH   9  10
ATOM     10  N   UNL     1       1.940   3.208  21.200  0.00  0.00    +0.000 N 
ATOM     11  O   UNL     1       2.521   3.018  22.275  0.00  0.00    +0.000 OA
ATOM     12  O   UNL     1       0.907   2.607  20.865  0.00  0.00    +0.000 OA
ENDBRANCH   9  10
BRANCH   4  14
ATOM     13  C   UNL     1       3.526   1.668  18.408  0.00  0.00    +0.000 C 
ATOM     14  O   UNL     1       4.095   2.616  19.318  0.00  0.00    +0.000 OA
ENDBRANCH   4  14
ENDBRANCH   1   7
BRANCH   3  15
ATOM     15  N   UNL     1       0.949   9.502  20.836  0.00  0.00    +0.000 N 
ATOM     16  C   UNL     1      -0.057   9.742  21.760  0.00  0.00    +0.000 C 
ATOM     17  O   UNL     1      -0.565   8.892  22.493  0.00  0.00    +0.000 OA
ATOM     18  H   UNL     1       1.406  10.271  20.367  0.00  0.00    +0.000 HD
BRANCH  16  19
ATOM     19  C   UNL     1      -0.515  11.154  21.877  0.00  0.00    +0.000 A 
ATOM     20  C   UNL     1      -0.236  12.115  20.905  0.00  0.00    +0.000 A 
ATOM     21  C   UNL     1      -0.717  13.398  21.106  0.00  0.00    +0.000 A 
ATOM     22  N   UNL     1      -1.436  13.770  22.186  0.00  0.00    +0.000 NA
ATOM     23  C   UNL     1      -1.710  12.815  23.100  0.00  0.00    +0.000 A 
ATOM     24  C   UNL     1      -1.280  11.506  22.990  0.00  0.00    +0.000 A 
ENDBRANCH  16  19
ENDBRANCH   3  15
TORSDOF 5
ENDMDL
MODEL 4
REMARK VINA RESULT:      -7.1      2.911      3.964
REMARK  Name = 
REMARK  7 active torsions:
REMARK  status: ('A' for Active; 'I' for Inactive)
REMARK    1  A    between atoms: C_1  and  O_2
REMARK    2  A    between atoms: O_2  and  C_3
REMARK    3  A    between atoms: C_6  and  C_7
REMARK    4  A    between atoms: C_7  and  C_8
REMARK    5  A    between atoms: N_9  and  N_10
REMARK    6  A    between atoms: C_11  and  C_13
REMARK    7  A    between atoms: C_20  and  N_21
REMARK                            x       y       z     vdW  Elec       q    Type
REMARK                         _______ _______ _______ _____ _____    ______ ____
ROOT
ATOM      1  C   UNL     1       1.977   7.812  19.476  0.00  0.00    +0.000 C 
ATOM      2  C   UNL     1       2.063   8.745  18.285  0.00  0.00    +0.000 C 
ATOM      3  N   UNL     1       1.444   8.154  20.613  0.00  0.00    +0.000 NA
ENDROOT
BRANCH   1   7
ATOM      4  C   UNL     1       3.587   3.801  19.264  0.00  0.00    +0.000 A 
ATOM      5  C   UNL     1       3.996   4.785  18.353  0.00  0.00    +0.000 A 
ATOM      6  C   UNL     1       3.491   6.088  18.411  0.00  0.00    +0.000 A 
ATOM      7  C   UNL     1       2.512   6.418  19.346  0.00  0.00    +0.000 A 
ATOM      8  C   UNL     1       2.034   5.427  20.213  0.00  0.00    +0.000 A 
ATOM      9  C   UNL     1       2.559   4.117  20.173  0.00  0.00    +0.000 A 
BRANCH   9  10
ATOM     10  N   UNL     1       1.999   3.132  21.119  0.00  0.00    +0.000 N 
ATOM     11  O   UNL     1       0.964   2.526  20.820  0.00  0.00    +0.000 OA
ATOM     12  O   UNL     1       2.601   2.970  22.193  0.00  0.00    +0.000 OA
ENDBRANCH   9  10
BRANCH   4  14
ATOM     13  C   UNL     1       3.586   1.598  18.388  0.00  0.00    +0.000 C 
ATOM     14  O   UNL     1       4.181   2.566  19.259  0.00  0.00    +0.000 OA
ENDBRANCH   4  14
ENDBRANCH   1   7
BRANCH   3  15
ATOM     15  N   UNL     1       0.949   9.415  20.772  0.00  0.00    +0.000 N 
ATOM     16  C   UNL     1      -0.113   9.631  21.638  0.00  0.00    +0.000 C 
ATOM     17  O   UNL     1      -0.664   8.763  22.316  0.00  0.00    +0.000 OA
ATOM     18  H   UNL     1       1.433  10.196  20.353  0.00  0.00    +0.000 HD
BRANCH  16  19
ATOM     19  C   UNL     1      -0.580  11.039  21.761  0.00  0.00    +0.000 A 
ATOM     20  C   UNL     1      -1.079  11.561  22.955  0.00  0.00    +0.000 A 
ATOM     21  C   UNL     1      -1.478  12.888  22.965  0.00  0.00    +0.000 A 
ATOM     22  N   UNL     1      -1.414  13.699  21.889  0.00  0.00    +0.000 NA
ATOM     23  C   UNL     1      -0.908  13.174  20.753  0.00  0.00    +0.000 A 
ATOM     24  C   UNL     1      -0.478  11.866  20.641  0.00  0.00    +0.000 A 
ENDBRANCH  16  19
ENDBRANCH   3  15
TORSDOF 5
ENDMDL
MODEL 5
REMARK VINA RESULT:      -7.0      2.095      2.997
REMARK  Name = 
REMARK  7 active torsions:
REMARK  status: ('A' for Active; 'I' for Inactive)
REMARK    1  A    between atoms: C_1  and  O_2
REMARK    2  A    between atoms: O_2  and  C_3
REMARK    3  A    between atoms: C_6  and  C_7
REMARK    4  A    between atoms: C_7  and  C_8
REMARK    5  A    between atoms: N_9  and  N_10
REMARK    6  A    between atoms: C_11  and  C_13
REMARK    7  A    between atoms: C_20  and  N_21
REMARK                            x       y       z     vdW  Elec       q    Type
REMARK                         _______ _______ _______ _____ _____    ______ ____
ROOT
ATOM      1  C   UNL     1       2.082   7.422  19.829  0.00  0.00    +0.000 C 
ATOM      2  C   UNL     1       2.150   8.252  18.562  0.00  0.00    +0.000 C 
ATOM      3  N   UNL     1       1.524   7.842  20.927  0.00  0.00    +0.000 NA
ENDROOT
BRANCH   1   7
ATOM      4  C   UNL     1       3.732   3.427  19.637  0.00  0.00    +0.000 A 
ATOM      5  C   UNL     1       2.611   3.701  20.435  0.00  0.00    +0.000 A 
ATOM      6  C   UNL     1       2.061   4.984  20.503  0.00  0.00    +0.000 A 
ATOM      7  C   UNL     1       2.664   6.041  19.823  0.00  0.00    +0.000 A 
ATOM      8  C   UNL     1       3.830   5.801  19.084  0.00  0.00    +0.000 A 
ATOM      9  C   UNL     1       4.374   4.502  18.994  0.00  0.00    +0.000 A 
BRANCH   9  10
ATOM     10  N   UNL     1       5.605   4.335  18.197  0.00  0.00    +0.000 N 
ATOM     11  O   UNL     1       6.704   4.411  18.759  0.00  0.00    +0.000 OA
ATOM     12  O   UNL     1       5.472   4.138  16.978  0.00  0.00    +0.000 OA
ENDBRANCH   9  10
BRANCH   4  14
ATOM     13  C   UNL     1       3.560   1.378  18.456  0.00  0.00    +0.000 C 
ATOM     14  O   UNL     1       4.181   2.140  19.497  0.00  0.00    +0.000 OA
ENDBRANCH   4  14
ENDBRANCH   1   7
BRANCH   3  15
ATOM     15  N   UNL     1       0.987   9.094  20.973  0.00  0.00    +0.000 N 
ATOM     16  C   UNL     1      -0.172   9.317  21.702  0.00  0.00    +0.000 C 
ATOM     17  O   UNL     1      -0.778   8.462  22.351  0.00  0.00    +0.000 OA
ATOM     18  H   UNL     1       1.497   9.871  20.577  0.00  0.00    +0.000 HD
BRANCH  16  19
ATOM     19  C   UNL     1      -0.682  10.715  21.709  0.00  0.00    +0.000 A 
ATOM     20  C   UNL     1      -1.025  11.382  22.886  0.00  0.00    +0.000 A 
ATOM     21  C   UNL     1      -1.481  12.686  22.782  0.00  0.00    +0.000 A 
ATOM     22  N   UNL     1      -1.613  13.344  21.612  0.00  0.00    +0.000 NA
ATOM     23  C   UNL     1      -1.254  12.683  20.491  0.00  0.00    +0.000 A 
ATOM     24  C   UNL     1      -0.784  11.383  20.488  0.00  0.00    +0.000 A 
ENDBRANCH  16  19
ENDBRANCH   3  15
TORSDOF 5
ENDMDL
MODEL 6
REMARK VINA RESULT:      -6.9      2.120      2.924
REMARK  Name = 
REMARK  7 active torsions:
REMARK  status: ('A' for Active; 'I' for Inactive)
REMARK    1  A    between atoms: C_1  and  O_2
REMARK    2  A    between atoms: O_2  and  C_3
REMARK    3  A    between atoms: C_6  and  C_7
REMARK    4  A    between atoms: C_7  and  C_8
REMARK    5  A    between atoms: N_9  and  N_10
REMARK    6  A    between atoms: C_11  and  C_13
REMARK    7  A    between atoms: C_20  and  N_21
REMARK                            x       y       z     vdW  Elec       q    Type
REMARK                         _______ _______ _______ _____ _____    ______ ____
ROOT
ATOM      1  C   UNL     1       1.988   7.446  19.757  0.00  0.00    +0.000 C 
ATOM      2  C   UNL     1       2.173   8.296  18.516  0.00  0.00    +0.000 C 
ATOM      3  N   UNL     1       1.304   7.837  20.793  0.00  0.00    +0.000 NA
ENDROOT
BRANCH   1   7
ATOM      4  C   UNL     1       3.727   3.484  19.700  0.00  0.00    +0.000 A 
ATOM      5  C   UNL     1       2.599   3.759  20.488  0.00  0.00    +0.000 A 
ATOM      6  C   UNL     1       2.021   5.032  20.513  0.00  0.00    +0.000 A 
ATOM      7  C   UNL     1       2.600   6.079  19.798  0.00  0.00    +0.000 A 
ATOM      8  C   UNL     1       3.773   5.841  19.069  0.00  0.00    +0.000 A 
ATOM      9  C   UNL     1       4.346   4.552  19.022  0.00  0.00    +0.000 A 
BRANCH   9  10
ATOM     10  N   UNL     1       5.581   4.386  18.232  0.00  0.00    +0.000 N 
ATOM     11  O   UNL     1       5.498   4.158  17.019  0.00  0.00    +0.000 OA
ATOM     12  O   UNL     1       6.661   4.471  18.839  0.00  0.00    +0.000 OA
ENDBRANCH   9  10
BRANCH   4  14
ATOM     13  C   UNL     1       3.618   1.400  18.575  0.00  0.00    +0.000 C 
ATOM     14  O   UNL     1       4.205   2.204  19.604  0.00  0.00    +0.000 OA
ENDBRANCH   4  14
ENDBRANCH   1   7
BRANCH   3  15
ATOM     15  N   UNL     1       0.733   9.075  20.796  0.00  0.00    +0.000 N 
ATOM     16  C   UNL     1       0.655   9.792  21.980  0.00  0.00    +0.000 C 
ATOM     17  O   UNL     1       1.083   9.410  23.071  0.00  0.00    +0.000 OA
ATOM     18  H   UNL     1       0.480   9.509  19.919  0.00  0.00    +0.000 HD
BRANCH  16  19
ATOM     19  C   UNL     1       0.030  11.139  21.890  0.00  0.00    +0.000 A 
ATOM     20  C   UNL     1       0.394  12.071  20.916  0.00  0.00    +0.000 A 
ATOM     21  C   UNL     1      -0.258  13.294  20.914  0.00  0.00    +0.000 A 
ATOM     22  N   UNL     1      -1.220  13.633  21.797  0.00  0.00    +0.000 NA
ATOM     23  C   UNL     1      -1.568  12.705  22.713  0.00  0.00    +0.000 A 
ATOM     24  C   UNL     1      -0.983  11.456  22.797  0.00  0.00    +0.000 A 
ENDBRANCH  16  19
ENDBRANCH   3  15
TORSDOF 5
ENDMDL
MODEL 7
REMARK VINA RESULT:      -6.8      1.771      2.422
REMARK  Name = 
REMARK  7 active torsions:
REMARK  status: ('A' for Active; 'I' for Inactive)
REMARK    1  A    between atoms: C_1  and  O_2
REMARK    2  A    between atoms: O_2  and  C_3
REMARK    3  A    between atoms: C_6  and  C_7
REMARK    4  A    between atoms: C_7  and  C_8
REMARK    5  A    between atoms: N_9  and  N_10
REMARK    6  A    between atoms: C_11  and  C_13
REMARK    7  A    between atoms: C_20  and  N_21
REMARK                            x       y       z     vdW  Elec       q    Type
REMARK                         _______ _______ _______ _____ _____    ______ ____
ROOT
ATOM      1  C   UNL     1       2.212   7.633  19.035  0.00  0.00    +0.000 C 
ATOM      2  C   UNL     1       2.283   8.698  17.959  0.00  0.00    +0.000 C 
ATOM      3  N   UNL     1       1.776   7.865  20.239  0.00  0.00    +0.000 NA
ENDROOT
BRANCH   1   7
ATOM      4  C   UNL     1       3.512   3.660  17.920  0.00  0.00    +0.000 A 
ATOM      5  C   UNL     1       2.163   3.917  18.207  0.00  0.00    +0.000 A 
ATOM      6  C   UNL     1       1.725   5.196  18.562  0.00  0.00    +0.000 A 
ATOM      7  C   UNL     1       2.642   6.237  18.703  0.00  0.00    +0.000 A 
ATOM      8  C   UNL     1       4.004   5.979  18.497  0.00  0.00    +0.000 A 
ATOM      9  C   UNL     1       4.447   4.694  18.115  0.00  0.00    +0.000 A 
BRANCH   9  10
ATOM     10  N   UNL     1       5.897   4.507  17.919  0.00  0.00    +0.000 N 
ATOM     11  O   UNL     1       6.357   4.500  16.771  0.00  0.00    +0.000 OA
ATOM     12  O   UNL     1       6.593   4.348  18.935  0.00  0.00    +0.000 OA
ENDBRANCH   9  10
BRANCH   4  14
ATOM     13  C   UNL     1       3.696   1.340  18.372  0.00  0.00    +0.000 C 
ATOM     14  O   UNL     1       3.897   2.427  17.463  0.00  0.00    +0.000 OA
ENDBRANCH   4  14
ENDBRANCH   1   7
BRANCH   3  15
ATOM     15  N   UNL     1       1.379   9.124  20.582  0.00  0.00    +0.000 N 
ATOM     16  C   UNL     1       0.244   9.297  21.359  0.00  0.00    +0.000 C 
ATOM     17  O   UNL     1      -0.458   8.387  21.803  0.00  0.00    +0.000 OA
ATOM     18  H   UNL     1       1.976   9.910  20.367  0.00  0.00    +0.000 HD
BRANCH  16  19
ATOM     19  C   UNL     1      -0.110  10.703  21.696  0.00  0.00    +0.000 A 
ATOM     20  C   UNL     1       0.398  11.794  20.988  0.00  0.00    +0.000 A 
ATOM     21  C   UNL     1      -0.003  13.061  21.378  0.00  0.00    +0.000 A 
ATOM     22  N   UNL     1      -0.852  13.300  22.399  0.00  0.00    +0.000 NA
ATOM     23  C   UNL     1      -1.344  12.226  23.052  0.00  0.00    +0.000 A 
ATOM     24  C   UNL     1      -1.011  10.922  22.740  0.00  0.00    +0.000 A 
ENDBRANCH  16  19
ENDBRANCH   3  15
TORSDOF 5
ENDMDL
MODEL 8
REMARK VINA RESULT:      -6.8      2.299      3.214
REMARK  Name = 
REMARK  7 active torsions:
REMARK  status: ('A' for Active; 'I' for Inactive)
REMARK    1  A    between atoms: C_1  and  O_2
REMARK    2  A    between atoms: O_2  and  C_3
REMARK    3  A    between atoms: C_6  and  C_7
REMARK    4  A    between atoms: C_7  and  C_8
REMARK    5  A    between atoms: N_9  and  N_10
REMARK    6  A    between atoms: C_11  and  C_13
REMARK    7  A    between atoms: C_20  and  N_21
REMARK                            x       y       z     vdW  Elec       q    Type
REMARK                         _______ _______ _______ _____ _____    ______ ____
ROOT
ATOM      1  C   UNL     1       2.015   8.363  18.612  0.00  0.00    +0.000 C 
ATOM      2  C   UNL     1       1.895   9.606  17.753  0.00  0.00    +0.000 C 
ATOM      3  N   UNL     1       1.419   8.231  19.762  0.00  0.00    +0.000 NA
ENDROOT
BRANCH   1   7
ATOM      4  C   UNL     1       4.424   4.998  17.350  0.00  0.00    +0.000 A 
ATOM      5  C   UNL     1       4.812   6.310  17.043  0.00  0.00    +0.000 A 
ATOM      6  C   UNL     1       4.049   7.409  17.449  0.00  0.00    +0.000 A 
ATOM      7  C   UNL     1       2.841   7.215  18.116  0.00  0.00    +0.000 A 
ATOM      8  C   UNL     1       2.399   5.908  18.361  0.00  0.00    +0.000 A 
ATOM      9  C   UNL     1       3.178   4.797  17.974  0.00  0.00    +0.000 A 
BRANCH   9  10
ATOM     10  N   UNL     1       2.640   3.454  18.267  0.00  0.00    +0.000 N 
ATOM     11  O   UNL     1       1.996   2.857  17.396  0.00  0.00    +0.000 OA
ATOM     12  O   UNL     1       2.853   2.991  19.399  0.00  0.00    +0.000 OA
ENDBRANCH   9  10
BRANCH   4  14
ATOM     13  C   UNL     1       6.052   4.114  15.870  0.00  0.00    +0.000 C 
ATOM     14  O   UNL     1       5.246   3.946  17.041  0.00  0.00    +0.000 OA
ENDBRANCH   4  14
ENDBRANCH   1   7
BRANCH   3  15
ATOM     15  N   UNL     1       0.661   9.254  20.249  0.00  0.00    +0.000 N 
ATOM     16  C   UNL     1       0.865   9.701  21.546  0.00  0.00    +0.000 C 
ATOM     17  O   UNL     1       1.709   9.258  22.325  0.00  0.00    +0.000 OA
ATOM     18  H   UNL     1       0.041   9.755  19.628  0.00  0.00    +0.000 HD
BRANCH  16  19
ATOM     19  C   UNL     1       0.003  10.830  21.992  0.00  0.00    +0.000 A 
ATOM     20  C   UNL     1      -0.999  10.674  22.951  0.00  0.00    +0.000 A 
ATOM     21  C   UNL     1      -1.739  11.792  23.302  0.00  0.00    +0.000 A 
ATOM     22  N   UNL     1      -1.546  13.017  22.770  0.00  0.00    +0.000 NA
ATOM     23  C   UNL     1      -0.556  13.144  21.861  0.00  0.00    +0.000 A 
ATOM     24  C   UNL     1       0.240  12.093  21.447  0.00  0.00    +0.000 A 
ENDBRANCH  16  19
ENDBRANCH   3  15
TORSDOF 5
ENDMDL
MODEL 9
REMARK VINA RESULT:      -6.8      2.309      3.153
REMARK  Name = 
REMARK  7 active torsions:
REMARK  status: ('A' for Active; 'I' for Inactive)
REMARK    1  A    between atoms: C_1  and  O_2
REMARK    2  A    between atoms: O_2  and  C_3
REMARK    3  A    between atoms: C_6  and  C_7
REMARK    4  A    between atoms: C_7  and  C_8
REMARK    5  A    between atoms: N_9  and  N_10
REMARK    6  A    between atoms: C_11  and  C_13
REMARK    7  A    between atoms: C_20  and  N_21
REMARK                            x       y       z     vdW  Elec       q    Type
REMARK                         _______ _______ _______ _____ _____    ______ ____
ROOT
ATOM      1  C   UNL     1       2.058   8.362  18.580  0.00  0.00    +0.000 C 
ATOM      2  C   UNL     1       1.966   9.599  17.709  0.00  0.00    +0.000 C 
ATOM      3  N   UNL     1       1.462   8.256  19.733  0.00  0.00    +0.000 NA
ENDROOT
BRANCH   1   7
ATOM      4  C   UNL     1       4.380   4.927  17.343  0.00  0.00    +0.000 A 
ATOM      5  C   UNL     1       4.790   6.226  17.007  0.00  0.00    +0.000 A 
ATOM      6  C   UNL     1       4.055   7.347  17.404  0.00  0.00    +0.000 A 
ATOM      7  C   UNL     1       2.853   7.189  18.093  0.00  0.00    +0.000 A 
ATOM      8  C   UNL     1       2.389   5.896  18.368  0.00  0.00    +0.000 A 
ATOM      9  C   UNL     1       3.141   4.763  17.989  0.00  0.00    +0.000 A 
BRANCH   9  10
ATOM     10  N   UNL     1       2.580   3.436  18.315  0.00  0.00    +0.000 N 
ATOM     11  O   UNL     1       2.908   2.884  19.372  0.00  0.00    +0.000 OA
ATOM     12  O   UNL     1       1.806   2.928  17.489  0.00  0.00    +0.000 OA
ENDBRANCH   9  10
BRANCH   4  14
ATOM     13  C   UNL     1       5.778   3.875  15.743  0.00  0.00    +0.000 C 
ATOM     14  O   UNL     1       5.177   3.854  17.042  0.00  0.00    +0.000 OA
ENDBRANCH   4  14
ENDBRANCH   1   7
BRANCH   3  15
ATOM     15  N   UNL     1       0.732   9.302  20.213  0.00  0.00    +0.000 N 
ATOM     16  C   UNL     1       0.812   9.636  21.556  0.00  0.00    +0.000 C 
ATOM     17  O   UNL     1       1.521   9.067  22.388  0.00  0.00    +0.000 OA
ATOM     18  H   UNL     1       0.231   9.897  19.567  0.00  0.00    +0.000 HD
BRANCH  16  19
ATOM     19  C   UNL     1      -0.008  10.799  21.991  0.00  0.00    +0.000 A 
ATOM     20  C   UNL     1       0.168  12.080  21.465  0.00  0.00    +0.000 A 
ATOM     21  C   UNL     1      -0.656  13.091  21.933  0.00  0.00    +0.000 A 
ATOM     22  N   UNL     1      -1.614  12.908  22.865  0.00  0.00    +0.000 NA
ATOM     23  C   UNL     1      -1.778  11.655  23.341  0.00  0.00    +0.000 A 
ATOM     24  C   UNL     1      -1.011  10.579  22.937  0.00  0.00    +0.000 A 
ENDBRANCH  16  19
ENDBRANCH   3  15
TORSDOF 5
ENDMDL
