MODEL 1
REMARK VINA RESULT:      -9.4      0.000      0.000
REMARK  Name = 
REMARK  6 active torsions:
REMARK  status: ('A' for Active; 'I' for Inactive)
REMARK    1  A    between atoms: C_1  and  C_2
REMARK    2  A    between atoms: C_5  and  C_6
REMARK    3  A    between atoms: C_6  and  N_7
REMARK    4  A    between atoms: C_8  and  C_10
REMARK    5  A    between atoms: C_10  and  C_11
REMARK    6  A    between atoms: C_15  and  C_17
REMARK                            x       y       z     vdW  Elec       q    Type
REMARK                         _______ _______ _______ _____ _____    ______ ____
ROOT
ATOM      1  C   UNL     1       2.537   4.175  18.952  0.00  0.00    +0.000 C 
ATOM      2  C   UNL     1       2.718   5.138  17.757  0.00  0.00    +0.000 C 
ATOM      3  C   UNL     1       3.421   6.429  18.179  0.00  0.00    +0.000 C 
ATOM      4  N   UNL     1       2.628   7.115  19.194  0.00  0.00    +0.000 N 
ATOM      5  C   UNL     1       1.959   8.284  18.799  0.00  0.00    +0.000 C 
ATOM      6  O   UNL     1       2.069   8.697  17.643  0.00  0.00    +0.000 OA
ATOM      7  C   UNL     1       2.407   6.323  20.407  0.00  0.00    +0.000 C 
ATOM      8  C   UNL     1       1.840   4.932  20.099  0.00  0.00    +0.000 C 
ENDROOT
BRANCH   5   9
ATOM      9  C   UNL     1       1.118   9.007  19.733  0.00  0.00    +0.000 A 
ATOM     10  C   UNL     1       0.914   8.684  21.068  0.00  0.00    +0.000 A 
ATOM     11  C   UNL     1       0.052   9.648  21.648  0.00  0.00    +0.000 A 
ATOM     12  C   UNL     1      -0.446   9.864  22.946  0.00  0.00    +0.000 A 
ATOM     13  C   UNL     1      -1.274  10.966  23.184  0.00  0.00    +0.000 A 
ATOM     14  C   UNL     1      -1.616  11.833  22.148  0.00  0.00    +0.000 A 
ATOM     15  C   UNL     1      -1.153  11.621  20.845  0.00  0.00    +0.000 A 
ATOM     16  C   UNL     1      -0.317  10.520  20.628  0.00  0.00    +0.000 A 
ATOM     17  N   UNL     1       0.273  10.060  19.471  0.00  0.00    +0.000 N 
ATOM     18  H   UNL     1       0.117  10.461  18.558  0.00  0.00    +0.000 HD
ENDBRANCH   5   9
BRANCH   1  19
ATOM     19  C   UNL     1       3.894   3.520  19.276  0.00  0.00    +0.000 C 
BRANCH  19  21
ATOM     20  N   UNL     1       5.669   3.968  17.723  0.00  0.00    +0.000 N 
ATOM     21  C   UNL     1       5.163   4.301  18.966  0.00  0.00    +0.000 C 
ATOM     22  O   UNL     1       5.663   5.133  19.705  0.00  0.00    +0.000 OA
ATOM     23  H   UNL     1       5.142   3.358  17.111  0.00  0.00    +0.000 HD
BRANCH  20  24
ATOM     24  C   UNL     1       6.800   4.647  17.132  0.00  0.00    +0.000 C 
BRANCH  24  29
ATOM     25  C   UNL     1       8.158   5.689  12.590  0.00  0.00    +0.000 C 
ATOM     26  C   UNL     1       7.344   4.973  13.595  0.00  0.00    +0.000 A 
ATOM     27  C   UNL     1       6.360   4.013  13.497  0.00  0.00    +0.000 A 
ATOM     28  C   UNL     1       5.963   3.714  14.822  0.00  0.00    +0.000 A 
ATOM     29  C   UNL     1       6.728   4.507  15.652  0.00  0.00    +0.000 A 
ATOM     30  O   UNL     1       7.571   5.282  14.905  0.00  0.00    +0.000 OA
ENDBRANCH  24  29
ENDBRANCH  20  24
ENDBRANCH  19  21
ENDBRANCH   1  19
TORSDOF 5
ENDMDL
MODEL 2
REMARK VINA RESULT:      -9.4      2.413      8.514
REMARK  Name = 
REMARK  6 active torsions:
REMARK  status: ('A' for Active; 'I' for Inactive)
REMARK    1  A    between atoms: C_1  and  C_2
REMARK    2  A    between atoms: C_5  and  C_6
REMARK    3  A    between atoms: C_6  and  N_7
REMARK    4  A    between atoms: C_8  and  C_10
REMARK    5  A    between atoms: C_10  and  C_11
REMARK    6  A    between atoms: C_15  and  C_17
REMARK                            x       y       z     vdW  Elec       q    Type
REMARK                         _______ _______ _______ _____ _____    ______ ____
ROOT
ATOM      1  C   UNL     1       2.752   2.184  19.193  0.00  0.00    +0.000 C 
ATOM      2  C   UNL     1       4.070   2.588  19.891  0.00  0.00    +0.000 C 
ATOM      3  C   UNL     1       4.478   4.019  19.535  0.00  0.00    +0.000 C 
ATOM      4  N   UNL     1       4.678   4.132  18.093  0.00  0.00    +0.000 N 
ATOM      5  C   UNL     1       6.002   4.252  17.642  0.00  0.00    +0.000 C 
ATOM      6  O   UNL     1       6.931   4.275  18.451  0.00  0.00    +0.000 OA
ATOM      7  C   UNL     1       3.487   3.808  17.304  0.00  0.00    +0.000 C 
ATOM      8  C   UNL     1       2.891   2.447  17.680  0.00  0.00    +0.000 C 
ENDROOT
BRANCH   5   9
ATOM      9  C   UNL     1       6.295   4.331  16.224  0.00  0.00    +0.000 A 
ATOM     10  C   UNL     1       7.129   5.257  15.612  0.00  0.00    +0.000 A 
ATOM     11  C   UNL     1       7.178   4.984  14.222  0.00  0.00    +0.000 A 
ATOM     12  C   UNL     1       7.884   5.537  13.138  0.00  0.00    +0.000 A 
ATOM     13  C   UNL     1       7.715   4.987  11.863  0.00  0.00    +0.000 A 
ATOM     14  C   UNL     1       6.849   3.914  11.661  0.00  0.00    +0.000 A 
ATOM     15  C   UNL     1       6.118   3.366  12.721  0.00  0.00    +0.000 A 
ATOM     16  C   UNL     1       6.307   3.922  13.992  0.00  0.00    +0.000 A 
ATOM     17  N   UNL     1       5.729   3.607  15.200  0.00  0.00    +0.000 N 
ATOM     18  H   UNL     1       5.000   2.918  15.316  0.00  0.00    +0.000 HD
ENDBRANCH   5   9
BRANCH   1  19
ATOM     19  C   UNL     1       1.575   2.870  19.913  0.00  0.00    +0.000 C 
BRANCH  19  21
ATOM     20  N   UNL     1       1.691   5.262  20.068  0.00  0.00    +0.000 N 
ATOM     21  C   UNL     1       1.869   4.088  20.776  0.00  0.00    +0.000 C 
ATOM     22  O   UNL     1       2.197   4.043  21.950  0.00  0.00    +0.000 OA
ATOM     23  H   UNL     1       1.304   5.234  19.133  0.00  0.00    +0.000 HD
BRANCH  20  24
ATOM     24  C   UNL     1       1.788   6.568  20.682  0.00  0.00    +0.000 C 
BRANCH  24  29
ATOM     25  C   UNL     1       0.861  10.939  18.789  0.00  0.00    +0.000 C 
ATOM     26  C   UNL     1       1.440   9.580  18.755  0.00  0.00    +0.000 A 
ATOM     27  C   UNL     1       2.183   8.899  17.815  0.00  0.00    +0.000 A 
ATOM     28  C   UNL     1       2.449   7.623  18.367  0.00  0.00    +0.000 A 
ATOM     29  C   UNL     1       1.855   7.600  19.612  0.00  0.00    +0.000 A 
ATOM     30  O   UNL     1       1.233   8.794  19.851  0.00  0.00    +0.000 OA
ENDBRANCH  24  29
ENDBRANCH  20  24
ENDBRANCH  19  21
ENDBRANCH   1  19
TORSDOF 5
ENDMDL
MODEL 3
REMARK VINA RESULT:      -9.4      0.520      1.117
REMARK  Name = 
REMARK  6 active torsions:
REMARK  status: ('A' for Active; 'I' for Inactive)
REMARK    1  A    between atoms: C_1  and  C_2
REMARK    2  A    between atoms: C_5  and  C_6
REMARK    3  A    between atoms: C_6  and  N_7
REMARK    4  A    between atoms: C_8  and  C_10
REMARK    5  A    between atoms: C_10  and  C_11
REMARK    6  A    between atoms: C_15  and  C_17
REMARK                            x       y       z     vdW  Elec       q    Type
REMARK                         _______ _______ _______ _____ _____    ______ ____
ROOT
ATOM      1  C   UNL     1       2.512   4.040  18.848  0.00  0.00    +0.000 C 
ATOM      2  C   UNL     1       2.702   4.972  17.631  0.00  0.00    +0.000 C 
ATOM      3  C   UNL     1       3.467   6.242  18.010  0.00  0.00    +0.000 C 
ATOM      4  N   UNL     1       2.728   6.978  19.031  0.00  0.00    +0.000 N 
ATOM      5  C   UNL     1       2.098   8.166  18.629  0.00  0.00    +0.000 C 
ATOM      6  O   UNL     1       2.195   8.553  17.463  0.00  0.00    +0.000 OA
ATOM      7  C   UNL     1       2.505   6.218  20.264  0.00  0.00    +0.000 C 
ATOM      8  C   UNL     1       1.874   4.847  19.997  0.00  0.00    +0.000 C 
ENDROOT
BRANCH   5   9
ATOM      9  C   UNL     1       1.311   8.941  19.569  0.00  0.00    +0.000 A 
ATOM     10  C   UNL     1       0.590  10.091  19.278  0.00  0.00    +0.000 A 
ATOM     11  C   UNL     1      -0.066  10.532  20.455  0.00  0.00    +0.000 A 
ATOM     12  C   UNL     1      -0.958  11.581  20.746  0.00  0.00    +0.000 A 
ATOM     13  C   UNL     1      -1.454  11.712  22.047  0.00  0.00    +0.000 A 
ATOM     14  C   UNL     1      -1.061  10.828  23.049  0.00  0.00    +0.000 A 
ATOM     15  C   UNL     1      -0.154   9.795  22.786  0.00  0.00    +0.000 A 
ATOM     16  C   UNL     1       0.323   9.671  21.477  0.00  0.00    +0.000 A 
ATOM     17  N   UNL     1       1.216   8.776  20.931  0.00  0.00    +0.000 N 
ATOM     18  H   UNL     1       1.716   8.080  21.464  0.00  0.00    +0.000 HD
ENDBRANCH   5   9
BRANCH   1  19
ATOM     19  C   UNL     1       3.848   3.336  19.153  0.00  0.00    +0.000 C 
BRANCH  19  21
ATOM     20  N   UNL     1       5.654   3.840  17.653  0.00  0.00    +0.000 N 
ATOM     21  C   UNL     1       5.139   4.104  18.909  0.00  0.00    +0.000 C 
ATOM     22  O   UNL     1       5.648   4.875  19.705  0.00  0.00    +0.000 OA
ATOM     23  H   UNL     1       5.121   3.283  16.996  0.00  0.00    +0.000 HD
BRANCH  20  24
ATOM     24  C   UNL     1       6.808   4.528  17.120  0.00  0.00    +0.000 C 
BRANCH  24  29
ATOM     25  C   UNL     1       8.308   5.750  12.669  0.00  0.00    +0.000 C 
ATOM     26  C   UNL     1       7.437   5.026  13.617  0.00  0.00    +0.000 A 
ATOM     27  C   UNL     1       6.403   4.130  13.448  0.00  0.00    +0.000 A 
ATOM     28  C   UNL     1       5.964   3.779  14.746  0.00  0.00    +0.000 A 
ATOM     29  C   UNL     1       6.756   4.477  15.634  0.00  0.00    +0.000 A 
ATOM     30  O   UNL     1       7.656   5.245  14.947  0.00  0.00    +0.000 OA
ENDBRANCH  24  29
ENDBRANCH  20  24
ENDBRANCH  19  21
ENDBRANCH   1  19
TORSDOF 5
ENDMDL
MODEL 4
REMARK VINA RESULT:      -9.3      2.374      9.525
REMARK  Name = 
REMARK  6 active torsions:
REMARK  status: ('A' for Active; 'I' for Inactive)
REMARK    1  A    between atoms: C_1  and  C_2
REMARK    2  A    between atoms: C_5  and  C_6
REMARK    3  A    between atoms: C_6  and  N_7
REMARK    4  A    between atoms: C_8  and  C_10
REMARK    5  A    between atoms: C_10  and  C_11
REMARK    6  A    between atoms: C_15  and  C_17
REMARK                            x       y       z     vdW  Elec       q    Type
REMARK                         _______ _______ _______ _____ _____    ______ ____
ROOT
ATOM      1  C   UNL     1       1.998   6.833  18.916  0.00  0.00    +0.000 C 
ATOM      2  C   UNL     1       2.764   5.729  19.678  0.00  0.00    +0.000 C 
ATOM      3  C   UNL     1       4.277   5.953  19.619  0.00  0.00    +0.000 C 
ATOM      4  N   UNL     1       4.725   5.936  18.230  0.00  0.00    +0.000 N 
ATOM      5  C   UNL     1       5.452   4.811  17.809  0.00  0.00    +0.000 C 
ATOM      6  O   UNL     1       5.699   3.902  18.604  0.00  0.00    +0.000 OA
ATOM      7  C   UNL     1       4.100   6.963  17.394  0.00  0.00    +0.000 C 
ATOM      8  C   UNL     1       2.570   6.939  17.488  0.00  0.00    +0.000 C 
ENDROOT
BRANCH   5   9
ATOM      9  C   UNL     1       5.904   4.694  16.436  0.00  0.00    +0.000 A 
ATOM     10  C   UNL     1       5.416   3.804  15.489  0.00  0.00    +0.000 A 
ATOM     11  C   UNL     1       6.093   4.021  14.262  0.00  0.00    +0.000 A 
ATOM     12  C   UNL     1       5.983   3.474  12.971  0.00  0.00    +0.000 A 
ATOM     13  C   UNL     1       6.811   3.958  11.953  0.00  0.00    +0.000 A 
ATOM     14  C   UNL     1       7.746   4.958  12.213  0.00  0.00    +0.000 A 
ATOM     15  C   UNL     1       7.889   5.497  13.496  0.00  0.00    +0.000 A 
ATOM     16  C   UNL     1       7.044   5.009  14.500  0.00  0.00    +0.000 A 
ATOM     17  N   UNL     1       6.963   5.334  15.836  0.00  0.00    +0.000 N 
ATOM     18  H   UNL     1       7.589   5.974  16.302  0.00  0.00    +0.000 HD
ENDBRANCH   5   9
BRANCH   1  19
ATOM     19  C   UNL     1       2.003   8.121  19.763  0.00  0.00    +0.000 C 
BRANCH  19  21
ATOM     20  N   UNL     1       0.182   9.685  19.714  0.00  0.00    +0.000 N 
ATOM     21  C   UNL     1       1.411   9.384  19.156  0.00  0.00    +0.000 C 
ATOM     22  O   UNL     1       1.955  10.064  18.302  0.00  0.00    +0.000 OA
ATOM     23  H   UNL     1      -0.159   9.146  20.501  0.00  0.00    +0.000 HD
BRANCH  20  24
ATOM     24  C   UNL     1      -0.543  10.896  19.404  0.00  0.00    +0.000 C 
BRANCH  24  29
ATOM     25  C   UNL     1      -4.802  11.484  17.152  0.00  0.00    +0.000 C 
ATOM     26  C   UNL     1      -3.469  10.868  17.318  0.00  0.00    +0.000 A 
ATOM     27  C   UNL     1      -2.773   9.925  16.594  0.00  0.00    +0.000 A 
ATOM     28  C   UNL     1      -1.533   9.751  17.255  0.00  0.00    +0.000 A 
ATOM     29  C   UNL     1      -1.543  10.601  18.342  0.00  0.00    +0.000 A 
ATOM     30  O   UNL     1      -2.728  11.283  18.387  0.00  0.00    +0.000 OA
ENDBRANCH  24  29
ENDBRANCH  20  24
ENDBRANCH  19  21
ENDBRANCH   1  19
TORSDOF 5
ENDMDL
MODEL 5
REMARK VINA RESULT:      -9.2      1.359      1.855
REMARK  Name = 
REMARK  6 active torsions:
REMARK  status: ('A' for Active; 'I' for Inactive)
REMARK    1  A    between atoms: C_1  and  C_2
REMARK    2  A    between atoms: C_5  and  C_6
REMARK    3  A    between atoms: C_6  and  N_7
REMARK    4  A    between atoms: C_8  and  C_10
REMARK    5  A    between atoms: C_10  and  C_11
REMARK    6  A    between atoms: C_15  and  C_17
REMARK                            x       y       z     vdW  Elec       q    Type
REMARK                         _______ _______ _______ _____ _____    ______ ____
ROOT
ATOM      1  C   UNL     1       2.004   4.982  19.536  0.00  0.00    +0.000 C 
ATOM      2  C   UNL     1       2.223   5.726  18.200  0.00  0.00    +0.000 C 
ATOM      3  C   UNL     1       2.927   7.067  18.414  0.00  0.00    +0.000 C 
ATOM      4  N   UNL     1       2.115   7.920  19.276  0.00  0.00    +0.000 N 
ATOM      5  C   UNL     1       1.467   9.007  18.669  0.00  0.00    +0.000 C 
ATOM      6  O   UNL     1       1.610   9.216  17.463  0.00  0.00    +0.000 OA
ATOM      7  C   UNL     1       1.856   7.347  20.600  0.00  0.00    +0.000 C 
ATOM      8  C   UNL     1       1.284   5.927  20.519  0.00  0.00    +0.000 C 
ENDROOT
BRANCH   5   9
ATOM      9  C   UNL     1       0.610   9.883  19.444  0.00  0.00    +0.000 A 
ATOM     10  C   UNL     1      -0.464  10.616  18.957  0.00  0.00    +0.000 A 
ATOM     11  C   UNL     1      -1.064  11.322  20.030  0.00  0.00    +0.000 A 
ATOM     12  C   UNL     1      -2.191  12.156  20.146  0.00  0.00    +0.000 A 
ATOM     13  C   UNL     1      -2.527  12.676  21.401  0.00  0.00    +0.000 A 
ATOM     14  C   UNL     1      -1.750  12.386  22.521  0.00  0.00    +0.000 A 
ATOM     15  C   UNL     1      -0.611  11.580  22.421  0.00  0.00    +0.000 A 
ATOM     16  C   UNL     1      -0.296  11.060  21.160  0.00  0.00    +0.000 A 
ATOM     17  N   UNL     1       0.751  10.260  20.760  0.00  0.00    +0.000 N 
ATOM     18  H   UNL     1       1.508   9.974  21.363  0.00  0.00    +0.000 HD
ENDBRANCH   5   9
BRANCH   1  19
ATOM     19  C   UNL     1       3.346   4.385  20.003  0.00  0.00    +0.000 C 
BRANCH  19  21
ATOM     20  N   UNL     1       5.391   4.673  18.779  0.00  0.00    +0.000 N 
ATOM     21  C   UNL     1       4.298   3.842  18.948  0.00  0.00    +0.000 C 
ATOM     22  O   UNL     1       4.138   2.795  18.342  0.00  0.00    +0.000 OA
ATOM     23  H   UNL     1       5.523   5.464  19.396  0.00  0.00    +0.000 HD
BRANCH  20  24
ATOM     24  C   UNL     1       6.506   4.334  17.924  0.00  0.00    +0.000 C 
BRANCH  24  29
ATOM     25  C   UNL     1       6.252   3.574  13.137  0.00  0.00    +0.000 C 
ATOM     26  C   UNL     1       6.060   4.383  14.359  0.00  0.00    +0.000 A 
ATOM     27  C   UNL     1       5.540   5.639  14.582  0.00  0.00    +0.000 A 
ATOM     28  C   UNL     1       5.619   5.861  15.977  0.00  0.00    +0.000 A 
ATOM     29  C   UNL     1       6.180   4.726  16.526  0.00  0.00    +0.000 A 
ATOM     30  O   UNL     1       6.455   3.821  15.539  0.00  0.00    +0.000 OA
ENDBRANCH  24  29
ENDBRANCH  20  24
ENDBRANCH  19  21
ENDBRANCH   1  19
TORSDOF 5
ENDMDL
MODEL 6
REMARK VINA RESULT:      -9.2      2.280      8.600
REMARK  Name = 
REMARK  6 active torsions:
REMARK  status: ('A' for Active; 'I' for Inactive)
REMARK    1  A    between atoms: C_1  and  C_2
REMARK    2  A    between atoms: C_5  and  C_6
REMARK    3  A    between atoms: C_6  and  N_7
REMARK    4  A    between atoms: C_8  and  C_10
REMARK    5  A    between atoms: C_10  and  C_11
REMARK    6  A    between atoms: C_15  and  C_17
REMARK                            x       y       z     vdW  Elec       q    Type
REMARK                         _______ _______ _______ _____ _____    ______ ____
ROOT
ATOM      1  C   UNL     1       2.571   2.702  19.079  0.00  0.00    +0.000 C 
ATOM      2  C   UNL     1       3.905   2.991  19.803  0.00  0.00    +0.000 C 
ATOM      3  C   UNL     1       4.459   4.368  19.431  0.00  0.00    +0.000 C 
ATOM      4  N   UNL     1       4.704   4.430  17.993  0.00  0.00    +0.000 N 
ATOM      5  C   UNL     1       6.043   4.412  17.573  0.00  0.00    +0.000 C 
ATOM      6  O   UNL     1       6.950   4.362  18.406  0.00  0.00    +0.000 OA
ATOM      7  C   UNL     1       3.506   4.207  17.179  0.00  0.00    +0.000 C 
ATOM      8  C   UNL     1       2.770   2.919  17.565  0.00  0.00    +0.000 C 
ENDROOT
BRANCH   5   9
ATOM      9  C   UNL     1       6.376   4.432  16.162  0.00  0.00    +0.000 A 
ATOM     10  C   UNL     1       5.937   3.526  15.206  0.00  0.00    +0.000 A 
ATOM     11  C   UNL     1       6.457   3.903  13.942  0.00  0.00    +0.000 A 
ATOM     12  C   UNL     1       6.307   3.409  12.633  0.00  0.00    +0.000 A 
ATOM     13  C   UNL     1       6.957   4.062  11.580  0.00  0.00    +0.000 A 
ATOM     14  C   UNL     1       7.756   5.178  11.821  0.00  0.00    +0.000 A 
ATOM     15  C   UNL     1       7.938   5.668  13.119  0.00  0.00    +0.000 A 
ATOM     16  C   UNL     1       7.272   5.010  14.159  0.00  0.00    +0.000 A 
ATOM     17  N   UNL     1       7.270   5.253  15.514  0.00  0.00    +0.000 N 
ATOM     18  H   UNL     1       7.836   5.956  15.964  0.00  0.00    +0.000 HD
ENDBRANCH   5   9
BRANCH   1  19
ATOM     19  C   UNL     1       1.449   3.514  19.755  0.00  0.00    +0.000 C 
BRANCH  19  21
ATOM     20  N   UNL     1       1.601   5.903  19.941  0.00  0.00    +0.000 N 
ATOM     21  C   UNL     1       1.840   4.714  20.605  0.00  0.00    +0.000 C 
ATOM     22  O   UNL     1       2.286   4.645  21.738  0.00  0.00    +0.000 OA
ATOM     23  H   UNL     1       1.120   5.895  19.050  0.00  0.00    +0.000 HD
BRANCH  20  24
ATOM     24  C   UNL     1       1.772   7.196  20.564  0.00  0.00    +0.000 C 
BRANCH  24  29
ATOM     25  C   UNL     1       0.738  11.617  18.850  0.00  0.00    +0.000 C 
ATOM     26  C   UNL     1       1.285  10.249  18.734  0.00  0.00    +0.000 A 
ATOM     27  C   UNL     1       1.916   9.573  17.712  0.00  0.00    +0.000 A 
ATOM     28  C   UNL     1       2.213   8.283  18.212  0.00  0.00    +0.000 A 
ATOM     29  C   UNL     1       1.748   8.246  19.511  0.00  0.00    +0.000 A 
ATOM     30  O   UNL     1       1.176   9.446  19.832  0.00  0.00    +0.000 OA
ENDBRANCH  24  29
ENDBRANCH  20  24
ENDBRANCH  19  21
ENDBRANCH   1  19
TORSDOF 5
ENDMDL
MODEL 7
REMARK VINA RESULT:      -9.1      1.217      1.381
REMARK  Name = 
REMARK  6 active torsions:
REMARK  status: ('A' for Active; 'I' for Inactive)
REMARK    1  A    between atoms: C_1  and  C_2
REMARK    2  A    between atoms: C_5  and  C_6
REMARK    3  A    between atoms: C_6  and  N_7
REMARK    4  A    between atoms: C_8  and  C_10
REMARK    5  A    between atoms: C_10  and  C_11
REMARK    6  A    between atoms: C_15  and  C_17
REMARK                            x       y       z     vdW  Elec       q    Type
REMARK                         _______ _______ _______ _____ _____    ______ ____
ROOT
ATOM      1  C   UNL     1       1.995   4.684  19.415  0.00  0.00    +0.000 C 
ATOM      2  C   UNL     1       2.253   5.566  18.174  0.00  0.00    +0.000 C 
ATOM      3  C   UNL     1       2.967   6.867  18.548  0.00  0.00    +0.000 C 
ATOM      4  N   UNL     1       2.146   7.631  19.481  0.00  0.00    +0.000 N 
ATOM      5  C   UNL     1       1.524   8.787  18.984  0.00  0.00    +0.000 C 
ATOM      6  O   UNL     1       1.696   9.125  17.811  0.00  0.00    +0.000 OA
ATOM      7  C   UNL     1       1.851   6.921  20.729  0.00  0.00    +0.000 C 
ATOM      8  C   UNL     1       1.265   5.526  20.480  0.00  0.00    +0.000 C 
ENDROOT
BRANCH   5   9
ATOM      9  C   UNL     1       0.660   9.585  19.832  0.00  0.00    +0.000 A 
ATOM     10  C   UNL     1       0.520   9.457  21.208  0.00  0.00    +0.000 A 
ATOM     11  C   UNL     1      -0.394  10.437  21.670  0.00  0.00    +0.000 A 
ATOM     12  C   UNL     1      -0.867  10.814  22.940  0.00  0.00    +0.000 A 
ATOM     13  C   UNL     1      -1.768  11.880  23.042  0.00  0.00    +0.000 A 
ATOM     14  C   UNL     1      -2.206  12.552  21.903  0.00  0.00    +0.000 A 
ATOM     15  C   UNL     1      -1.767  12.174  20.629  0.00  0.00    +0.000 A 
ATOM     16  C   UNL     1      -0.857  11.114  20.546  0.00  0.00    +0.000 A 
ATOM     17  N   UNL     1      -0.270  10.524  19.449  0.00  0.00    +0.000 N 
ATOM     18  H   UNL     1      -0.482  10.768  18.494  0.00  0.00    +0.000 HD
ENDBRANCH   5   9
BRANCH   1  19
ATOM     19  C   UNL     1       3.320   4.022  19.842  0.00  0.00    +0.000 C 
BRANCH  19  21
ATOM     20  N   UNL     1       5.398   4.522  18.749  0.00  0.00    +0.000 N 
ATOM     21  C   UNL     1       4.322   3.653  18.759  0.00  0.00    +0.000 C 
ATOM     22  O   UNL     1       4.211   2.699  18.006  0.00  0.00    +0.000 OA
ATOM     23  H   UNL     1       5.487   5.221  19.476  0.00  0.00    +0.000 HD
BRANCH  20  24
ATOM     24  C   UNL     1       6.551   4.331  17.899  0.00  0.00    +0.000 C 
BRANCH  24  29
ATOM     25  C   UNL     1       6.242   3.602  13.111  0.00  0.00    +0.000 C 
ATOM     26  C   UNL     1       6.051   4.398  14.341  0.00  0.00    +0.000 A 
ATOM     27  C   UNL     1       5.511   5.642  14.582  0.00  0.00    +0.000 A 
ATOM     28  C   UNL     1       5.605   5.854  15.977  0.00  0.00    +0.000 A 
ATOM     29  C   UNL     1       6.197   4.727  16.509  0.00  0.00    +0.000 A 
ATOM     30  O   UNL     1       6.475   3.835  15.511  0.00  0.00    +0.000 OA
ENDBRANCH  24  29
ENDBRANCH  20  24
ENDBRANCH  19  21
ENDBRANCH   1  19
TORSDOF 5
ENDMDL
MODEL 8
REMARK VINA RESULT:      -9.0      2.331      9.375
REMARK  Name = 
REMARK  6 active torsions:
REMARK  status: ('A' for Active; 'I' for Inactive)
REMARK    1  A    between atoms: C_1  and  C_2
REMARK    2  A    between atoms: C_5  and  C_6
REMARK    3  A    between atoms: C_6  and  N_7
REMARK    4  A    between atoms: C_8  and  C_10
REMARK    5  A    between atoms: C_10  and  C_11
REMARK    6  A    between atoms: C_15  and  C_17
REMARK                            x       y       z     vdW  Elec       q    Type
REMARK                         _______ _______ _______ _____ _____    ______ ____
ROOT
ATOM      1  C   UNL     1       1.777   6.879  19.176  0.00  0.00    +0.000 C 
ATOM      2  C   UNL     1       2.177   5.485  19.710  0.00  0.00    +0.000 C 
ATOM      3  C   UNL     1       3.697   5.337  19.808  0.00  0.00    +0.000 C 
ATOM      4  N   UNL     1       4.296   5.503  18.487  0.00  0.00    +0.000 N 
ATOM      5  C   UNL     1       4.797   4.349  17.865  0.00  0.00    +0.000 C 
ATOM      6  O   UNL     1       4.735   3.261  18.440  0.00  0.00    +0.000 OA
ATOM      7  C   UNL     1       4.024   6.806  17.874  0.00  0.00    +0.000 C 
ATOM      8  C   UNL     1       2.527   7.139  17.855  0.00  0.00    +0.000 C 
ENDROOT
BRANCH   5   9
ATOM      9  C   UNL     1       5.375   4.417  16.537  0.00  0.00    +0.000 A 
ATOM     10  C   UNL     1       6.446   5.211  16.151  0.00  0.00    +0.000 A 
ATOM     11  C   UNL     1       6.727   4.970  14.782  0.00  0.00    +0.000 A 
ATOM     12  C   UNL     1       7.712   5.430  13.888  0.00  0.00    +0.000 A 
ATOM     13  C   UNL     1       7.717   4.949  12.575  0.00  0.00    +0.000 A 
ATOM     14  C   UNL     1       6.754   4.037  12.149  0.00  0.00    +0.000 A 
ATOM     15  C   UNL     1       5.751   3.587  13.016  0.00  0.00    +0.000 A 
ATOM     16  C   UNL     1       5.767   4.071  14.329  0.00  0.00    +0.000 A 
ATOM     17  N   UNL     1       4.918   3.821  15.384  0.00  0.00    +0.000 N 
ATOM     18  H   UNL     1       4.084   3.258  15.317  0.00  0.00    +0.000 HD
ENDBRANCH   5   9
BRANCH   1  19
ATOM     19  C   UNL     1       1.968   7.918  20.299  0.00  0.00    +0.000 C 
BRANCH  19  21
ATOM     20  N   UNL     1       0.911  10.005  19.763  0.00  0.00    +0.000 N 
ATOM     21  C   UNL     1       0.833   8.892  20.580  0.00  0.00    +0.000 C 
ATOM     22  O   UNL     1      -0.050   8.710  21.401  0.00  0.00    +0.000 OA
ATOM     23  H   UNL     1       1.599  10.040  19.022  0.00  0.00    +0.000 HD
BRANCH  20  24
ATOM     24  C   UNL     1      -0.108  11.031  19.740  0.00  0.00    +0.000 C 
BRANCH  24  29
ATOM     25  C   UNL     1      -4.536  11.195  17.761  0.00  0.00    +0.000 C 
ATOM     26  C   UNL     1      -3.127  10.755  17.810  0.00  0.00    +0.000 A 
ATOM     27  C   UNL     1      -2.358   9.966  16.981  0.00  0.00    +0.000 A 
ATOM     28  C   UNL     1      -1.069   9.916  17.562  0.00  0.00    +0.000 A 
ATOM     29  C   UNL     1      -1.123  10.678  18.711  0.00  0.00    +0.000 A 
ATOM     30  O   UNL     1      -2.382  11.189  18.869  0.00  0.00    +0.000 OA
ENDBRANCH  24  29
ENDBRANCH  20  24
ENDBRANCH  19  21
ENDBRANCH   1  19
TORSDOF 5
ENDMDL
MODEL 9
REMARK VINA RESULT:      -9.0      2.142      2.803
REMARK  Name = 
REMARK  6 active torsions:
REMARK  status: ('A' for Active; 'I' for Inactive)
REMARK    1  A    between atoms: C_1  and  C_2
REMARK    2  A    between atoms: C_5  and  C_6
REMARK    3  A    between atoms: C_6  and  N_7
REMARK    4  A    between atoms: C_8  and  C_10
REMARK    5  A    between atoms: C_10  and  C_11
REMARK    6  A    between atoms: C_15  and  C_17
REMARK                            x       y       z     vdW  Elec       q    Type
REMARK                         _______ _______ _______ _____ _____    ______ ____
ROOT
ATOM      1  C   UNL     1       2.310   4.605  19.120  0.00  0.00    +0.000 C 
ATOM      2  C   UNL     1       2.530   5.483  17.868  0.00  0.00    +0.000 C 
ATOM      3  C   UNL     1       3.242   6.791  18.218  0.00  0.00    +0.000 C 
ATOM      4  N   UNL     1       2.437   7.554  19.167  0.00  0.00    +0.000 N 
ATOM      5  C   UNL     1       1.793   8.702  18.680  0.00  0.00    +0.000 C 
ATOM      6  O   UNL     1       1.934   9.035  17.501  0.00  0.00    +0.000 OA
ATOM      7  C   UNL     1       2.178   6.847  20.425  0.00  0.00    +0.000 C 
ATOM      8  C   UNL     1       1.598   5.447  20.198  0.00  0.00    +0.000 C 
ENDROOT
BRANCH   5   9
ATOM      9  C   UNL     1       0.942   9.497  19.544  0.00  0.00    +0.000 A 
ATOM     10  C   UNL     1       0.085  10.510  19.139  0.00  0.00    +0.000 A 
ATOM     11  C   UNL     1      -0.591  11.022  20.275  0.00  0.00    +0.000 A 
ATOM     12  C   UNL     1      -1.594  11.990  20.466  0.00  0.00    +0.000 A 
ATOM     13  C   UNL     1      -2.071  12.232  21.758  0.00  0.00    +0.000 A 
ATOM     14  C   UNL     1      -1.553  11.536  22.848  0.00  0.00    +0.000 A 
ATOM     15  C   UNL     1      -0.537  10.587  22.682  0.00  0.00    +0.000 A 
ATOM     16  C   UNL     1      -0.079  10.351  21.381  0.00  0.00    +0.000 A 
ATOM     17  N   UNL     1       0.900   9.500  20.919  0.00  0.00    +0.000 N 
ATOM     18  H   UNL     1       1.491   8.940  21.515  0.00  0.00    +0.000 HD
ENDBRANCH   5   9
BRANCH   1  19
ATOM     19  C   UNL     1       3.650   3.956  19.518  0.00  0.00    +0.000 C 
BRANCH  19  21
ATOM     20  N   UNL     1       5.895   4.737  19.183  0.00  0.00    +0.000 N 
ATOM     21  C   UNL     1       4.831   4.103  18.569  0.00  0.00    +0.000 C 
ATOM     22  O   UNL     1       4.852   3.694  17.420  0.00  0.00    +0.000 OA
ATOM     23  H   UNL     1       5.856   4.945  20.173  0.00  0.00    +0.000 HD
BRANCH  20  24
ATOM     24  C   UNL     1       7.183   4.898  18.546  0.00  0.00    +0.000 C 
BRANCH  24  29
ATOM     25  C   UNL     1       9.071   9.357  18.880  0.00  0.00    +0.000 C 
ATOM     26  C   UNL     1       8.195   8.335  18.270  0.00  0.00    +0.000 A 
ATOM     27  C   UNL     1       7.334   8.356  17.194  0.00  0.00    +0.000 A 
ATOM     28  C   UNL     1       6.781   7.057  17.101  0.00  0.00    +0.000 A 
ATOM     29  C   UNL     1       7.338   6.316  18.124  0.00  0.00    +0.000 A 
ATOM     30  O   UNL     1       8.200   7.096  18.844  0.00  0.00    +0.000 OA
ENDBRANCH  24  29
ENDBRANCH  20  24
ENDBRANCH  19  21
ENDBRANCH   1  19
TORSDOF 5
ENDMDL
