MODEL 1
REMARK VINA RESULT:      -8.3      0.000      0.000
REMARK  Name = 
REMARK  5 active torsions:
REMARK  status: ('A' for Active; 'I' for Inactive)
REMARK    1  A    between atoms: C_1  and  C_2
REMARK    2  A    between atoms: C_4  and  C_5
REMARK    3  A    between atoms: C_10  and  C_11
REMARK    4  A    between atoms: N_13  and  C_14
REMARK    5  A    between atoms: C_19  and  O_20
REMARK                            x       y       z     vdW  Elec       q    Type
REMARK                         _______ _______ _______ _____ _____    ______ ____
ROOT
ATOM      1  C   UNL     1       6.559   5.466  15.902  0.00  0.00    +0.000 A 
ATOM      2  C   UNL     1       7.330   5.255  14.739  0.00  0.00    +0.000 A 
ATOM      3  C   UNL     1       6.897   4.408  13.714  0.00  0.00    +0.000 A 
ATOM      4  C   UNL     1       5.677   3.755  13.824  0.00  0.00    +0.000 A 
ATOM      5  C   UNL     1       4.896   3.951  14.959  0.00  0.00    +0.000 A 
ATOM      6  C   UNL     1       5.320   4.805  16.001  0.00  0.00    +0.000 A 
ENDROOT
BRANCH   1  10
ATOM      7  C   UNL     1       8.739   9.012  18.788  0.00  0.00    +0.000 C 
ATOM      8  C   UNL     1       8.071   7.809  18.253  0.00  0.00    +0.000 A 
ATOM      9  C   UNL     1       7.284   7.691  17.088  0.00  0.00    +0.000 A 
ATOM     10  C   UNL     1       7.095   6.338  16.937  0.00  0.00    +0.000 A 
ATOM     11  O   UNL     1       7.607   5.705  18.033  0.00  0.00    +0.000 OA
ATOM     12  N   UNL     1       8.222   6.627  18.861  0.00  0.00    +0.000 NA
ENDBRANCH   1  10
BRANCH   6  13
ATOM     13  C   UNL     1       4.409   4.842  17.179  0.00  0.00    +0.000 C 
ATOM     14  O   UNL     1       4.071   5.958  17.564  0.00  0.00    +0.000 OA
ATOM     15  N   UNL     1       4.060   3.643  17.772  0.00  0.00    +0.000 N 
ATOM     16  H   UNL     1       4.487   2.777  17.454  0.00  0.00    +0.000 HD
BRANCH  15  17
ATOM     17  C   UNL     1       3.163   3.479  18.861  0.00  0.00    +0.000 A 
ATOM     18  C   UNL     1       1.837   3.917  18.843  0.00  0.00    +0.000 A 
ATOM     19  C   UNL     1       1.012   3.749  19.959  0.00  0.00    +0.000 A 
ATOM     20  C   UNL     1       1.501   3.133  21.107  0.00  0.00    +0.000 A 
ATOM     21  C   UNL     1       2.814   2.663  21.136  0.00  0.00    +0.000 A 
ATOM     22  C   UNL     1       3.633   2.829  20.014  0.00  0.00    +0.000 A 
BRANCH  22  23
ATOM     23  O   UNL     1       4.918   2.348  20.024  0.00  0.00    +0.000 OA
ATOM     24  H   UNL     1       5.528   3.098  20.096  0.00  0.00    +0.000 HD
ENDBRANCH  22  23
ENDBRANCH  15  17
ENDBRANCH   6  13
TORSDOF 4
ENDMDL
MODEL 2
REMARK VINA RESULT:      -8.1      2.824      4.811
REMARK  Name = 
REMARK  5 active torsions:
REMARK  status: ('A' for Active; 'I' for Inactive)
REMARK    1  A    between atoms: C_1  and  C_2
REMARK    2  A    between atoms: C_4  and  C_5
REMARK    3  A    between atoms: C_10  and  C_11
REMARK    4  A    between atoms: N_13  and  C_14
REMARK    5  A    between atoms: C_19  and  O_20
REMARK                            x       y       z     vdW  Elec       q    Type
REMARK                         _______ _______ _______ _____ _____    ______ ____
ROOT
ATOM      1  C   UNL     1       4.759   4.173  16.543  0.00  0.00    +0.000 A 
ATOM      2  C   UNL     1       5.363   3.302  15.612  0.00  0.00    +0.000 A 
ATOM      3  C   UNL     1       6.266   3.765  14.649  0.00  0.00    +0.000 A 
ATOM      4  C   UNL     1       6.592   5.113  14.599  0.00  0.00    +0.000 A 
ATOM      5  C   UNL     1       6.015   5.992  15.510  0.00  0.00    +0.000 A 
ATOM      6  C   UNL     1       5.103   5.538  16.488  0.00  0.00    +0.000 A 
ENDROOT
BRANCH   1  10
ATOM      7  C   UNL     1       0.796   2.571  19.259  0.00  0.00    +0.000 C 
ATOM      8  C   UNL     1       2.132   2.944  18.754  0.00  0.00    +0.000 A 
ATOM      9  C   UNL     1       2.571   3.019  17.415  0.00  0.00    +0.000 A 
ATOM     10  C   UNL     1       3.806   3.617  17.492  0.00  0.00    +0.000 A 
ATOM     11  O   UNL     1       4.145   3.743  18.809  0.00  0.00    +0.000 OA
ATOM     12  N   UNL     1       3.094   3.322  19.604  0.00  0.00    +0.000 NA
ENDBRANCH   1  10
BRANCH   6  13
ATOM     13  C   UNL     1       4.514   6.615  17.333  0.00  0.00    +0.000 C 
ATOM     14  O   UNL     1       5.287   7.494  17.702  0.00  0.00    +0.000 OA
ATOM     15  N   UNL     1       3.178   6.519  17.673  0.00  0.00    +0.000 N 
ATOM     16  H   UNL     1       2.648   5.689  17.418  0.00  0.00    +0.000 HD
BRANCH  15  17
ATOM     17  C   UNL     1       2.434   7.472  18.418  0.00  0.00    +0.000 A 
ATOM     18  C   UNL     1       1.885   8.630  17.861  0.00  0.00    +0.000 A 
ATOM     19  C   UNL     1       1.185   9.544  18.653  0.00  0.00    +0.000 A 
ATOM     20  C   UNL     1       1.019   9.309  20.015  0.00  0.00    +0.000 A 
ATOM     21  C   UNL     1       1.536   8.146  20.586  0.00  0.00    +0.000 A 
ATOM     22  C   UNL     1       2.229   7.233  19.786  0.00  0.00    +0.000 A 
BRANCH  22  23
ATOM     23  O   UNL     1       2.719   6.073  20.334  0.00  0.00    +0.000 OA
ATOM     24  H   UNL     1       2.013   5.651  20.846  0.00  0.00    +0.000 HD
ENDBRANCH  22  23
ENDBRANCH  15  17
ENDBRANCH   6  13
TORSDOF 4
ENDMDL
MODEL 3
REMARK VINA RESULT:      -8.0      0.946      1.434
REMARK  Name = 
REMARK  5 active torsions:
REMARK  status: ('A' for Active; 'I' for Inactive)
REMARK    1  A    between atoms: C_1  and  C_2
REMARK    2  A    between atoms: C_4  and  C_5
REMARK    3  A    between atoms: C_10  and  C_11
REMARK    4  A    between atoms: N_13  and  C_14
REMARK    5  A    between atoms: C_19  and  O_20
REMARK                            x       y       z     vdW  Elec       q    Type
REMARK                         _______ _______ _______ _____ _____    ______ ____
ROOT
ATOM      1  C   UNL     1       6.528   5.424  15.916  0.00  0.00    +0.000 A 
ATOM      2  C   UNL     1       7.292   5.228  14.746  0.00  0.00    +0.000 A 
ATOM      3  C   UNL     1       6.859   4.381  13.720  0.00  0.00    +0.000 A 
ATOM      4  C   UNL     1       5.647   3.715  13.836  0.00  0.00    +0.000 A 
ATOM      5  C   UNL     1       4.873   3.898  14.978  0.00  0.00    +0.000 A 
ATOM      6  C   UNL     1       5.297   4.750  16.021  0.00  0.00    +0.000 A 
ENDROOT
BRANCH   1  10
ATOM      7  C   UNL     1       8.708   8.970  18.803  0.00  0.00    +0.000 C 
ATOM      8  C   UNL     1       8.039   7.767  18.268  0.00  0.00    +0.000 A 
ATOM      9  C   UNL     1       7.253   7.649  17.102  0.00  0.00    +0.000 A 
ATOM     10  C   UNL     1       7.064   6.296  16.952  0.00  0.00    +0.000 A 
ATOM     11  O   UNL     1       7.574   5.663  18.048  0.00  0.00    +0.000 OA
ATOM     12  N   UNL     1       8.189   6.585  18.876  0.00  0.00    +0.000 NA
ENDBRANCH   1  10
BRANCH   6  13
ATOM     13  C   UNL     1       4.395   4.772  17.207  0.00  0.00    +0.000 C 
ATOM     14  O   UNL     1       4.069   5.882  17.616  0.00  0.00    +0.000 OA
ATOM     15  N   UNL     1       4.040   3.564  17.779  0.00  0.00    +0.000 N 
ATOM     16  H   UNL     1       4.459   2.701  17.441  0.00  0.00    +0.000 HD
BRANCH  15  17
ATOM     17  C   UNL     1       3.151   3.386  18.872  0.00  0.00    +0.000 A 
ATOM     18  C   UNL     1       3.568   3.028  20.156  0.00  0.00    +0.000 A 
ATOM     19  C   UNL     1       2.640   2.841  21.185  0.00  0.00    +0.000 A 
ATOM     20  C   UNL     1       1.281   3.017  20.943  0.00  0.00    +0.000 A 
ATOM     21  C   UNL     1       0.845   3.402  19.675  0.00  0.00    +0.000 A 
ATOM     22  C   UNL     1       1.780   3.592  18.652  0.00  0.00    +0.000 A 
BRANCH  22  23
ATOM     23  O   UNL     1       1.364   3.995  17.408  0.00  0.00    +0.000 OA
ATOM     24  H   UNL     1       1.610   3.313  16.765  0.00  0.00    +0.000 HD
ENDBRANCH  22  23
ENDBRANCH  15  17
ENDBRANCH   6  13
TORSDOF 4
ENDMDL
MODEL 4
REMARK VINA RESULT:      -8.0      1.279      1.380
REMARK  Name = 
REMARK  5 active torsions:
REMARK  status: ('A' for Active; 'I' for Inactive)
REMARK    1  A    between atoms: C_1  and  C_2
REMARK    2  A    between atoms: C_4  and  C_5
REMARK    3  A    between atoms: C_10  and  C_11
REMARK    4  A    between atoms: N_13  and  C_14
REMARK    5  A    between atoms: C_19  and  O_20
REMARK                            x       y       z     vdW  Elec       q    Type
REMARK                         _______ _______ _______ _____ _____    ______ ____
ROOT
ATOM      1  C   UNL     1       6.671   4.805  15.563  0.00  0.00    +0.000 A 
ATOM      2  C   UNL     1       7.464   4.721  14.399  0.00  0.00    +0.000 A 
ATOM      3  C   UNL     1       6.944   4.254  13.188  0.00  0.00    +0.000 A 
ATOM      4  C   UNL     1       5.614   3.865  13.109  0.00  0.00    +0.000 A 
ATOM      5  C   UNL     1       4.810   3.944  14.243  0.00  0.00    +0.000 A 
ATOM      6  C   UNL     1       5.321   4.415  15.471  0.00  0.00    +0.000 A 
ENDROOT
BRANCH   1  10
ATOM      7  C   UNL     1       8.326   5.771  20.252  0.00  0.00    +0.000 C 
ATOM      8  C   UNL     1       8.016   5.786  18.808  0.00  0.00    +0.000 A 
ATOM      9  C   UNL     1       7.717   4.694  17.967  0.00  0.00    +0.000 A 
ATOM     10  C   UNL     1       7.297   5.271  16.792  0.00  0.00    +0.000 A 
ATOM     11  O   UNL     1       7.486   6.620  16.881  0.00  0.00    +0.000 OA
ATOM     12  N   UNL     1       7.936   6.947  18.148  0.00  0.00    +0.000 NA
ENDBRANCH   1  10
BRANCH   6  13
ATOM     13  C   UNL     1       4.356   4.360  16.605  0.00  0.00    +0.000 C 
ATOM     14  O   UNL     1       3.827   5.424  16.914  0.00  0.00    +0.000 OA
ATOM     15  N   UNL     1       4.169   3.149  17.245  0.00  0.00    +0.000 N 
ATOM     16  H   UNL     1       4.744   2.348  16.992  0.00  0.00    +0.000 HD
BRANCH  15  17
ATOM     17  C   UNL     1       3.255   2.893  18.301  0.00  0.00    +0.000 A 
ATOM     18  C   UNL     1       1.873   2.795  18.119  0.00  0.00    +0.000 A 
ATOM     19  C   UNL     1       1.022   2.568  19.205  0.00  0.00    +0.000 A 
ATOM     20  C   UNL     1       1.544   2.430  20.487  0.00  0.00    +0.000 A 
ATOM     21  C   UNL     1       2.923   2.497  20.687  0.00  0.00    +0.000 A 
ATOM     22  C   UNL     1       3.769   2.718  19.596  0.00  0.00    +0.000 A 
BRANCH  22  23
ATOM     23  O   UNL     1       5.128   2.760  19.778  0.00  0.00    +0.000 OA
ATOM     24  H   UNL     1       5.470   3.569  19.367  0.00  0.00    +0.000 HD
ENDBRANCH  22  23
ENDBRANCH  15  17
ENDBRANCH   6  13
TORSDOF 4
ENDMDL
MODEL 5
REMARK VINA RESULT:      -7.9      3.520      5.811
REMARK  Name = 
REMARK  5 active torsions:
REMARK  status: ('A' for Active; 'I' for Inactive)
REMARK    1  A    between atoms: C_1  and  C_2
REMARK    2  A    between atoms: C_4  and  C_5
REMARK    3  A    between atoms: C_10  and  C_11
REMARK    4  A    between atoms: N_13  and  C_14
REMARK    5  A    between atoms: C_19  and  O_20
REMARK                            x       y       z     vdW  Elec       q    Type
REMARK                         _______ _______ _______ _____ _____    ______ ____
ROOT
ATOM      1  C   UNL     1       3.750   3.706  19.704  0.00  0.00    +0.000 A 
ATOM      2  C   UNL     1       3.959   2.548  20.483  0.00  0.00    +0.000 A 
ATOM      3  C   UNL     1       3.009   2.106  21.411  0.00  0.00    +0.000 A 
ATOM      4  C   UNL     1       1.824   2.808  21.576  0.00  0.00    +0.000 A 
ATOM      5  C   UNL     1       1.593   3.950  20.815  0.00  0.00    +0.000 A 
ATOM      6  C   UNL     1       2.541   4.407  19.875  0.00  0.00    +0.000 A 
ENDROOT
BRANCH   1  10
ATOM      7  C   UNL     1       7.051   4.484  15.942  0.00  0.00    +0.000 C 
ATOM      8  C   UNL     1       6.306   4.469  17.217  0.00  0.00    +0.000 A 
ATOM      9  C   UNL     1       4.929   4.238  17.422  0.00  0.00    +0.000 A 
ATOM     10  C   UNL     1       4.802   4.117  18.785  0.00  0.00    +0.000 A 
ATOM     11  O   UNL     1       6.003   4.416  19.361  0.00  0.00    +0.000 OA
ATOM     12  N   UNL     1       6.951   4.635  18.377  0.00  0.00    +0.000 NA
ENDBRANCH   1  10
BRANCH   6  13
ATOM     13  C   UNL     1       2.178   5.686  19.202  0.00  0.00    +0.000 C 
ATOM     14  O   UNL     1       1.872   5.603  18.016  0.00  0.00    +0.000 OA
ATOM     15  N   UNL     1       2.262   6.855  19.936  0.00  0.00    +0.000 N 
ATOM     16  H   UNL     1       2.642   6.835  20.879  0.00  0.00    +0.000 HD
BRANCH  15  17
ATOM     17  C   UNL     1       1.905   8.153  19.484  0.00  0.00    +0.000 A 
ATOM     18  C   UNL     1       2.271   8.664  18.236  0.00  0.00    +0.000 A 
ATOM     19  C   UNL     1       1.911   9.961  17.859  0.00  0.00    +0.000 A 
ATOM     20  C   UNL     1       1.173  10.763  18.724  0.00  0.00    +0.000 A 
ATOM     21  C   UNL     1       0.773  10.262  19.963  0.00  0.00    +0.000 A 
ATOM     22  C   UNL     1       1.132   8.962  20.332  0.00  0.00    +0.000 A 
BRANCH  22  23
ATOM     23  O   UNL     1       0.722   8.451  21.538  0.00  0.00    +0.000 OA
ATOM     24  H   UNL     1       0.315   9.165  22.052  0.00  0.00    +0.000 HD
ENDBRANCH  22  23
ENDBRANCH  15  17
ENDBRANCH   6  13
TORSDOF 4
ENDMDL
MODEL 6
REMARK VINA RESULT:      -7.7      1.142      1.283
REMARK  Name = 
REMARK  5 active torsions:
REMARK  status: ('A' for Active; 'I' for Inactive)
REMARK    1  A    between atoms: C_1  and  C_2
REMARK    2  A    between atoms: C_4  and  C_5
REMARK    3  A    between atoms: C_10  and  C_11
REMARK    4  A    between atoms: N_13  and  C_14
REMARK    5  A    between atoms: C_19  and  O_20
REMARK                            x       y       z     vdW  Elec       q    Type
REMARK                         _______ _______ _______ _____ _____    ______ ____
ROOT
ATOM      1  C   UNL     1       6.736   5.388  15.932  0.00  0.00    +0.000 A 
ATOM      2  C   UNL     1       7.365   5.413  14.669  0.00  0.00    +0.000 A 
ATOM      3  C   UNL     1       6.994   4.534  13.645  0.00  0.00    +0.000 A 
ATOM      4  C   UNL     1       5.979   3.613  13.858  0.00  0.00    +0.000 A 
ATOM      5  C   UNL     1       5.339   3.573  15.094  0.00  0.00    +0.000 A 
ATOM      6  C   UNL     1       5.702   4.454  16.135  0.00  0.00    +0.000 A 
ENDROOT
BRANCH   1  10
ATOM      7  C   UNL     1       8.629   9.136  18.764  0.00  0.00    +0.000 C 
ATOM      8  C   UNL     1       8.059   7.876  18.247  0.00  0.00    +0.000 A 
ATOM      9  C   UNL     1       7.281   7.679  17.087  0.00  0.00    +0.000 A 
ATOM     10  C   UNL     1       7.203   6.314  16.954  0.00  0.00    +0.000 A 
ATOM     11  O   UNL     1       7.768   5.738  18.055  0.00  0.00    +0.000 OA
ATOM     12  N   UNL     1       8.308   6.717  18.869  0.00  0.00    +0.000 NA
ENDBRANCH   1  10
BRANCH   6  13
ATOM     13  C   UNL     1       4.978   4.228  17.418  0.00  0.00    +0.000 C 
ATOM     14  O   UNL     1       5.676   3.941  18.386  0.00  0.00    +0.000 OA
ATOM     15  N   UNL     1       3.598   4.305  17.410  0.00  0.00    +0.000 N 
ATOM     16  H   UNL     1       3.102   4.430  16.531  0.00  0.00    +0.000 HD
BRANCH  15  17
ATOM     17  C   UNL     1       2.747   4.176  18.540  0.00  0.00    +0.000 A 
ATOM     18  C   UNL     1       2.514   5.206  19.454  0.00  0.00    +0.000 A 
ATOM     19  C   UNL     1       1.686   5.007  20.562  0.00  0.00    +0.000 A 
ATOM     20  C   UNL     1       1.074   3.775  20.768  0.00  0.00    +0.000 A 
ATOM     21  C   UNL     1       1.271   2.741  19.853  0.00  0.00    +0.000 A 
ATOM     22  C   UNL     1       2.096   2.949  18.743  0.00  0.00    +0.000 A 
BRANCH  22  23
ATOM     23  O   UNL     1       2.276   1.946  17.823  0.00  0.00    +0.000 OA
ATOM     24  H   UNL     1       1.658   1.227  18.026  0.00  0.00    +0.000 HD
ENDBRANCH  22  23
ENDBRANCH  15  17
ENDBRANCH   6  13
TORSDOF 4
ENDMDL
MODEL 7
REMARK VINA RESULT:      -7.6      3.158      5.607
REMARK  Name = 
REMARK  5 active torsions:
REMARK  status: ('A' for Active; 'I' for Inactive)
REMARK    1  A    between atoms: C_1  and  C_2
REMARK    2  A    between atoms: C_4  and  C_5
REMARK    3  A    between atoms: C_10  and  C_11
REMARK    4  A    between atoms: N_13  and  C_14
REMARK    5  A    between atoms: C_19  and  O_20
REMARK                            x       y       z     vdW  Elec       q    Type
REMARK                         _______ _______ _______ _____ _____    ______ ____
ROOT
ATOM      1  C   UNL     1       4.003   3.492  19.382  0.00  0.00    +0.000 A 
ATOM      2  C   UNL     1       4.406   2.351  20.110  0.00  0.00    +0.000 A 
ATOM      3  C   UNL     1       3.681   1.889  21.213  0.00  0.00    +0.000 A 
ATOM      4  C   UNL     1       2.529   2.553  21.611  0.00  0.00    +0.000 A 
ATOM      5  C   UNL     1       2.108   3.677  20.907  0.00  0.00    +0.000 A 
ATOM      6  C   UNL     1       2.830   4.154  19.791  0.00  0.00    +0.000 A 
ENDROOT
BRANCH   1  10
ATOM      7  C   UNL     1       6.479   4.303  15.039  0.00  0.00    +0.000 C 
ATOM      8  C   UNL     1       5.987   4.301  16.431  0.00  0.00    +0.000 A 
ATOM      9  C   UNL     1       4.694   3.989  16.901  0.00  0.00    +0.000 A 
ATOM     10  C   UNL     1       4.831   3.927  18.267  0.00  0.00    +0.000 A 
ATOM     11  O   UNL     1       6.093   4.333  18.594  0.00  0.00    +0.000 OA
ATOM     12  N   UNL     1       6.822   4.567  17.442  0.00  0.00    +0.000 NA
ENDBRANCH   1  10
BRANCH   6  13
ATOM     13  C   UNL     1       2.293   5.412  19.199  0.00  0.00    +0.000 C 
ATOM     14  O   UNL     1       1.714   5.296  18.123  0.00  0.00    +0.000 OA
ATOM     15  N   UNL     1       2.528   6.599  19.867  0.00  0.00    +0.000 N 
ATOM     16  H   UNL     1       3.123   6.607  20.692  0.00  0.00    +0.000 HD
BRANCH  15  17
ATOM     17  C   UNL     1       2.049   7.881  19.487  0.00  0.00    +0.000 A 
ATOM     18  C   UNL     1       1.189   8.649  20.275  0.00  0.00    +0.000 A 
ATOM     19  C   UNL     1       0.732   9.894  19.833  0.00  0.00    +0.000 A 
ATOM     20  C   UNL     1       1.135  10.390  18.597  0.00  0.00    +0.000 A 
ATOM     21  C   UNL     1       2.015   9.652  17.806  0.00  0.00    +0.000 A 
ATOM     22  C   UNL     1       2.474   8.410  18.258  0.00  0.00    +0.000 A 
BRANCH  22  23
ATOM     23  O   UNL     1       3.360   7.688  17.498  0.00  0.00    +0.000 OA
ATOM     24  H   UNL     1       3.515   6.835  17.933  0.00  0.00    +0.000 HD
ENDBRANCH  22  23
ENDBRANCH  15  17
ENDBRANCH   6  13
TORSDOF 4
ENDMDL
MODEL 8
REMARK VINA RESULT:      -7.6      3.245      5.559
REMARK  Name = 
REMARK  5 active torsions:
REMARK  status: ('A' for Active; 'I' for Inactive)
REMARK    1  A    between atoms: C_1  and  C_2
REMARK    2  A    between atoms: C_4  and  C_5
REMARK    3  A    between atoms: C_10  and  C_11
REMARK    4  A    between atoms: N_13  and  C_14
REMARK    5  A    between atoms: C_19  and  O_20
REMARK                            x       y       z     vdW  Elec       q    Type
REMARK                         _______ _______ _______ _____ _____    ______ ____
ROOT
ATOM      1  C   UNL     1       4.401   4.454  16.848  0.00  0.00    +0.000 A 
ATOM      2  C   UNL     1       5.179   4.032  15.748  0.00  0.00    +0.000 A 
ATOM      3  C   UNL     1       6.125   4.873  15.152  0.00  0.00    +0.000 A 
ATOM      4  C   UNL     1       6.323   6.154  15.647  0.00  0.00    +0.000 A 
ATOM      5  C   UNL     1       5.573   6.590  16.735  0.00  0.00    +0.000 A 
ATOM      6  C   UNL     1       4.615   5.753  17.347  0.00  0.00    +0.000 A 
ENDROOT
BRANCH   1  10
ATOM      7  C   UNL     1       0.523   2.015  19.008  0.00  0.00    +0.000 C 
ATOM      8  C   UNL     1       1.792   2.403  18.361  0.00  0.00    +0.000 A 
ATOM      9  C   UNL     1       2.049   3.522  17.540  0.00  0.00    +0.000 A 
ATOM     10  C   UNL     1       3.415   3.530  17.390  0.00  0.00    +0.000 A 
ATOM     11  O   UNL     1       3.920   2.396  17.957  0.00  0.00    +0.000 OA
ATOM     12  N   UNL     1       2.903   1.686  18.569  0.00  0.00    +0.000 NA
ENDBRANCH   1  10
BRANCH   6  13
ATOM     13  C   UNL     1       3.841   6.397  18.446  0.00  0.00    +0.000 C 
ATOM     14  O   UNL     1       4.100   6.015  19.583  0.00  0.00    +0.000 OA
ATOM     15  N   UNL     1       2.872   7.322  18.104  0.00  0.00    +0.000 N 
ATOM     16  H   UNL     1       2.648   7.484  17.125  0.00  0.00    +0.000 HD
BRANCH  15  17
ATOM     17  C   UNL     1       2.079   8.075  19.011  0.00  0.00    +0.000 A 
ATOM     18  C   UNL     1       1.775   7.652  20.306  0.00  0.00    +0.000 A 
ATOM     19  C   UNL     1       0.966   8.427  21.142  0.00  0.00    +0.000 A 
ATOM     20  C   UNL     1       0.456   9.641  20.695  0.00  0.00    +0.000 A 
ATOM     21  C   UNL     1       0.770  10.096  19.414  0.00  0.00    +0.000 A 
ATOM     22  C   UNL     1       1.585   9.319  18.585  0.00  0.00    +0.000 A 
BRANCH  22  23
ATOM     23  O   UNL     1       1.921   9.769  17.333  0.00  0.00    +0.000 OA
ATOM     24  H   UNL     1       1.260   9.447  16.702  0.00  0.00    +0.000 HD
ENDBRANCH  22  23
ENDBRANCH  15  17
ENDBRANCH   6  13
TORSDOF 4
ENDMDL
MODEL 9
REMARK VINA RESULT:      -7.5      3.323      5.183
REMARK  Name = 
REMARK  5 active torsions:
REMARK  status: ('A' for Active; 'I' for Inactive)
REMARK    1  A    between atoms: C_1  and  C_2
REMARK    2  A    between atoms: C_4  and  C_5
REMARK    3  A    between atoms: C_10  and  C_11
REMARK    4  A    between atoms: N_13  and  C_14
REMARK    5  A    between atoms: C_19  and  O_20
REMARK                            x       y       z     vdW  Elec       q    Type
REMARK                         _______ _______ _______ _____ _____    ______ ____
ROOT
ATOM      1  C   UNL     1       4.397   4.544  17.271  0.00  0.00    +0.000 A 
ATOM      2  C   UNL     1       4.896   3.507  16.454  0.00  0.00    +0.000 A 
ATOM      3  C   UNL     1       5.571   3.775  15.258  0.00  0.00    +0.000 A 
ATOM      4  C   UNL     1       5.772   5.087  14.855  0.00  0.00    +0.000 A 
ATOM      5  C   UNL     1       5.294   6.127  15.647  0.00  0.00    +0.000 A 
ATOM      6  C   UNL     1       4.612   5.872  16.856  0.00  0.00    +0.000 A 
ENDROOT
BRANCH   1  10
ATOM      7  C   UNL     1       2.482   2.560  21.520  0.00  0.00    +0.000 C 
ATOM      8  C   UNL     1       2.755   3.343  20.299  0.00  0.00    +0.000 A 
ATOM      9  C   UNL     1       4.000   3.608  19.690  0.00  0.00    +0.000 A 
ATOM     10  C   UNL     1       3.676   4.181  18.483  0.00  0.00    +0.000 A 
ATOM     11  O   UNL     1       2.327   4.386  18.449  0.00  0.00    +0.000 OA
ATOM     12  N   UNL     1       1.745   3.859  19.588  0.00  0.00    +0.000 NA
ENDBRANCH   1  10
BRANCH   6  13
ATOM     13  C   UNL     1       4.095   7.089  17.543  0.00  0.00    +0.000 C 
ATOM     14  O   UNL     1       4.913   7.980  17.749  0.00  0.00    +0.000 OA
ATOM     15  N   UNL     1       2.769   7.103  17.936  0.00  0.00    +0.000 N 
ATOM     16  H   UNL     1       2.200   6.267  17.828  0.00  0.00    +0.000 HD
BRANCH  15  17
ATOM     17  C   UNL     1       2.090   8.189  18.548  0.00  0.00    +0.000 A 
ATOM     18  C   UNL     1       1.765   9.372  17.880  0.00  0.00    +0.000 A 
ATOM     19  C   UNL     1       1.118  10.417  18.547  0.00  0.00    +0.000 A 
ATOM     20  C   UNL     1       0.782  10.290  19.891  0.00  0.00    +0.000 A 
ATOM     21  C   UNL     1       1.073   9.106  20.570  0.00  0.00    +0.000 A 
ATOM     22  C   UNL     1       1.714   8.063  19.895  0.00  0.00    +0.000 A 
BRANCH  22  23
ATOM     23  O   UNL     1       1.982   6.885  20.547  0.00  0.00    +0.000 OA
ATOM     24  H   UNL     1       2.706   6.435  20.086  0.00  0.00    +0.000 HD
ENDBRANCH  22  23
ENDBRANCH  15  17
ENDBRANCH   6  13
TORSDOF 4
ENDMDL
