MODEL 1
REMARK VINA RESULT:      -7.6      0.000      0.000
REMARK  Name = 
REMARK  4 active torsions:
REMARK  status: ('A' for Active; 'I' for Inactive)
REMARK    1  A    between atoms: C_1  and  C_2
REMARK    2  A    between atoms: C_5  and  S_6
REMARK    3  A    between atoms: S_6  and  N_9
REMARK    4  A    between atoms: C_12  and  C_13
REMARK                            x       y       z     vdW  Elec       q    Type
REMARK                         _______ _______ _______ _____ _____    ______ ____
ROOT
ATOM      1  S   UNL     1       5.940   5.011  18.494  0.00  0.00    +0.000 S 
ATOM      2  O   UNL     1       6.105   5.879  19.647  0.00  0.00    +0.000 OA
ATOM      3  O   UNL     1       6.924   3.996  18.193  0.00  0.00    +0.000 OA
ENDROOT
BRANCH   1   4
ATOM      4  N   UNL     1       5.801   5.977  17.114  0.00  0.00    +0.000 N 
ATOM      5  C   UNL     1       6.323   5.489  15.922  0.00  0.00    +0.000 A 
ATOM      6  C   UNL     1       5.629   4.723  14.968  0.00  0.00    +0.000 A 
ATOM      7  C   UNL     1       6.541   4.540  13.958  0.00  0.00    +0.000 A 
ATOM      8  C   UNL     1       6.498   3.863  12.650  0.00  0.00    +0.000 C 
ATOM      9  O   UNL     1       7.707   5.158  14.292  0.00  0.00    +0.000 OA
ATOM     10  N   UNL     1       7.553   5.799  15.512  0.00  0.00    +0.000 NA
ATOM     11  H   UNL     1       6.078   6.934  17.324  0.00  0.00    +0.000 HD
ENDBRANCH   1   4
BRANCH   1  16
ATOM     12  C   UNL     1       0.551   2.194  18.823  0.00  0.00    +0.000 C 
ATOM     13  C   UNL     1       1.879   2.891  18.752  0.00  0.00    +0.000 A 
ATOM     14  C   UNL     1       2.053   4.027  17.953  0.00  0.00    +0.000 A 
ATOM     15  C   UNL     1       3.290   4.667  17.895  0.00  0.00    +0.000 A 
ATOM     16  C   UNL     1       4.364   4.187  18.654  0.00  0.00    +0.000 A 
ATOM     17  C   UNL     1       4.212   3.039  19.440  0.00  0.00    +0.000 A 
ATOM     18  C   UNL     1       2.967   2.403  19.492  0.00  0.00    +0.000 A 
ENDBRANCH   1  16
TORSDOF 2
ENDMDL
MODEL 2
REMARK VINA RESULT:      -7.4      1.094      1.475
REMARK  Name = 
REMARK  4 active torsions:
REMARK  status: ('A' for Active; 'I' for Inactive)
REMARK    1  A    between atoms: C_1  and  C_2
REMARK    2  A    between atoms: C_5  and  S_6
REMARK    3  A    between atoms: S_6  and  N_9
REMARK    4  A    between atoms: C_12  and  C_13
REMARK                            x       y       z     vdW  Elec       q    Type
REMARK                         _______ _______ _______ _____ _____    ______ ____
ROOT
ATOM      1  S   UNL     1       6.344   5.137  18.697  0.00  0.00    +0.000 S 
ATOM      2  O   UNL     1       6.887   6.031  19.703  0.00  0.00    +0.000 OA
ATOM      3  O   UNL     1       7.088   3.974  18.269  0.00  0.00    +0.000 OA
ENDROOT
BRANCH   1   4
ATOM      4  N   UNL     1       6.009   6.038  17.307  0.00  0.00    +0.000 N 
ATOM      5  C   UNL     1       6.402   5.515  16.080  0.00  0.00    +0.000 A 
ATOM      6  C   UNL     1       5.625   4.688  15.248  0.00  0.00    +0.000 A 
ATOM      7  C   UNL     1       6.417   4.489  14.143  0.00  0.00    +0.000 A 
ATOM      8  C   UNL     1       6.241   3.755  12.878  0.00  0.00    +0.000 C 
ATOM      9  O   UNL     1       7.592   5.153  14.310  0.00  0.00    +0.000 OA
ATOM     10  N   UNL     1       7.563   5.842  15.514  0.00  0.00    +0.000 NA
ATOM     11  H   UNL     1       6.277   7.011  17.444  0.00  0.00    +0.000 HD
ENDBRANCH   1   4
BRANCH   1  16
ATOM     12  C   UNL     1       1.034   3.057  20.831  0.00  0.00    +0.000 C 
ATOM     13  C   UNL     1       2.337   3.573  20.296  0.00  0.00    +0.000 A 
ATOM     14  C   UNL     1       3.368   2.695  19.942  0.00  0.00    +0.000 A 
ATOM     15  C   UNL     1       4.575   3.185  19.446  0.00  0.00    +0.000 A 
ATOM     16  C   UNL     1       4.757   4.563  19.279  0.00  0.00    +0.000 A 
ATOM     17  C   UNL     1       3.744   5.455  19.651  0.00  0.00    +0.000 A 
ATOM     18  C   UNL     1       2.537   4.954  20.149  0.00  0.00    +0.000 A 
ENDBRANCH   1  16
TORSDOF 2
ENDMDL
MODEL 3
REMARK VINA RESULT:      -7.4      2.787      3.597
REMARK  Name = 
REMARK  4 active torsions:
REMARK  status: ('A' for Active; 'I' for Inactive)
REMARK    1  A    between atoms: C_1  and  C_2
REMARK    2  A    between atoms: C_5  and  S_6
REMARK    3  A    between atoms: S_6  and  N_9
REMARK    4  A    between atoms: C_12  and  C_13
REMARK                            x       y       z     vdW  Elec       q    Type
REMARK                         _______ _______ _______ _____ _____    ______ ____
ROOT
ATOM      1  S   UNL     1       4.263   3.592  17.790  0.00  0.00    +0.000 S 
ATOM      2  O   UNL     1       3.826   2.290  18.263  0.00  0.00    +0.000 OA
ATOM      3  O   UNL     1       4.112   3.957  16.399  0.00  0.00    +0.000 OA
ENDROOT
BRANCH   1   4
ATOM      4  N   UNL     1       5.901   3.773  18.165  0.00  0.00    +0.000 N 
ATOM      5  C   UNL     1       6.550   4.918  17.715  0.00  0.00    +0.000 A 
ATOM      6  C   UNL     1       6.665   6.132  18.417  0.00  0.00    +0.000 A 
ATOM      7  C   UNL     1       7.431   6.921  17.595  0.00  0.00    +0.000 A 
ATOM      8  C   UNL     1       7.962   8.291  17.696  0.00  0.00    +0.000 C 
ATOM      9  O   UNL     1       7.750   6.220  16.473  0.00  0.00    +0.000 OA
ATOM     10  N   UNL     1       7.232   4.937  16.571  0.00  0.00    +0.000 NA
ATOM     11  H   UNL     1       6.405   2.910  17.970  0.00  0.00    +0.000 HD
ENDBRANCH   1   4
BRANCH   1  16
ATOM     12  C   UNL     1       1.249   7.861  20.916  0.00  0.00    +0.000 C 
ATOM     13  C   UNL     1       2.000   6.809  20.153  0.00  0.00    +0.000 A 
ATOM     14  C   UNL     1       2.491   7.066  18.867  0.00  0.00    +0.000 A 
ATOM     15  C   UNL     1       3.187   6.082  18.168  0.00  0.00    +0.000 A 
ATOM     16  C   UNL     1       3.418   4.833  18.755  0.00  0.00    +0.000 A 
ATOM     17  C   UNL     1       2.913   4.553  20.031  0.00  0.00    +0.000 A 
ATOM     18  C   UNL     1       2.215   5.546  20.726  0.00  0.00    +0.000 A 
ENDBRANCH   1  16
TORSDOF 2
ENDMDL
MODEL 4
REMARK VINA RESULT:      -7.3      2.784      3.753
REMARK  Name = 
REMARK  4 active torsions:
REMARK  status: ('A' for Active; 'I' for Inactive)
REMARK    1  A    between atoms: C_1  and  C_2
REMARK    2  A    between atoms: C_5  and  S_6
REMARK    3  A    between atoms: S_6  and  N_9
REMARK    4  A    between atoms: C_12  and  C_13
REMARK                            x       y       z     vdW  Elec       q    Type
REMARK                         _______ _______ _______ _____ _____    ______ ____
ROOT
ATOM      1  S   UNL     1       4.230   3.546  17.788  0.00  0.00    +0.000 S 
ATOM      2  O   UNL     1       3.788   2.256  18.288  0.00  0.00    +0.000 OA
ATOM      3  O   UNL     1       4.135   3.860  16.381  0.00  0.00    +0.000 OA
ENDROOT
BRANCH   1   4
ATOM      4  N   UNL     1       5.849   3.761  18.226  0.00  0.00    +0.000 N 
ATOM      5  C   UNL     1       6.507   4.889  17.753  0.00  0.00    +0.000 A 
ATOM      6  C   UNL     1       6.582   6.136  18.401  0.00  0.00    +0.000 A 
ATOM      7  C   UNL     1       7.377   6.894  17.577  0.00  0.00    +0.000 A 
ATOM      8  C   UNL     1       7.892   8.273  17.638  0.00  0.00    +0.000 C 
ATOM      9  O   UNL     1       7.751   6.145  16.505  0.00  0.00    +0.000 OA
ATOM     10  N   UNL     1       7.240   4.862  16.640  0.00  0.00    +0.000 NA
ATOM     11  H   UNL     1       6.368   2.895  18.094  0.00  0.00    +0.000 HD
ENDBRANCH   1   4
BRANCH   1  16
ATOM     12  C   UNL     1       1.293   7.822  20.977  0.00  0.00    +0.000 C 
ATOM     13  C   UNL     1       2.009   6.768  20.184  0.00  0.00    +0.000 A 
ATOM     14  C   UNL     1       2.242   5.497  20.722  0.00  0.00    +0.000 A 
ATOM     15  C   UNL     1       2.907   4.525  19.977  0.00  0.00    +0.000 A 
ATOM     16  C   UNL     1       3.331   4.808  18.673  0.00  0.00    +0.000 A 
ATOM     17  C   UNL     1       3.126   6.082  18.130  0.00  0.00    +0.000 A 
ATOM     18  C   UNL     1       2.458   7.052  18.885  0.00  0.00    +0.000 A 
ENDBRANCH   1  16
TORSDOF 2
ENDMDL
MODEL 5
REMARK VINA RESULT:      -7.3      1.463      1.618
REMARK  Name = 
REMARK  4 active torsions:
REMARK  status: ('A' for Active; 'I' for Inactive)
REMARK    1  A    between atoms: C_1  and  C_2
REMARK    2  A    between atoms: C_5  and  S_6
REMARK    3  A    between atoms: S_6  and  N_9
REMARK    4  A    between atoms: C_12  and  C_13
REMARK                            x       y       z     vdW  Elec       q    Type
REMARK                         _______ _______ _______ _____ _____    ______ ____
ROOT
ATOM      1  S   UNL     1       6.907   5.624  17.439  0.00  0.00    +0.000 S 
ATOM      2  O   UNL     1       7.524   6.700  18.196  0.00  0.00    +0.000 OA
ATOM      3  O   UNL     1       7.625   4.393  17.195  0.00  0.00    +0.000 OA
ENDROOT
BRANCH   1   4
ATOM      4  N   UNL     1       6.450   6.228  15.929  0.00  0.00    +0.000 N 
ATOM      5  C   UNL     1       6.586   5.394  14.825  0.00  0.00    +0.000 A 
ATOM      6  C   UNL     1       5.606   4.517  14.326  0.00  0.00    +0.000 A 
ATOM      7  C   UNL     1       6.186   3.968  13.209  0.00  0.00    +0.000 A 
ATOM      8  C   UNL     1       5.736   3.001  12.194  0.00  0.00    +0.000 C 
ATOM      9  O   UNL     1       7.435   4.485  13.055  0.00  0.00    +0.000 OA
ATOM     10  N   UNL     1       7.670   5.423  14.050  0.00  0.00    +0.000 NA
ATOM     11  H   UNL     1       6.835   7.161  15.790  0.00  0.00    +0.000 HD
ENDBRANCH   1   4
BRANCH   1  16
ATOM     12  C   UNL     1       1.592   4.181  20.038  0.00  0.00    +0.000 C 
ATOM     13  C   UNL     1       2.907   4.538  19.407  0.00  0.00    +0.000 A 
ATOM     14  C   UNL     1       3.055   5.719  18.672  0.00  0.00    +0.000 A 
ATOM     15  C   UNL     1       4.280   6.041  18.091  0.00  0.00    +0.000 A 
ATOM     16  C   UNL     1       5.380   5.191  18.256  0.00  0.00    +0.000 A 
ATOM     17  C   UNL     1       5.241   3.994  18.969  0.00  0.00    +0.000 A 
ATOM     18  C   UNL     1       4.008   3.679  19.549  0.00  0.00    +0.000 A 
ENDBRANCH   1  16
TORSDOF 2
ENDMDL
MODEL 6
REMARK VINA RESULT:      -7.2      0.969      1.539
REMARK  Name = 
REMARK  4 active torsions:
REMARK  status: ('A' for Active; 'I' for Inactive)
REMARK    1  A    between atoms: C_1  and  C_2
REMARK    2  A    between atoms: C_5  and  S_6
REMARK    3  A    between atoms: S_6  and  N_9
REMARK    4  A    between atoms: C_12  and  C_13
REMARK                            x       y       z     vdW  Elec       q    Type
REMARK                         _______ _______ _______ _____ _____    ______ ____
ROOT
ATOM      1  S   UNL     1       6.349   5.321  17.626  0.00  0.00    +0.000 S 
ATOM      2  O   UNL     1       6.698   6.374  18.564  0.00  0.00    +0.000 OA
ATOM      3  O   UNL     1       7.246   4.211  17.401  0.00  0.00    +0.000 OA
ENDROOT
BRANCH   1   4
ATOM      4  N   UNL     1       6.058   6.025  16.117  0.00  0.00    +0.000 N 
ATOM      5  C   UNL     1       6.335   5.272  14.983  0.00  0.00    +0.000 A 
ATOM      6  C   UNL     1       5.435   4.422  14.314  0.00  0.00    +0.000 A 
ATOM      7  C   UNL     1       6.151   3.958  13.237  0.00  0.00    +0.000 A 
ATOM      8  C   UNL     1       5.839   3.060  12.113  0.00  0.00    +0.000 C 
ATOM      9  O   UNL     1       7.400   4.498  13.265  0.00  0.00    +0.000 OA
ATOM     10  N   UNL     1       7.500   5.366  14.343  0.00  0.00    +0.000 NA
ATOM     11  H   UNL     1       6.439   6.969  16.089  0.00  0.00    +0.000 HD
ENDBRANCH   1   4
BRANCH   1  16
ATOM     12  C   UNL     1       1.052   3.036  19.575  0.00  0.00    +0.000 C 
ATOM     13  C   UNL     1       2.356   3.594  19.086  0.00  0.00    +0.000 A 
ATOM     14  C   UNL     1       3.568   3.209  19.670  0.00  0.00    +0.000 A 
ATOM     15  C   UNL     1       4.774   3.733  19.206  0.00  0.00    +0.000 A 
ATOM     16  C   UNL     1       4.781   4.637  18.137  0.00  0.00    +0.000 A 
ATOM     17  C   UNL     1       3.575   5.049  17.558  0.00  0.00    +0.000 A 
ATOM     18  C   UNL     1       2.370   4.518  18.029  0.00  0.00    +0.000 A 
ENDBRANCH   1  16
TORSDOF 2
ENDMDL
MODEL 7
REMARK VINA RESULT:      -7.1      1.308      1.428
REMARK  Name = 
REMARK  4 active torsions:
REMARK  status: ('A' for Active; 'I' for Inactive)
REMARK    1  A    between atoms: C_1  and  C_2
REMARK    2  A    between atoms: C_5  and  S_6
REMARK    3  A    between atoms: S_6  and  N_9
REMARK    4  A    between atoms: C_12  and  C_13
REMARK                            x       y       z     vdW  Elec       q    Type
REMARK                         _______ _______ _______ _____ _____    ______ ____
ROOT
ATOM      1  S   UNL     1       5.973   5.289  18.440  0.00  0.00    +0.000 S 
ATOM      2  O   UNL     1       5.754   6.504  17.675  0.00  0.00    +0.000 OA
ATOM      3  O   UNL     1       6.572   5.346  19.754  0.00  0.00    +0.000 OA
ENDROOT
BRANCH   1   4
ATOM      4  N   UNL     1       6.927   4.243  17.516  0.00  0.00    +0.000 N 
ATOM      5  C   UNL     1       6.782   4.278  16.135  0.00  0.00    +0.000 A 
ATOM      6  C   UNL     1       7.515   5.087  15.247  0.00  0.00    +0.000 A 
ATOM      7  C   UNL     1       7.055   4.722  14.005  0.00  0.00    +0.000 A 
ATOM      8  C   UNL     1       7.386   5.134  12.630  0.00  0.00    +0.000 C 
ATOM      9  O   UNL     1       6.106   3.757  14.146  0.00  0.00    +0.000 OA
ATOM     10  N   UNL     1       5.968   3.442  15.490  0.00  0.00    +0.000 NA
ATOM     11  H   UNL     1       6.903   3.304  17.909  0.00  0.00    +0.000 HD
ENDBRANCH   1   4
BRANCH   1  16
ATOM     12  C   UNL     1       0.585   2.477  18.812  0.00  0.00    +0.000 C 
ATOM     13  C   UNL     1       1.912   3.172  18.731  0.00  0.00    +0.000 A 
ATOM     14  C   UNL     1       2.068   4.339  17.973  0.00  0.00    +0.000 A 
ATOM     15  C   UNL     1       3.306   4.977  17.905  0.00  0.00    +0.000 A 
ATOM     16  C   UNL     1       4.400   4.464  18.612  0.00  0.00    +0.000 A 
ATOM     17  C   UNL     1       4.265   3.286  19.356  0.00  0.00    +0.000 A 
ATOM     18  C   UNL     1       3.020   2.652  19.419  0.00  0.00    +0.000 A 
ENDBRANCH   1  16
TORSDOF 2
ENDMDL
MODEL 8
REMARK VINA RESULT:      -7.1      1.309      1.851
REMARK  Name = 
REMARK  4 active torsions:
REMARK  status: ('A' for Active; 'I' for Inactive)
REMARK    1  A    between atoms: C_1  and  C_2
REMARK    2  A    between atoms: C_5  and  S_6
REMARK    3  A    between atoms: S_6  and  N_9
REMARK    4  A    between atoms: C_12  and  C_13
REMARK                            x       y       z     vdW  Elec       q    Type
REMARK                         _______ _______ _______ _____ _____    ______ ____
ROOT
ATOM      1  S   UNL     1       5.975   5.285  18.440  0.00  0.00    +0.000 S 
ATOM      2  O   UNL     1       5.803   6.526  17.706  0.00  0.00    +0.000 OA
ATOM      3  O   UNL     1       6.518   5.294  19.779  0.00  0.00    +0.000 OA
ENDROOT
BRANCH   1   4
ATOM      4  N   UNL     1       6.954   4.255  17.525  0.00  0.00    +0.000 N 
ATOM      5  C   UNL     1       6.834   4.302  16.141  0.00  0.00    +0.000 A 
ATOM      6  C   UNL     1       7.576   5.126  15.274  0.00  0.00    +0.000 A 
ATOM      7  C   UNL     1       7.142   4.768  14.021  0.00  0.00    +0.000 A 
ATOM      8  C   UNL     1       7.494   5.195  12.656  0.00  0.00    +0.000 C 
ATOM      9  O   UNL     1       6.199   3.794  14.136  0.00  0.00    +0.000 OA
ATOM     10  N   UNL     1       6.039   3.466  15.474  0.00  0.00    +0.000 NA
ATOM     11  H   UNL     1       6.931   3.313  17.909  0.00  0.00    +0.000 HD
ENDBRANCH   1   4
BRANCH   1  16
ATOM     12  C   UNL     1       0.557   2.550  18.930  0.00  0.00    +0.000 C 
ATOM     13  C   UNL     1       1.893   3.220  18.799  0.00  0.00    +0.000 A 
ATOM     14  C   UNL     1       2.984   2.807  19.573  0.00  0.00    +0.000 A 
ATOM     15  C   UNL     1       4.221   3.437  19.443  0.00  0.00    +0.000 A 
ATOM     16  C   UNL     1       4.386   4.477  18.520  0.00  0.00    +0.000 A 
ATOM     17  C   UNL     1       3.298   4.916  17.756  0.00  0.00    +0.000 A 
ATOM     18  C   UNL     1       2.060   4.279  17.893  0.00  0.00    +0.000 A 
ENDBRANCH   1  16
TORSDOF 2
ENDMDL
MODEL 9
REMARK VINA RESULT:      -7.0      2.303      5.739
REMARK  Name = 
REMARK  4 active torsions:
REMARK  status: ('A' for Active; 'I' for Inactive)
REMARK    1  A    between atoms: C_1  and  C_2
REMARK    2  A    between atoms: C_5  and  S_6
REMARK    3  A    between atoms: S_6  and  N_9
REMARK    4  A    between atoms: C_12  and  C_13
REMARK                            x       y       z     vdW  Elec       q    Type
REMARK                         _______ _______ _______ _____ _____    ______ ____
ROOT
ATOM      1  S   UNL     1       5.701   4.792  18.995  0.00  0.00    +0.000 S 
ATOM      2  O   UNL     1       6.987   5.064  19.614  0.00  0.00    +0.000 OA
ATOM      3  O   UNL     1       4.575   5.668  19.225  0.00  0.00    +0.000 OA
ENDROOT
BRANCH   1   4
ATOM      4  N   UNL     1       5.210   3.239  19.447  0.00  0.00    +0.000 N 
ATOM      5  C   UNL     1       3.849   3.006  19.604  0.00  0.00    +0.000 A 
ATOM      6  C   UNL     1       2.965   2.562  18.604  0.00  0.00    +0.000 A 
ATOM      7  C   UNL     1       1.763   2.430  19.255  0.00  0.00    +0.000 A 
ATOM      8  C   UNL     1       0.419   1.991  18.841  0.00  0.00    +0.000 C 
ATOM      9  O   UNL     1       1.922   2.776  20.561  0.00  0.00    +0.000 OA
ATOM     10  N   UNL     1       3.252   3.095  20.792  0.00  0.00    +0.000 NA
ATOM     11  H   UNL     1       5.778   2.900  20.221  0.00  0.00    +0.000 HD
ENDBRANCH   1   4
BRANCH   1  16
ATOM     12  C   UNL     1       6.730   4.379  13.007  0.00  0.00    +0.000 C 
ATOM     13  C   UNL     1       6.471   4.490  14.481  0.00  0.00    +0.000 A 
ATOM     14  C   UNL     1       7.509   4.775  15.375  0.00  0.00    +0.000 A 
ATOM     15  C   UNL     1       7.257   4.875  16.743  0.00  0.00    +0.000 A 
ATOM     16  C   UNL     1       5.955   4.711  17.230  0.00  0.00    +0.000 A 
ATOM     17  C   UNL     1       4.910   4.403  16.351  0.00  0.00    +0.000 A 
ATOM     18  C   UNL     1       5.172   4.303  14.980  0.00  0.00    +0.000 A 
ENDBRANCH   1  16
TORSDOF 2
ENDMDL
