MODEL 1
REMARK VINA RESULT:      -7.4      0.000      0.000
REMARK  Name = 
REMARK  7 active torsions:
REMARK  status: ('A' for Active; 'I' for Inactive)
REMARK    1  A    between atoms: C_2  and  C_3
REMARK    2  A    between atoms: C_12  and  S_13
REMARK    3  A    between atoms: S_13  and  N_16
REMARK    4  A    between atoms: N_16  and  C_17
REMARK    5  A    between atoms: C_17  and  C_18
REMARK    6  A    between atoms: C_18  and  C_19
REMARK    7  A    between atoms: C_19  and  N_20
REMARK                            x       y       z     vdW  Elec       q    Type
REMARK                         _______ _______ _______ _____ _____    ______ ____
ROOT
ATOM      1  O   UNL     1       0.105   8.699  21.684  0.00  0.00    +0.000 OA
ATOM      2  C   UNL     1       0.471   9.388  20.725  0.00  0.00    +0.000 C 
ATOM      3  N   UNL     1       1.252   8.887  19.693  0.00  0.00    +0.000 N 
ATOM      4  C   UNL     1       1.746   9.627  18.519  0.00  0.00    +0.000 C 
ATOM      5  C   UNL     1       2.388   8.596  17.579  0.00  0.00    +0.000 C 
ATOM      6  C   UNL     1       2.513   7.405  18.475  0.00  0.00    +0.000 A 
ATOM      7  C   UNL     1       3.125   6.190  18.206  0.00  0.00    +0.000 A 
ATOM      8  C   UNL     1       3.062   5.179  19.179  0.00  0.00    +0.000 A 
ATOM      9  C   UNL     1       2.366   5.373  20.380  0.00  0.00    +0.000 A 
ATOM     10  C   UNL     1       1.740   6.600  20.627  0.00  0.00    +0.000 A 
ATOM     11  C   UNL     1       1.819   7.600  19.669  0.00  0.00    +0.000 A 
ENDROOT
BRANCH   2  12
ATOM     12  C   UNL     1       0.023  10.870  20.577  0.00  0.00    +0.000 C 
ATOM     13  C   UNL     1      -1.283  11.075  19.768  0.00  0.00    +0.000 C 
ATOM     14  C   UNL     1      -1.653  12.201  20.743  0.00  0.00    +0.000 C 
ATOM     15  C   UNL     1      -0.727  11.530  21.773  0.00  0.00    +0.000 C 
ENDBRANCH   2  12
BRANCH   8  16
ATOM     16  S   UNL     1       3.804   3.610  18.801  0.00  0.00    +0.000 S 
ATOM     17  O   UNL     1       3.263   2.638  19.702  0.00  0.00    +0.000 OA
ATOM     18  O   UNL     1       3.721   3.435  17.354  0.00  0.00    +0.000 OA
BRANCH  16  19
ATOM     19  N   UNL     1       5.462   3.761  19.171  0.00  0.00    +0.000 NA
ATOM     20  H   UNL     1       5.996   3.490  18.346  0.00  0.00    +0.000 HD
BRANCH  19  21
ATOM     21  C   UNL     1       5.834   5.093  19.687  0.00  0.00    +0.000 C 
BRANCH  21  22
ATOM     22  C   UNL     1       7.302   5.389  19.426  0.00  0.00    +0.000 C 
BRANCH  22  23
ATOM     23  C   UNL     1       7.489   6.044  18.049  0.00  0.00    +0.000 C 
BRANCH  23  24
ATOM     24  N   UNL     1       6.611   5.459  17.022  0.00  0.00    +0.000 NA
ATOM     25  C   UNL     1       6.066   6.518  16.154  0.00  0.00    +0.000 C 
ATOM     26  C   UNL     1       5.091   5.951  15.128  0.00  0.00    +0.000 C 
ATOM     27  C   UNL     1       5.746   4.863  14.288  0.00  0.00    +0.000 C 
ATOM     28  C   UNL     1       6.392   3.814  15.184  0.00  0.00    +0.000 C 
ATOM     29  C   UNL     1       7.325   4.457  16.212  0.00  0.00    +0.000 C 
ENDBRANCH  23  24
ENDBRANCH  22  23
ENDBRANCH  21  22
ENDBRANCH  19  21
ENDBRANCH  16  19
ENDBRANCH   8  16
TORSDOF 7
ENDMDL
MODEL 2
REMARK VINA RESULT:      -7.3      2.411      4.420
REMARK  Name = 
REMARK  7 active torsions:
REMARK  status: ('A' for Active; 'I' for Inactive)
REMARK    1  A    between atoms: C_2  and  C_3
REMARK    2  A    between atoms: C_12  and  S_13
REMARK    3  A    between atoms: S_13  and  N_16
REMARK    4  A    between atoms: N_16  and  C_17
REMARK    5  A    between atoms: C_17  and  C_18
REMARK    6  A    between atoms: C_18  and  C_19
REMARK    7  A    between atoms: C_19  and  N_20
REMARK                            x       y       z     vdW  Elec       q    Type
REMARK                         _______ _______ _______ _____ _____    ______ ____
ROOT
ATOM      1  O   UNL     1       1.705  10.268  17.381  0.00  0.00    +0.000 OA
ATOM      2  C   UNL     1       1.101   9.762  18.334  0.00  0.00    +0.000 C 
ATOM      3  N   UNL     1       1.539   8.613  18.977  0.00  0.00    +0.000 N 
ATOM      4  C   UNL     1       0.886   7.930  20.108  0.00  0.00    +0.000 C 
ATOM      5  C   UNL     1       1.851   6.835  20.586  0.00  0.00    +0.000 C 
ATOM      6  C   UNL     1       2.820   6.766  19.447  0.00  0.00    +0.000 A 
ATOM      7  C   UNL     1       3.865   5.874  19.264  0.00  0.00    +0.000 A 
ATOM      8  C   UNL     1       4.698   6.041  18.145  0.00  0.00    +0.000 A 
ATOM      9  C   UNL     1       4.506   7.103  17.250  0.00  0.00    +0.000 A 
ATOM     10  C   UNL     1       3.455   8.003  17.462  0.00  0.00    +0.000 A 
ATOM     11  C   UNL     1       2.627   7.826  18.560  0.00  0.00    +0.000 A 
ENDROOT
BRANCH   2  12
ATOM     12  C   UNL     1      -0.178  10.423  18.923  0.00  0.00    +0.000 C 
ATOM     13  C   UNL     1      -0.139  11.971  18.984  0.00  0.00    +0.000 C 
ATOM     14  C   UNL     1      -1.629  11.974  18.615  0.00  0.00    +0.000 C 
ATOM     15  C   UNL     1      -1.414  10.585  17.988  0.00  0.00    +0.000 C 
ENDBRANCH   2  12
BRANCH   8  16
ATOM     16  S   UNL     1       6.065   4.924  17.949  0.00  0.00    +0.000 S 
ATOM     17  O   UNL     1       7.085   5.601  17.205  0.00  0.00    +0.000 OA
ATOM     18  O   UNL     1       6.337   4.346  19.261  0.00  0.00    +0.000 OA
BRANCH  16  19
ATOM     19  N   UNL     1       5.504   3.644  16.970  0.00  0.00    +0.000 NA
ATOM     20  H   UNL     1       5.509   2.792  17.530  0.00  0.00    +0.000 HD
BRANCH  19  21
ATOM     21  C   UNL     1       4.197   3.912  16.339  0.00  0.00    +0.000 C 
BRANCH  21  22
ATOM     22  C   UNL     1       3.148   2.920  16.814  0.00  0.00    +0.000 C 
BRANCH  22  23
ATOM     23  C   UNL     1       3.667   2.112  18.013  0.00  0.00    +0.000 C 
BRANCH  23  24
ATOM     24  N   UNL     1       2.754   2.164  19.167  0.00  0.00    +0.000 NA
ATOM     25  C   UNL     1       3.484   2.578  20.377  0.00  0.00    +0.000 C 
ATOM     26  C   UNL     1       2.581   2.566  21.606  0.00  0.00    +0.000 C 
ATOM     27  C   UNL     1       1.356   3.448  21.398  0.00  0.00    +0.000 C 
ATOM     28  C   UNL     1       0.652   3.083  20.098  0.00  0.00    +0.000 C 
ATOM     29  C   UNL     1       1.625   3.078  18.918  0.00  0.00    +0.000 C 
ENDBRANCH  23  24
ENDBRANCH  22  23
ENDBRANCH  21  22
ENDBRANCH  19  21
ENDBRANCH  16  19
ENDBRANCH   8  16
TORSDOF 7
ENDMDL
MODEL 3
REMARK VINA RESULT:      -7.3      2.363      4.296
REMARK  Name = 
REMARK  7 active torsions:
REMARK  status: ('A' for Active; 'I' for Inactive)
REMARK    1  A    between atoms: C_2  and  C_3
REMARK    2  A    between atoms: C_12  and  S_13
REMARK    3  A    between atoms: S_13  and  N_16
REMARK    4  A    between atoms: N_16  and  C_17
REMARK    5  A    between atoms: C_17  and  C_18
REMARK    6  A    between atoms: C_18  and  C_19
REMARK    7  A    between atoms: C_19  and  N_20
REMARK                            x       y       z     vdW  Elec       q    Type
REMARK                         _______ _______ _______ _____ _____    ______ ____
ROOT
ATOM      1  O   UNL     1       1.055   7.300  21.662  0.00  0.00    +0.000 OA
ATOM      2  C   UNL     1       0.793   8.296  20.978  0.00  0.00    +0.000 C 
ATOM      3  N   UNL     1       1.377   8.534  19.742  0.00  0.00    +0.000 N 
ATOM      4  C   UNL     1       1.140   9.691  18.861  0.00  0.00    +0.000 C 
ATOM      5  C   UNL     1       1.862   9.399  17.537  0.00  0.00    +0.000 C 
ATOM      6  C   UNL     1       2.742   8.251  17.917  0.00  0.00    +0.000 A 
ATOM      7  C   UNL     1       3.710   7.622  17.150  0.00  0.00    +0.000 A 
ATOM      8  C   UNL     1       4.374   6.509  17.691  0.00  0.00    +0.000 A 
ATOM      9  C   UNL     1       4.044   6.016  18.962  0.00  0.00    +0.000 A 
ATOM     10  C   UNL     1       3.051   6.654  19.714  0.00  0.00    +0.000 A 
ATOM     11  C   UNL     1       2.410   7.761  19.181  0.00  0.00    +0.000 A 
ENDROOT
BRANCH   2  12
ATOM     12  C   UNL     1      -0.272   9.333  21.435  0.00  0.00    +0.000 C 
ATOM     13  C   UNL     1      -0.645   9.261  22.938  0.00  0.00    +0.000 C 
ATOM     14  C   UNL     1      -0.739  10.793  22.939  0.00  0.00    +0.000 C 
ATOM     15  C   UNL     1       0.203  10.790  21.721  0.00  0.00    +0.000 C 
ENDBRANCH   2  12
BRANCH   8  16
ATOM     16  S   UNL     1       5.575   5.680  16.679  0.00  0.00    +0.000 S 
ATOM     17  O   UNL     1       6.008   6.597  15.668  0.00  0.00    +0.000 OA
ATOM     18  O   UNL     1       6.526   5.038  17.582  0.00  0.00    +0.000 OA
BRANCH  16  19
ATOM     19  N   UNL     1       4.746   4.420  15.883  0.00  0.00    +0.000 NA
ATOM     20  H   UNL     1       5.293   4.147  15.067  0.00  0.00    +0.000 HD
BRANCH  19  21
ATOM     21  C   UNL     1       4.415   3.282  16.762  0.00  0.00    +0.000 C 
BRANCH  21  22
ATOM     22  C   UNL     1       2.912   3.157  16.951  0.00  0.00    +0.000 C 
BRANCH  22  23
ATOM     23  C   UNL     1       2.568   1.902  17.768  0.00  0.00    +0.000 C 
BRANCH  23  24
ATOM     24  N   UNL     1       2.109   2.224  19.130  0.00  0.00    +0.000 NA
ATOM     25  C   UNL     1       3.259   2.326  20.045  0.00  0.00    +0.000 C 
ATOM     26  C   UNL     1       2.809   2.581  21.479  0.00  0.00    +0.000 C 
ATOM     27  C   UNL     1       1.945   3.831  21.572  0.00  0.00    +0.000 C 
ATOM     28  C   UNL     1       0.808   3.770  20.560  0.00  0.00    +0.000 C 
ATOM     29  C   UNL     1       1.329   3.473  19.153  0.00  0.00    +0.000 C 
ENDBRANCH  23  24
ENDBRANCH  22  23
ENDBRANCH  21  22
ENDBRANCH  19  21
ENDBRANCH  16  19
ENDBRANCH   8  16
TORSDOF 7
ENDMDL
MODEL 4
REMARK VINA RESULT:      -7.1      1.501      2.521
REMARK  Name = 
REMARK  7 active torsions:
REMARK  status: ('A' for Active; 'I' for Inactive)
REMARK    1  A    between atoms: C_2  and  C_3
REMARK    2  A    between atoms: C_12  and  S_13
REMARK    3  A    between atoms: S_13  and  N_16
REMARK    4  A    between atoms: N_16  and  C_17
REMARK    5  A    between atoms: C_17  and  C_18
REMARK    6  A    between atoms: C_18  and  C_19
REMARK    7  A    between atoms: C_19  and  N_20
REMARK                            x       y       z     vdW  Elec       q    Type
REMARK                         _______ _______ _______ _____ _____    ______ ____
ROOT
ATOM      1  O   UNL     1      -0.105   9.836  21.143  0.00  0.00    +0.000 OA
ATOM      2  C   UNL     1       0.433  10.228  20.102  0.00  0.00    +0.000 C 
ATOM      3  N   UNL     1       1.246   9.416  19.323  0.00  0.00    +0.000 N 
ATOM      4  C   UNL     1       1.938   9.792  18.078  0.00  0.00    +0.000 C 
ATOM      5  C   UNL     1       2.541   8.505  17.496  0.00  0.00    +0.000 C 
ATOM      6  C   UNL     1       2.434   7.567  18.657  0.00  0.00    +0.000 A 
ATOM      7  C   UNL     1       2.919   6.273  18.761  0.00  0.00    +0.000 A 
ATOM      8  C   UNL     1       2.639   5.545  19.930  0.00  0.00    +0.000 A 
ATOM      9  C   UNL     1       1.857   6.095  20.955  0.00  0.00    +0.000 A 
ATOM     10  C   UNL     1       1.362   7.398  20.824  0.00  0.00    +0.000 A 
ATOM     11  C   UNL     1       1.654   8.117  19.675  0.00  0.00    +0.000 A 
ENDROOT
BRANCH   2  12
ATOM     12  C   UNL     1       0.184  11.661  19.553  0.00  0.00    +0.000 C 
ATOM     13  C   UNL     1      -0.882  12.477  20.329  0.00  0.00    +0.000 C 
ATOM     14  C   UNL     1      -0.013  13.725  20.113  0.00  0.00    +0.000 C 
ATOM     15  C   UNL     1       1.193  12.782  19.949  0.00  0.00    +0.000 C 
ENDBRANCH   2  12
BRANCH   8  16
ATOM     16  S   UNL     1       3.221   3.870  20.029  0.00  0.00    +0.000 S 
ATOM     17  O   UNL     1       4.646   3.889  19.897  0.00  0.00    +0.000 OA
ATOM     18  O   UNL     1       2.572   3.260  21.186  0.00  0.00    +0.000 OA
BRANCH  16  19
ATOM     19  N   UNL     1       2.606   3.065  18.656  0.00  0.00    +0.000 NA
ATOM     20  H   UNL     1       1.925   3.678  18.208  0.00  0.00    +0.000 HD
BRANCH  19  21
ATOM     21  C   UNL     1       3.653   2.593  17.729  0.00  0.00    +0.000 C 
BRANCH  21  22
ATOM     22  C   UNL     1       3.792   3.529  16.540  0.00  0.00    +0.000 C 
BRANCH  22  23
ATOM     23  C   UNL     1       5.271   3.840  16.261  0.00  0.00    +0.000 C 
BRANCH  23  24
ATOM     24  N   UNL     1       5.798   4.906  17.129  0.00  0.00    +0.000 NA
ATOM     25  C   UNL     1       7.164   4.576  17.570  0.00  0.00    +0.000 C 
ATOM     26  C   UNL     1       7.708   5.625  18.533  0.00  0.00    +0.000 C 
ATOM     27  C   UNL     1       7.673   7.015  17.912  0.00  0.00    +0.000 C 
ATOM     28  C   UNL     1       6.283   7.322  17.370  0.00  0.00    +0.000 C 
ATOM     29  C   UNL     1       5.787   6.210  16.444  0.00  0.00    +0.000 C 
ENDBRANCH  23  24
ENDBRANCH  22  23
ENDBRANCH  21  22
ENDBRANCH  19  21
ENDBRANCH  16  19
ENDBRANCH   8  16
TORSDOF 7
ENDMDL
MODEL 5
REMARK VINA RESULT:      -7.1      2.381      4.300
REMARK  Name = 
REMARK  7 active torsions:
REMARK  status: ('A' for Active; 'I' for Inactive)
REMARK    1  A    between atoms: C_2  and  C_3
REMARK    2  A    between atoms: C_12  and  S_13
REMARK    3  A    between atoms: S_13  and  N_16
REMARK    4  A    between atoms: N_16  and  C_17
REMARK    5  A    between atoms: C_17  and  C_18
REMARK    6  A    between atoms: C_18  and  C_19
REMARK    7  A    between atoms: C_19  and  N_20
REMARK                            x       y       z     vdW  Elec       q    Type
REMARK                         _______ _______ _______ _____ _____    ______ ____
ROOT
ATOM      1  O   UNL     1       0.387  11.398  18.378  0.00  0.00    +0.000 OA
ATOM      2  C   UNL     1      -0.047  10.846  19.395  0.00  0.00    +0.000 C 
ATOM      3  N   UNL     1       0.492   9.671  19.900  0.00  0.00    +0.000 N 
ATOM      4  C   UNL     1       0.040   8.933  21.093  0.00  0.00    +0.000 C 
ATOM      5  C   UNL     1       1.070   7.821  21.347  0.00  0.00    +0.000 C 
ATOM      6  C   UNL     1       1.829   7.810  20.058  0.00  0.00    +0.000 A 
ATOM      7  C   UNL     1       2.824   6.933  19.657  0.00  0.00    +0.000 A 
ATOM      8  C   UNL     1       3.454   7.155  18.421  0.00  0.00    +0.000 A 
ATOM      9  C   UNL     1       3.114   8.257  17.623  0.00  0.00    +0.000 A 
ATOM     10  C   UNL     1       2.118   9.141  18.053  0.00  0.00    +0.000 A 
ATOM     11  C   UNL     1       1.490   8.909  19.266  0.00  0.00    +0.000 A 
ENDROOT
BRANCH   2  12
ATOM     12  C   UNL     1      -1.203  11.472  20.225  0.00  0.00    +0.000 C 
ATOM     13  C   UNL     1      -0.950  12.927  20.695  0.00  0.00    +0.000 C 
ATOM     14  C   UNL     1      -2.437  13.216  20.442  0.00  0.00    +0.000 C 
ATOM     15  C   UNL     1      -2.434  12.036  19.452  0.00  0.00    +0.000 C 
ENDBRANCH   2  12
BRANCH   8  16
ATOM     16  S   UNL     1       4.764   6.055  17.942  0.00  0.00    +0.000 S 
ATOM     17  O   UNL     1       5.750   6.822  17.242  0.00  0.00    +0.000 OA
ATOM     18  O   UNL     1       5.109   5.264  19.119  0.00  0.00    +0.000 OA
BRANCH  16  19
ATOM     19  N   UNL     1       4.090   4.967  16.815  0.00  0.00    +0.000 NA
ATOM     20  H   UNL     1       3.992   5.453  15.924  0.00  0.00    +0.000 HD
BRANCH  19  21
ATOM     21  C   UNL     1       4.836   3.698  16.699  0.00  0.00    +0.000 C 
BRANCH  21  22
ATOM     22  C   UNL     1       3.960   2.514  17.074  0.00  0.00    +0.000 C 
BRANCH  22  23
ATOM     23  C   UNL     1       2.536   2.977  17.416  0.00  0.00    +0.000 C 
BRANCH  23  24
ATOM     24  N   UNL     1       2.385   3.338  18.836  0.00  0.00    +0.000 NA
ATOM     25  C   UNL     1       0.958   3.441  19.187  0.00  0.00    +0.000 C 
ATOM     26  C   UNL     1       0.770   3.889  20.632  0.00  0.00    +0.000 C 
ATOM     27  C   UNL     1       1.487   2.956  21.597  0.00  0.00    +0.000 C 
ATOM     28  C   UNL     1       2.941   2.774  21.181  0.00  0.00    +0.000 C 
ATOM     29  C   UNL     1       3.054   2.362  19.712  0.00  0.00    +0.000 C 
ENDBRANCH  23  24
ENDBRANCH  22  23
ENDBRANCH  21  22
ENDBRANCH  19  21
ENDBRANCH  16  19
ENDBRANCH   8  16
TORSDOF 7
ENDMDL
MODEL 6
REMARK VINA RESULT:      -7.1      2.429      4.394
REMARK  Name = 
REMARK  7 active torsions:
REMARK  status: ('A' for Active; 'I' for Inactive)
REMARK    1  A    between atoms: C_2  and  C_3
REMARK    2  A    between atoms: C_12  and  S_13
REMARK    3  A    between atoms: S_13  and  N_16
REMARK    4  A    between atoms: N_16  and  C_17
REMARK    5  A    between atoms: C_17  and  C_18
REMARK    6  A    between atoms: C_18  and  C_19
REMARK    7  A    between atoms: C_19  and  N_20
REMARK                            x       y       z     vdW  Elec       q    Type
REMARK                         _______ _______ _______ _____ _____    ______ ____
ROOT
ATOM      1  O   UNL     1       1.640  10.121  17.395  0.00  0.00    +0.000 OA
ATOM      2  C   UNL     1       1.059   9.665  18.386  0.00  0.00    +0.000 C 
ATOM      3  N   UNL     1       1.515   8.555  19.082  0.00  0.00    +0.000 N 
ATOM      4  C   UNL     1       0.890   7.932  20.261  0.00  0.00    +0.000 C 
ATOM      5  C   UNL     1       1.870   6.868  20.778  0.00  0.00    +0.000 C 
ATOM      6  C   UNL     1       2.815   6.741  19.625  0.00  0.00    +0.000 A 
ATOM      7  C   UNL     1       3.860   5.844  19.468  0.00  0.00    +0.000 A 
ATOM      8  C   UNL     1       4.668   5.952  18.324  0.00  0.00    +0.000 A 
ATOM      9  C   UNL     1       4.453   6.963  17.377  0.00  0.00    +0.000 A 
ATOM     10  C   UNL     1       3.402   7.870  17.562  0.00  0.00    +0.000 A 
ATOM     11  C   UNL     1       2.599   7.750  18.685  0.00  0.00    +0.000 A 
ENDROOT
BRANCH   2  12
ATOM     12  C   UNL     1      -0.210  10.352  18.965  0.00  0.00    +0.000 C 
ATOM     13  C   UNL     1      -0.176  11.902  18.943  0.00  0.00    +0.000 C 
ATOM     14  C   UNL     1      -1.674  11.881  18.605  0.00  0.00    +0.000 C 
ATOM     15  C   UNL     1      -1.466  10.461  18.048  0.00  0.00    +0.000 C 
ENDBRANCH   2  12
BRANCH   8  16
ATOM     16  S   UNL     1       6.037   4.831  18.161  0.00  0.00    +0.000 S 
ATOM     17  O   UNL     1       7.221   5.608  17.949  0.00  0.00    +0.000 OA
ATOM     18  O   UNL     1       5.940   3.875  19.260  0.00  0.00    +0.000 OA
BRANCH  16  19
ATOM     19  N   UNL     1       5.763   3.944  16.730  0.00  0.00    +0.000 NA
ATOM     20  H   UNL     1       6.365   3.121  16.747  0.00  0.00    +0.000 HD
BRANCH  19  21
ATOM     21  C   UNL     1       4.343   3.615  16.500  0.00  0.00    +0.000 C 
BRANCH  21  22
ATOM     22  C   UNL     1       4.000   2.249  17.072  0.00  0.00    +0.000 C 
BRANCH  22  23
ATOM     23  C   UNL     1       2.531   2.199  17.519  0.00  0.00    +0.000 C 
BRANCH  23  24
ATOM     24  N   UNL     1       2.322   2.812  18.841  0.00  0.00    +0.000 NA
ATOM     25  C   UNL     1       0.888   2.822  19.178  0.00  0.00    +0.000 C 
ATOM     26  C   UNL     1       0.632   3.521  20.508  0.00  0.00    +0.000 C 
ATOM     27  C   UNL     1       1.435   2.880  21.632  0.00  0.00    +0.000 C 
ATOM     28  C   UNL     1       2.906   2.784  21.247  0.00  0.00    +0.000 C 
ATOM     29  C   UNL     1       3.084   2.107  19.887  0.00  0.00    +0.000 C 
ENDBRANCH  23  24
ENDBRANCH  22  23
ENDBRANCH  21  22
ENDBRANCH  19  21
ENDBRANCH  16  19
ENDBRANCH   8  16
TORSDOF 7
ENDMDL
MODEL 7
REMARK VINA RESULT:      -7.0      1.695      2.996
REMARK  Name = 
REMARK  7 active torsions:
REMARK  status: ('A' for Active; 'I' for Inactive)
REMARK    1  A    between atoms: C_2  and  C_3
REMARK    2  A    between atoms: C_12  and  S_13
REMARK    3  A    between atoms: S_13  and  N_16
REMARK    4  A    between atoms: N_16  and  C_17
REMARK    5  A    between atoms: C_17  and  C_18
REMARK    6  A    between atoms: C_18  and  C_19
REMARK    7  A    between atoms: C_19  and  N_20
REMARK                            x       y       z     vdW  Elec       q    Type
REMARK                         _______ _______ _______ _____ _____    ______ ____
ROOT
ATOM      1  O   UNL     1       2.035  10.250  17.494  0.00  0.00    +0.000 OA
ATOM      2  C   UNL     1       1.490  10.332  18.600  0.00  0.00    +0.000 C 
ATOM      3  N   UNL     1       1.419   9.264  19.484  0.00  0.00    +0.000 N 
ATOM      4  C   UNL     1       0.785   9.259  20.814  0.00  0.00    +0.000 C 
ATOM      5  C   UNL     1       1.141   7.919  21.474  0.00  0.00    +0.000 C 
ATOM      6  C   UNL     1       1.656   7.134  20.309  0.00  0.00    +0.000 A 
ATOM      7  C   UNL     1       2.033   5.801  20.273  0.00  0.00    +0.000 A 
ATOM      8  C   UNL     1       2.559   5.287  19.076  0.00  0.00    +0.000 A 
ATOM      9  C   UNL     1       2.735   6.105  17.951  0.00  0.00    +0.000 A 
ATOM     10  C   UNL     1       2.364   7.453  18.013  0.00  0.00    +0.000 A 
ATOM     11  C   UNL     1       1.832   7.952  19.192  0.00  0.00    +0.000 A 
ENDROOT
BRANCH   2  12
ATOM     12  C   UNL     1       0.893  11.674  19.110  0.00  0.00    +0.000 C 
ATOM     13  C   UNL     1       1.495  12.943  18.453  0.00  0.00    +0.000 C 
ATOM     14  C   UNL     1       0.092  13.565  18.485  0.00  0.00    +0.000 C 
ATOM     15  C   UNL     1      -0.475  12.135  18.523  0.00  0.00    +0.000 C 
ENDBRANCH   2  12
BRANCH   8  16
ATOM     16  S   UNL     1       3.087   3.591  19.058  0.00  0.00    +0.000 S 
ATOM     17  O   UNL     1       3.379   3.205  20.406  0.00  0.00    +0.000 OA
ATOM     18  O   UNL     1       2.125   2.852  18.246  0.00  0.00    +0.000 OA
BRANCH  16  19
ATOM     19  N   UNL     1       4.562   3.556  18.202  0.00  0.00    +0.000 NA
ATOM     20  H   UNL     1       4.965   2.625  18.302  0.00  0.00    +0.000 HD
BRANCH  19  21
ATOM     21  C   UNL     1       4.439   3.983  16.794  0.00  0.00    +0.000 C 
BRANCH  21  22
ATOM     22  C   UNL     1       5.519   3.346  15.935  0.00  0.00    +0.000 C 
BRANCH  22  23
ATOM     23  C   UNL     1       6.729   4.282  15.799  0.00  0.00    +0.000 C 
BRANCH  23  24
ATOM     24  N   UNL     1       6.822   5.250  16.905  0.00  0.00    +0.000 NA
ATOM     25  C   UNL     1       7.770   4.771  17.925  0.00  0.00    +0.000 C 
ATOM     26  C   UNL     1       7.829   5.716  19.120  0.00  0.00    +0.000 C 
ATOM     27  C   UNL     1       8.186   7.131  18.686  0.00  0.00    +0.000 C 
ATOM     28  C   UNL     1       7.265   7.594  17.565  0.00  0.00    +0.000 C 
ATOM     29  C   UNL     1       7.227   6.581  16.420  0.00  0.00    +0.000 C 
ENDBRANCH  23  24
ENDBRANCH  22  23
ENDBRANCH  21  22
ENDBRANCH  19  21
ENDBRANCH  16  19
ENDBRANCH   8  16
TORSDOF 7
ENDMDL
MODEL 8
REMARK VINA RESULT:      -7.0      1.016      2.298
REMARK  Name = 
REMARK  7 active torsions:
REMARK  status: ('A' for Active; 'I' for Inactive)
REMARK    1  A    between atoms: C_2  and  C_3
REMARK    2  A    between atoms: C_12  and  S_13
REMARK    3  A    between atoms: S_13  and  N_16
REMARK    4  A    between atoms: N_16  and  C_17
REMARK    5  A    between atoms: C_17  and  C_18
REMARK    6  A    between atoms: C_18  and  C_19
REMARK    7  A    between atoms: C_19  and  N_20
REMARK                            x       y       z     vdW  Elec       q    Type
REMARK                         _______ _______ _______ _____ _____    ______ ____
ROOT
ATOM      1  O   UNL     1       0.126   8.784  21.505  0.00  0.00    +0.000 OA
ATOM      2  C   UNL     1       0.596   9.386  20.533  0.00  0.00    +0.000 C 
ATOM      3  N   UNL     1       1.368   8.763  19.563  0.00  0.00    +0.000 N 
ATOM      4  C   UNL     1       1.979   9.394  18.380  0.00  0.00    +0.000 C 
ATOM      5  C   UNL     1       2.559   8.261  17.519  0.00  0.00    +0.000 C 
ATOM      6  C   UNL     1       2.533   7.110  18.474  0.00  0.00    +0.000 A 
ATOM      7  C   UNL     1       3.037   5.832  18.291  0.00  0.00    +0.000 A 
ATOM      8  C   UNL     1       2.836   4.881  19.305  0.00  0.00    +0.000 A 
ATOM      9  C   UNL     1       2.113   5.199  20.463  0.00  0.00    +0.000 A 
ATOM     10  C   UNL     1       1.597   6.491  20.623  0.00  0.00    +0.000 A 
ATOM     11  C   UNL     1       1.810   7.429  19.625  0.00  0.00    +0.000 A 
ENDROOT
BRANCH   2  12
ATOM     12  C   UNL     1       0.298  10.894  20.296  0.00  0.00    +0.000 C 
ATOM     13  C   UNL     1      -0.776  11.499  21.235  0.00  0.00    +0.000 C 
ATOM     14  C   UNL     1       0.054  12.790  21.274  0.00  0.00    +0.000 C 
ATOM     15  C   UNL     1       1.283  11.938  20.905  0.00  0.00    +0.000 C 
ENDBRANCH   2  12
BRANCH   8  16
ATOM     16  S   UNL     1       3.440   3.233  19.035  0.00  0.00    +0.000 S 
ATOM     17  O   UNL     1       3.867   2.707  20.297  0.00  0.00    +0.000 OA
ATOM     18  O   UNL     1       2.446   2.541  18.220  0.00  0.00    +0.000 OA
BRANCH  16  19
ATOM     19  N   UNL     1       4.834   3.385  18.064  0.00  0.00    +0.000 NA
ATOM     20  H   UNL     1       5.348   2.505  18.108  0.00  0.00    +0.000 HD
BRANCH  19  21
ATOM     21  C   UNL     1       4.548   3.816  16.682  0.00  0.00    +0.000 C 
BRANCH  21  22
ATOM     22  C   UNL     1       5.639   3.357  15.729  0.00  0.00    +0.000 C 
BRANCH  22  23
ATOM     23  C   UNL     1       6.731   4.430  15.595  0.00  0.00    +0.000 C 
BRANCH  23  24
ATOM     24  N   UNL     1       6.816   5.301  16.779  0.00  0.00    +0.000 NA
ATOM     25  C   UNL     1       7.775   4.749  17.751  0.00  0.00    +0.000 C 
ATOM     26  C   UNL     1       7.827   5.589  19.023  0.00  0.00    +0.000 C 
ATOM     27  C   UNL     1       8.165   7.041  18.711  0.00  0.00    +0.000 C 
ATOM     28  C   UNL     1       7.232   7.586  17.637  0.00  0.00    +0.000 C 
ATOM     29  C   UNL     1       7.202   6.674  16.409  0.00  0.00    +0.000 C 
ENDBRANCH  23  24
ENDBRANCH  22  23
ENDBRANCH  21  22
ENDBRANCH  19  21
ENDBRANCH  16  19
ENDBRANCH   8  16
TORSDOF 7
ENDMDL
MODEL 9
REMARK VINA RESULT:      -6.8      2.309      3.423
REMARK  Name = 
REMARK  7 active torsions:
REMARK  status: ('A' for Active; 'I' for Inactive)
REMARK    1  A    between atoms: C_2  and  C_3
REMARK    2  A    between atoms: C_12  and  S_13
REMARK    3  A    between atoms: S_13  and  N_16
REMARK    4  A    between atoms: N_16  and  C_17
REMARK    5  A    between atoms: C_17  and  C_18
REMARK    6  A    between atoms: C_18  and  C_19
REMARK    7  A    between atoms: C_19  and  N_20
REMARK                            x       y       z     vdW  Elec       q    Type
REMARK                         _______ _______ _______ _____ _____    ______ ____
ROOT
ATOM      1  O   UNL     1       1.606  12.015  18.218  0.00  0.00    +0.000 OA
ATOM      2  C   UNL     1       1.026  12.066  19.309  0.00  0.00    +0.000 C 
ATOM      3  N   UNL     1       0.907  10.968  20.149  0.00  0.00    +0.000 N 
ATOM      4  C   UNL     1       0.228  10.925  21.456  0.00  0.00    +0.000 C 
ATOM      5  C   UNL     1       0.539   9.555  22.077  0.00  0.00    +0.000 C 
ATOM      6  C   UNL     1       1.081   8.805  20.902  0.00  0.00    +0.000 A 
ATOM      7  C   UNL     1       1.438   7.468  20.828  0.00  0.00    +0.000 A 
ATOM      8  C   UNL     1       1.995   6.988  19.631  0.00  0.00    +0.000 A 
ATOM      9  C   UNL     1       2.223   7.844  18.545  0.00  0.00    +0.000 A 
ATOM     10  C   UNL     1       1.872   9.196  18.644  0.00  0.00    +0.000 A 
ATOM     11  C   UNL     1       1.308   9.660  19.822  0.00  0.00    +0.000 A 
ENDROOT
BRANCH   2  12
ATOM     12  C   UNL     1       0.434  13.399  19.848  0.00  0.00    +0.000 C 
ATOM     13  C   UNL     1       1.486  14.484  20.192  0.00  0.00    +0.000 C 
ATOM     14  C   UNL     1       0.507  15.536  19.651  0.00  0.00    +0.000 C 
ATOM     15  C   UNL     1      -0.137  14.416  18.814  0.00  0.00    +0.000 C 
ENDBRANCH   2  12
BRANCH   8  16
ATOM     16  S   UNL     1       2.496   5.286  19.568  0.00  0.00    +0.000 S 
ATOM     17  O   UNL     1       3.895   5.226  19.866  0.00  0.00    +0.000 OA
ATOM     18  O   UNL     1       1.521   4.524  20.341  0.00  0.00    +0.000 OA
BRANCH  16  19
ATOM     19  N   UNL     1       2.313   4.791  17.946  0.00  0.00    +0.000 NA
ATOM     20  H   UNL     1       2.825   5.446  17.355  0.00  0.00    +0.000 HD
BRANCH  19  21
ATOM     21  C   UNL     1       2.693   3.384  17.710  0.00  0.00    +0.000 C 
BRANCH  21  22
ATOM     22  C   UNL     1       4.163   3.271  17.341  0.00  0.00    +0.000 C 
BRANCH  22  23
ATOM     23  C   UNL     1       4.559   4.365  16.339  0.00  0.00    +0.000 C 
BRANCH  23  24
ATOM     24  N   UNL     1       5.826   5.026  16.695  0.00  0.00    +0.000 NA
ATOM     25  C   UNL     1       5.583   6.433  17.058  0.00  0.00    +0.000 C 
ATOM     26  C   UNL     1       6.886   7.165  17.357  0.00  0.00    +0.000 C 
ATOM     27  C   UNL     1       7.674   6.463  18.454  0.00  0.00    +0.000 C 
ATOM     28  C   UNL     1       7.846   4.985  18.125  0.00  0.00    +0.000 C 
ATOM     29  C   UNL     1       6.505   4.327  17.799  0.00  0.00    +0.000 C 
ENDBRANCH  23  24
ENDBRANCH  22  23
ENDBRANCH  21  22
ENDBRANCH  19  21
ENDBRANCH  16  19
ENDBRANCH   8  16
TORSDOF 7
ENDMDL
