MODEL 1
REMARK VINA RESULT:      -7.4      0.000      0.000
REMARK  Name = 
REMARK  5 active torsions:
REMARK  status: ('A' for Active; 'I' for Inactive)
REMARK    1  A    between atoms: C_5  and  C_6
REMARK    2  A    between atoms: N_9  and  C_10
REMARK    3  A    between atoms: C_10  and  C_11
REMARK    4  A    between atoms: C_11  and  N_12
REMARK    5  A    between atoms: C_21  and  N_22
REMARK                            x       y       z     vdW  Elec       q    Type
REMARK                         _______ _______ _______ _____ _____    ______ ____
ROOT
ATOM      1  C   UNL     1       2.508   6.500  19.328  0.00  0.00    +0.000 A 
ATOM      2  N   UNL     1       2.378   7.798  18.950  0.00  0.00    +0.000 NA
ATOM      3  C   UNL     1       1.535   8.600  19.616  0.00  0.00    +0.000 A 
ATOM      4  N   UNL     1       1.502   9.922  19.222  0.00  0.00    +0.000 N 
ATOM      5  N   UNL     1       0.750   8.177  20.607  0.00  0.00    +0.000 NA
ATOM      6  C   UNL     1       0.856   6.889  20.962  0.00  0.00    +0.000 A 
ATOM      7  C   UNL     1       1.746   6.007  20.385  0.00  0.00    +0.000 A 
ATOM      8  H   UNL     1       2.298  10.105  18.620  0.00  0.00    +0.000 HD
ENDROOT
BRANCH   1  13
ATOM      9 CL   UNL     1       6.285   3.699  15.521  0.00  0.00    +0.000 Cl
ATOM     10  C   UNL     1       5.219   4.407  16.668  0.00  0.00    +0.000 A 
ATOM     11  C   UNL     1       5.698   5.340  17.574  0.00  0.00    +0.000 A 
ATOM     12  C   UNL     1       4.820   5.930  18.491  0.00  0.00    +0.000 A 
ATOM     13  C   UNL     1       3.420   5.698  18.458  0.00  0.00    +0.000 A 
ATOM     14  C   UNL     1       2.983   4.698  17.557  0.00  0.00    +0.000 A 
ATOM     15 CL   UNL     1       1.322   4.220  17.400  0.00  0.00    +0.000 Cl
ATOM     16  C   UNL     1       3.876   4.053  16.683  0.00  0.00    +0.000 A 
ENDBRANCH   1  13
BRANCH   7  17
ATOM     17  N   UNL     1       1.816   4.697  20.904  0.00  0.00    +0.000 N 
ATOM     18  C   UNL     1       0.942   3.663  20.630  0.00  0.00    +0.000 A 
ATOM     19  C   UNL     1       1.460   2.554  21.255  0.00  0.00    +0.000 A 
ATOM     20  N   UNL     1       2.575   2.882  21.971  0.00  0.00    +0.000 NA
ATOM     21  C   UNL     1       2.741   4.171  21.780  0.00  0.00    +0.000 A 
ENDBRANCH   7  17
BRANCH   4  22
ATOM     22  C   UNL     1       1.170  10.938  20.220  0.00  0.00    +0.000 C 
BRANCH  22  23
ATOM     23  C   UNL     1       0.283  12.053  19.631  0.00  0.00    +0.000 C 
BRANCH  23  24
ATOM     24  N   UNL     1      -1.126  11.813  19.922  0.00  0.00    +0.000 N 
ATOM     25  C   UNL     1      -1.852  11.297  18.857  0.00  0.00    +0.000 A 
ATOM     26  N   UNL     1      -1.265  10.491  17.961  0.00  0.00    +0.000 NA
ATOM     27  C   UNL     1      -2.031  10.028  16.957  0.00  0.00    +0.000 A 
ATOM     28  C   UNL     1      -3.359  10.338  16.811  0.00  0.00    +0.000 A 
ATOM     29  C   UNL     1      -3.869  11.171  17.774  0.00  0.00    +0.000 A 
ATOM     30  N   UNL     1      -3.140  11.664  18.796  0.00  0.00    +0.000 NA
ATOM     31  H   UNL     1      -1.656  12.613  20.254  0.00  0.00    +0.000 HD
ENDBRANCH  23  24
ENDBRANCH  22  23
ENDBRANCH   4  22
TORSDOF 5
ENDMDL
MODEL 2
REMARK VINA RESULT:      -7.3      2.448      3.297
REMARK  Name = 
REMARK  5 active torsions:
REMARK  status: ('A' for Active; 'I' for Inactive)
REMARK    1  A    between atoms: C_5  and  C_6
REMARK    2  A    between atoms: N_9  and  C_10
REMARK    3  A    between atoms: C_10  and  C_11
REMARK    4  A    between atoms: C_11  and  N_12
REMARK    5  A    between atoms: C_21  and  N_22
REMARK                            x       y       z     vdW  Elec       q    Type
REMARK                         _______ _______ _______ _____ _____    ______ ____
ROOT
ATOM      1  C   UNL     1       3.661   5.565  18.903  0.00  0.00    +0.000 A 
ATOM      2  N   UNL     1       3.152   6.801  19.145  0.00  0.00    +0.000 NA
ATOM      3  C   UNL     1       2.183   6.950  20.059  0.00  0.00    +0.000 A 
ATOM      4  N   UNL     1       1.759   8.241  20.302  0.00  0.00    +0.000 N 
ATOM      5  N   UNL     1       1.627   5.929  20.712  0.00  0.00    +0.000 NA
ATOM      6  C   UNL     1       2.108   4.705  20.452  0.00  0.00    +0.000 A 
ATOM      7  C   UNL     1       3.153   4.461  19.585  0.00  0.00    +0.000 A 
ATOM      8  H   UNL     1       2.422   8.887  19.887  0.00  0.00    +0.000 HD
ENDROOT
BRANCH   1  13
ATOM      9 CL   UNL     1       7.615   4.912  14.371  0.00  0.00    +0.000 Cl
ATOM     10  C   UNL     1       6.517   5.205  15.660  0.00  0.00    +0.000 A 
ATOM     11  C   UNL     1       5.162   5.333  15.397  0.00  0.00    +0.000 A 
ATOM     12  C   UNL     1       4.268   5.548  16.453  0.00  0.00    +0.000 A 
ATOM     13  C   UNL     1       4.680   5.526  17.811  0.00  0.00    +0.000 A 
ATOM     14  C   UNL     1       6.076   5.450  18.030  0.00  0.00    +0.000 A 
ATOM     15 CL   UNL     1       6.794   5.468  19.610  0.00  0.00    +0.000 Cl
ATOM     16  C   UNL     1       6.982   5.304  16.964  0.00  0.00    +0.000 A 
ENDBRANCH   1  13
BRANCH   7  17
ATOM     17  N   UNL     1       3.618   3.135  19.460  0.00  0.00    +0.000 N 
ATOM     18  C   UNL     1       3.220   2.218  18.508  0.00  0.00    +0.000 A 
ATOM     19  C   UNL     1       4.013   1.110  18.695  0.00  0.00    +0.000 A 
ATOM     20  N   UNL     1       4.828   1.280  19.778  0.00  0.00    +0.000 NA
ATOM     21  C   UNL     1       4.543   2.475  20.239  0.00  0.00    +0.000 A 
ENDBRANCH   7  17
BRANCH   4  22
ATOM     22  C   UNL     1       1.250   8.567  21.633  0.00  0.00    +0.000 C 
BRANCH  22  23
ATOM     23  C   UNL     1      -0.227   9.009  21.589  0.00  0.00    +0.000 C 
BRANCH  23  24
ATOM     24  N   UNL     1      -0.366  10.413  21.960  0.00  0.00    +0.000 N 
ATOM     25  C   UNL     1       0.167  11.305  21.038  0.00  0.00    +0.000 A 
ATOM     26  N   UNL     1       0.165  11.013  19.730  0.00  0.00    +0.000 NA
ATOM     27  C   UNL     1       0.696  11.924  18.896  0.00  0.00    +0.000 A 
ATOM     28  C   UNL     1       1.231  13.116  19.316  0.00  0.00    +0.000 A 
ATOM     29  C   UNL     1       1.189  13.324  20.671  0.00  0.00    +0.000 A 
ATOM     30  N   UNL     1       0.672  12.438  21.547  0.00  0.00    +0.000 NA
ATOM     31  H   UNL     1       0.026  10.680  22.858  0.00  0.00    +0.000 HD
ENDBRANCH  23  24
ENDBRANCH  22  23
ENDBRANCH   4  22
TORSDOF 5
ENDMDL
MODEL 3
REMARK VINA RESULT:      -7.2      2.086      3.014
REMARK  Name = 
REMARK  5 active torsions:
REMARK  status: ('A' for Active; 'I' for Inactive)
REMARK    1  A    between atoms: C_5  and  C_6
REMARK    2  A    between atoms: N_9  and  C_10
REMARK    3  A    between atoms: C_10  and  C_11
REMARK    4  A    between atoms: C_11  and  N_12
REMARK    5  A    between atoms: C_21  and  N_22
REMARK                            x       y       z     vdW  Elec       q    Type
REMARK                         _______ _______ _______ _____ _____    ______ ____
ROOT
ATOM      1  C   UNL     1       3.696   5.578  18.821  0.00  0.00    +0.000 A 
ATOM      2  N   UNL     1       3.202   6.811  19.105  0.00  0.00    +0.000 NA
ATOM      3  C   UNL     1       2.219   6.938  20.008  0.00  0.00    +0.000 A 
ATOM      4  N   UNL     1       1.811   8.224  20.296  0.00  0.00    +0.000 N 
ATOM      5  N   UNL     1       1.638   5.900  20.609  0.00  0.00    +0.000 NA
ATOM      6  C   UNL     1       2.104   4.681  20.308  0.00  0.00    +0.000 A 
ATOM      7  C   UNL     1       3.160   4.455  19.449  0.00  0.00    +0.000 A 
ATOM      8  H   UNL     1       2.491   8.876  19.919  0.00  0.00    +0.000 HD
ENDROOT
BRANCH   1  13
ATOM      9 CL   UNL     1       7.724   5.042  14.339  0.00  0.00    +0.000 Cl
ATOM     10  C   UNL     1       6.604   5.301  15.616  0.00  0.00    +0.000 A 
ATOM     11  C   UNL     1       5.254   5.437  15.335  0.00  0.00    +0.000 A 
ATOM     12  C   UNL     1       4.343   5.625  16.382  0.00  0.00    +0.000 A 
ATOM     13  C   UNL     1       4.733   5.567  17.745  0.00  0.00    +0.000 A 
ATOM     14  C   UNL     1       6.125   5.485  17.985  0.00  0.00    +0.000 A 
ATOM     15 CL   UNL     1       6.817   5.460  19.576  0.00  0.00    +0.000 Cl
ATOM     16  C   UNL     1       7.048   5.366  16.930  0.00  0.00    +0.000 A 
ENDBRANCH   1  13
BRANCH   7  17
ATOM     17  N   UNL     1       3.607   3.128  19.278  0.00  0.00    +0.000 N 
ATOM     18  C   UNL     1       4.486   2.451  20.100  0.00  0.00    +0.000 A 
ATOM     19  C   UNL     1       4.540   1.165  19.618  0.00  0.00    +0.000 A 
ATOM     20  N   UNL     1       3.791   1.045  18.482  0.00  0.00    +0.000 NA
ATOM     21  C   UNL     1       3.281   2.237  18.278  0.00  0.00    +0.000 A 
ENDBRANCH   7  17
BRANCH   4  22
ATOM     22  C   UNL     1       1.284   8.505  21.631  0.00  0.00    +0.000 C 
BRANCH  22  23
ATOM     23  C   UNL     1       0.315   9.704  21.625  0.00  0.00    +0.000 C 
BRANCH  23  24
ATOM     24  N   UNL     1      -0.480   9.731  20.402  0.00  0.00    +0.000 N 
ATOM     25  C   UNL     1      -0.407  10.924  19.696  0.00  0.00    +0.000 A 
ATOM     26  N   UNL     1       0.716  11.656  19.714  0.00  0.00    +0.000 NA
ATOM     27  C   UNL     1       0.715  12.800  19.005  0.00  0.00    +0.000 A 
ATOM     28  C   UNL     1      -0.363  13.243  18.282  0.00  0.00    +0.000 A 
ATOM     29  C   UNL     1      -1.466  12.428  18.327  0.00  0.00    +0.000 A 
ATOM     30  N   UNL     1      -1.514  11.276  19.026  0.00  0.00    +0.000 NA
ATOM     31  H   UNL     1      -1.472   9.536  20.509  0.00  0.00    +0.000 HD
ENDBRANCH  23  24
ENDBRANCH  22  23
ENDBRANCH   4  22
TORSDOF 5
ENDMDL
MODEL 4
REMARK VINA RESULT:      -7.2      3.374      8.820
REMARK  Name = 
REMARK  5 active torsions:
REMARK  status: ('A' for Active; 'I' for Inactive)
REMARK    1  A    between atoms: C_5  and  C_6
REMARK    2  A    between atoms: N_9  and  C_10
REMARK    3  A    between atoms: C_10  and  C_11
REMARK    4  A    between atoms: C_11  and  N_12
REMARK    5  A    between atoms: C_21  and  N_22
REMARK                            x       y       z     vdW  Elec       q    Type
REMARK                         _______ _______ _______ _____ _____    ______ ____
ROOT
ATOM      1  C   UNL     1       0.667  10.934  19.788  0.00  0.00    +0.000 A 
ATOM      2  N   UNL     1       0.845   9.628  19.460  0.00  0.00    +0.000 NA
ATOM      3  C   UNL     1       1.726   9.299  18.505  0.00  0.00    +0.000 A 
ATOM      4  N   UNL     1       1.904   7.951  18.270  0.00  0.00    +0.000 N 
ATOM      5  N   UNL     1       2.406  10.199  17.794  0.00  0.00    +0.000 NA
ATOM      6  C   UNL     1       2.210  11.490  18.097  0.00  0.00    +0.000 A 
ATOM      7  C   UNL     1       1.381  11.921  19.111  0.00  0.00    +0.000 A 
ATOM      8  H   UNL     1       1.480   7.427  19.028  0.00  0.00    +0.000 HD
ENDROOT
BRANCH   1  13
ATOM      9 CL   UNL     1      -3.457  12.390  23.968  0.00  0.00    +0.000 Cl
ATOM     10  C   UNL     1      -2.342  11.884  22.763  0.00  0.00    +0.000 A 
ATOM     11  C   UNL     1      -2.430  12.399  21.480  0.00  0.00    +0.000 A 
ATOM     12  C   UNL     1      -1.504  12.001  20.507  0.00  0.00    +0.000 A 
ATOM     13  C   UNL     1      -0.396  11.169  20.812  0.00  0.00    +0.000 A 
ATOM     14  C   UNL     1      -0.377  10.621  22.117  0.00  0.00    +0.000 A 
ATOM     15 CL   UNL     1       0.857   9.536  22.675  0.00  0.00    +0.000 Cl
ATOM     16  C   UNL     1      -1.347  10.966  23.074  0.00  0.00    +0.000 A 
ENDBRANCH   1  13
BRANCH   7  17
ATOM     17  N   UNL     1       1.323  13.305  19.381  0.00  0.00    +0.000 N 
ATOM     18  C   UNL     1       1.861  13.945  20.479  0.00  0.00    +0.000 A 
ATOM     19  C   UNL     1       1.667  15.290  20.266  0.00  0.00    +0.000 A 
ATOM     20  N   UNL     1       0.958  15.497  19.118  0.00  0.00    +0.000 NA
ATOM     21  C   UNL     1       0.730  14.298  18.632  0.00  0.00    +0.000 A 
ENDBRANCH   7  17
BRANCH   4  22
ATOM     22  C   UNL     1       3.207   7.495  17.787  0.00  0.00    +0.000 C 
BRANCH  22  23
ATOM     23  C   UNL     1       3.451   6.008  18.113  0.00  0.00    +0.000 C 
BRANCH  23  24
ATOM     24  N   UNL     1       2.203   5.252  18.084  0.00  0.00    +0.000 N 
ATOM     25  C   UNL     1       1.991   4.453  19.199  0.00  0.00    +0.000 A 
ATOM     26  N   UNL     1       2.454   4.826  20.400  0.00  0.00    +0.000 NA
ATOM     27  C   UNL     1       2.208   4.004  21.436  0.00  0.00    +0.000 A 
ATOM     28  C   UNL     1       1.521   2.822  21.320  0.00  0.00    +0.000 A 
ATOM     29  C   UNL     1       1.090   2.525  20.052  0.00  0.00    +0.000 A 
ATOM     30  N   UNL     1       1.315   3.316  18.983  0.00  0.00    +0.000 NA
ATOM     31  H   UNL     1       2.068   4.644  17.281  0.00  0.00    +0.000 HD
ENDBRANCH  23  24
ENDBRANCH  22  23
ENDBRANCH   4  22
TORSDOF 5
ENDMDL
MODEL 5
REMARK VINA RESULT:      -7.2      2.392      3.422
REMARK  Name = 
REMARK  5 active torsions:
REMARK  status: ('A' for Active; 'I' for Inactive)
REMARK    1  A    between atoms: C_5  and  C_6
REMARK    2  A    between atoms: N_9  and  C_10
REMARK    3  A    between atoms: C_10  and  C_11
REMARK    4  A    between atoms: C_11  and  N_12
REMARK    5  A    between atoms: C_21  and  N_22
REMARK                            x       y       z     vdW  Elec       q    Type
REMARK                         _______ _______ _______ _____ _____    ______ ____
ROOT
ATOM      1  C   UNL     1       3.680   5.540  18.806  0.00  0.00    +0.000 A 
ATOM      2  N   UNL     1       3.184   6.775  19.076  0.00  0.00    +0.000 NA
ATOM      3  C   UNL     1       2.205   6.912  19.982  0.00  0.00    +0.000 A 
ATOM      4  N   UNL     1       1.795   8.200  20.256  0.00  0.00    +0.000 N 
ATOM      5  N   UNL     1       1.630   5.880  20.601  0.00  0.00    +0.000 NA
ATOM      6  C   UNL     1       2.099   4.658  20.314  0.00  0.00    +0.000 A 
ATOM      7  C   UNL     1       3.150   4.424  19.452  0.00  0.00    +0.000 A 
ATOM      8  H   UNL     1       2.471   8.849  19.866  0.00  0.00    +0.000 HD
ENDROOT
BRANCH   1  13
ATOM      9 CL   UNL     1       7.695   4.950  14.320  0.00  0.00    +0.000 Cl
ATOM     10  C   UNL     1       6.577   5.225  15.595  0.00  0.00    +0.000 A 
ATOM     11  C   UNL     1       5.223   5.325  15.317  0.00  0.00    +0.000 A 
ATOM     12  C   UNL     1       4.314   5.526  16.364  0.00  0.00    +0.000 A 
ATOM     13  C   UNL     1       4.711   5.517  17.726  0.00  0.00    +0.000 A 
ATOM     14  C   UNL     1       6.107   5.469  17.960  0.00  0.00    +0.000 A 
ATOM     15 CL   UNL     1       6.807   5.506  19.548  0.00  0.00    +0.000 Cl
ATOM     16  C   UNL     1       7.026   5.338  16.904  0.00  0.00    +0.000 A 
ENDBRANCH   1  13
BRANCH   7  17
ATOM     17  N   UNL     1       3.601   3.096  19.297  0.00  0.00    +0.000 N 
ATOM     18  C   UNL     1       4.450   2.418  20.148  0.00  0.00    +0.000 A 
ATOM     19  C   UNL     1       4.517   1.131  19.669  0.00  0.00    +0.000 A 
ATOM     20  N   UNL     1       3.807   1.012  18.509  0.00  0.00    +0.000 NA
ATOM     21  C   UNL     1       3.307   2.205  18.288  0.00  0.00    +0.000 A 
ENDBRANCH   7  17
BRANCH   4  22
ATOM     22  C   UNL     1       1.274   8.497  21.589  0.00  0.00    +0.000 C 
BRANCH  22  23
ATOM     23  C   UNL     1      -0.251   8.722  21.572  0.00  0.00    +0.000 C 
BRANCH  23  24
ATOM     24  N   UNL     1      -0.636   9.788  22.490  0.00  0.00    +0.000 N 
ATOM     25  C   UNL     1      -0.715  11.046  21.908  0.00  0.00    +0.000 A 
ATOM     26  N   UNL     1      -1.081  11.179  20.625  0.00  0.00    +0.000 NA
ATOM     27  C   UNL     1      -1.138  12.428  20.129  0.00  0.00    +0.000 A 
ATOM     28  C   UNL     1      -0.841  13.550  20.861  0.00  0.00    +0.000 A 
ATOM     29  C   UNL     1      -0.474  13.312  22.161  0.00  0.00    +0.000 A 
ATOM     30  N   UNL     1      -0.399  12.079  22.702  0.00  0.00    +0.000 NA
ATOM     31  H   UNL     1      -0.051   9.903  23.312  0.00  0.00    +0.000 HD
ENDBRANCH  23  24
ENDBRANCH  22  23
ENDBRANCH   4  22
TORSDOF 5
ENDMDL
MODEL 6
REMARK VINA RESULT:      -7.2      3.424      7.962
REMARK  Name = 
REMARK  5 active torsions:
REMARK  status: ('A' for Active; 'I' for Inactive)
REMARK    1  A    between atoms: C_5  and  C_6
REMARK    2  A    between atoms: N_9  and  C_10
REMARK    3  A    between atoms: C_10  and  C_11
REMARK    4  A    between atoms: C_11  and  N_12
REMARK    5  A    between atoms: C_21  and  N_22
REMARK                            x       y       z     vdW  Elec       q    Type
REMARK                         _______ _______ _______ _____ _____    ______ ____
ROOT
ATOM      1  C   UNL     1       1.245   9.413  19.448  0.00  0.00    +0.000 A 
ATOM      2  N   UNL     1       1.860   8.698  18.471  0.00  0.00    +0.000 NA
ATOM      3  C   UNL     1       2.285   7.453  18.729  0.00  0.00    +0.000 A 
ATOM      4  N   UNL     1       2.840   6.761  17.673  0.00  0.00    +0.000 N 
ATOM      5  N   UNL     1       2.198   6.884  19.932  0.00  0.00    +0.000 NA
ATOM      6  C   UNL     1       1.618   7.600  20.905  0.00  0.00    +0.000 A 
ATOM      7  C   UNL     1       1.085   8.858  20.717  0.00  0.00    +0.000 A 
ATOM      8  H   UNL     1       2.631   7.255  16.811  0.00  0.00    +0.000 HD
ENDROOT
BRANCH   1  13
ATOM      9 CL   UNL     1      -0.202  15.188  18.373  0.00  0.00    +0.000 Cl
ATOM     10  C   UNL     1       0.231  13.537  18.572  0.00  0.00    +0.000 A 
ATOM     11  C   UNL     1       1.489  13.206  19.049  0.00  0.00    +0.000 A 
ATOM     12  C   UNL     1       1.828  11.859  19.231  0.00  0.00    +0.000 A 
ATOM     13  C   UNL     1       0.890  10.810  19.054  0.00  0.00    +0.000 A 
ATOM     14  C   UNL     1      -0.362  11.188  18.512  0.00  0.00    +0.000 A 
ATOM     15 CL   UNL     1      -1.630  10.055  18.164  0.00  0.00    +0.000 Cl
ATOM     16  C   UNL     1      -0.680  12.535  18.263  0.00  0.00    +0.000 A 
ENDBRANCH   1  13
BRANCH   7  17
ATOM     17  N   UNL     1       0.430   9.473  21.804  0.00  0.00    +0.000 N 
ATOM     18  C   UNL     1      -0.660  10.317  21.728  0.00  0.00    +0.000 A 
ATOM     19  C   UNL     1      -1.029  10.577  23.027  0.00  0.00    +0.000 A 
ATOM     20  N   UNL     1      -0.158   9.991  23.900  0.00  0.00    +0.000 NA
ATOM     21  C   UNL     1       0.724   9.376  23.147  0.00  0.00    +0.000 A 
ENDBRANCH   7  17
BRANCH   4  22
ATOM     22  C   UNL     1       2.720   5.304  17.655  0.00  0.00    +0.000 C 
BRANCH  22  23
ATOM     23  C   UNL     1       4.096   4.617  17.540  0.00  0.00    +0.000 C 
BRANCH  23  24
ATOM     24  N   UNL     1       4.991   5.375  16.673  0.00  0.00    +0.000 N 
ATOM     25  C   UNL     1       6.072   5.951  17.328  0.00  0.00    +0.000 A 
ATOM     26  N   UNL     1       6.614   5.354  18.398  0.00  0.00    +0.000 NA
ATOM     27  C   UNL     1       7.660   5.968  18.980  0.00  0.00    +0.000 A 
ATOM     28  C   UNL     1       8.185   7.156  18.537  0.00  0.00    +0.000 A 
ATOM     29  C   UNL     1       7.561   7.690  17.439  0.00  0.00    +0.000 A 
ATOM     30  N   UNL     1       6.508   7.115  16.824  0.00  0.00    +0.000 NA
ATOM     31  H   UNL     1       4.565   6.125  16.136  0.00  0.00    +0.000 HD
ENDBRANCH  23  24
ENDBRANCH  22  23
ENDBRANCH   4  22
TORSDOF 5
ENDMDL
MODEL 7
REMARK VINA RESULT:      -7.1      2.042      2.900
REMARK  Name = 
REMARK  5 active torsions:
REMARK  status: ('A' for Active; 'I' for Inactive)
REMARK    1  A    between atoms: C_5  and  C_6
REMARK    2  A    between atoms: N_9  and  C_10
REMARK    3  A    between atoms: C_10  and  C_11
REMARK    4  A    between atoms: C_11  and  N_12
REMARK    5  A    between atoms: C_21  and  N_22
REMARK                            x       y       z     vdW  Elec       q    Type
REMARK                         _______ _______ _______ _____ _____    ______ ____
ROOT
ATOM      1  C   UNL     1       3.634   5.598  18.871  0.00  0.00    +0.000 A 
ATOM      2  N   UNL     1       3.120   6.833  19.104  0.00  0.00    +0.000 NA
ATOM      3  C   UNL     1       2.137   6.982  20.003  0.00  0.00    +0.000 A 
ATOM      4  N   UNL     1       1.708   8.273  20.237  0.00  0.00    +0.000 N 
ATOM      5  N   UNL     1       1.574   5.962  20.650  0.00  0.00    +0.000 NA
ATOM      6  C   UNL     1       2.060   4.738  20.399  0.00  0.00    +0.000 A 
ATOM      7  C   UNL     1       3.118   4.494  19.548  0.00  0.00    +0.000 A 
ATOM      8  H   UNL     1       2.376   8.919  19.831  0.00  0.00    +0.000 HD
ENDROOT
BRANCH   1  13
ATOM      9 CL   UNL     1       7.648   4.946  14.392  0.00  0.00    +0.000 Cl
ATOM     10  C   UNL     1       6.534   5.238  15.668  0.00  0.00    +0.000 A 
ATOM     11  C   UNL     1       5.186   5.387  15.386  0.00  0.00    +0.000 A 
ATOM     12  C   UNL     1       4.279   5.602  16.431  0.00  0.00    +0.000 A 
ATOM     13  C   UNL     1       4.669   5.558  17.795  0.00  0.00    +0.000 A 
ATOM     14  C   UNL     1       6.061   5.461  18.034  0.00  0.00    +0.000 A 
ATOM     15 CL   UNL     1       6.755   5.449  19.625  0.00  0.00    +0.000 Cl
ATOM     16  C   UNL     1       6.981   5.315  16.980  0.00  0.00    +0.000 A 
ENDBRANCH   1  13
BRANCH   7  17
ATOM     17  N   UNL     1       3.587   3.168  19.432  0.00  0.00    +0.000 N 
ATOM     18  C   UNL     1       3.182   2.239  18.495  0.00  0.00    +0.000 A 
ATOM     19  C   UNL     1       3.982   1.137  18.686  0.00  0.00    +0.000 A 
ATOM     20  N   UNL     1       4.807   1.321  19.758  0.00  0.00    +0.000 NA
ATOM     21  C   UNL     1       4.523   2.521  20.209  0.00  0.00    +0.000 A 
ENDBRANCH   7  17
BRANCH   4  22
ATOM     22  C   UNL     1       1.178   8.601  21.560  0.00  0.00    +0.000 C 
BRANCH  22  23
ATOM     23  C   UNL     1       0.802  10.092  21.673  0.00  0.00    +0.000 C 
BRANCH  23  24
ATOM     24  N   UNL     1       0.500  10.659  20.364  0.00  0.00    +0.000 N 
ATOM     25  C   UNL     1      -0.724  11.310  20.289  0.00  0.00    +0.000 A 
ATOM     26  N   UNL     1      -1.225  11.940  21.361  0.00  0.00    +0.000 NA
ATOM     27  C   UNL     1      -2.415  12.550  21.214  0.00  0.00    +0.000 A 
ATOM     28  C   UNL     1      -3.126  12.555  20.041  0.00  0.00    +0.000 A 
ATOM     29  C   UNL     1      -2.534  11.882  19.003  0.00  0.00    +0.000 A 
ATOM     30  N   UNL     1      -1.346  11.252  19.102  0.00  0.00    +0.000 NA
ATOM     31  H   UNL     1       0.514  10.011  19.582  0.00  0.00    +0.000 HD
ENDBRANCH  23  24
ENDBRANCH  22  23
ENDBRANCH   4  22
TORSDOF 5
ENDMDL
MODEL 8
REMARK VINA RESULT:      -7.1      2.934      3.709
REMARK  Name = 
REMARK  5 active torsions:
REMARK  status: ('A' for Active; 'I' for Inactive)
REMARK    1  A    between atoms: C_5  and  C_6
REMARK    2  A    between atoms: N_9  and  C_10
REMARK    3  A    between atoms: C_10  and  C_11
REMARK    4  A    between atoms: C_11  and  N_12
REMARK    5  A    between atoms: C_21  and  N_22
REMARK                            x       y       z     vdW  Elec       q    Type
REMARK                         _______ _______ _______ _____ _____    ______ ____
ROOT
ATOM      1  C   UNL     1       3.670   5.589  18.769  0.00  0.00    +0.000 A 
ATOM      2  N   UNL     1       3.167   6.823  19.030  0.00  0.00    +0.000 NA
ATOM      3  C   UNL     1       2.180   6.959  19.926  0.00  0.00    +0.000 A 
ATOM      4  N   UNL     1       1.763   8.247  20.192  0.00  0.00    +0.000 N 
ATOM      5  N   UNL     1       1.602   5.927  20.542  0.00  0.00    +0.000 NA
ATOM      6  C   UNL     1       2.077   4.706  20.263  0.00  0.00    +0.000 A 
ATOM      7  C   UNL     1       3.138   4.473  19.412  0.00  0.00    +0.000 A 
ATOM      8  H   UNL     1       2.440   8.897  19.807  0.00  0.00    +0.000 HD
ENDROOT
BRANCH   1  13
ATOM      9 CL   UNL     1       7.715   5.008  14.307  0.00  0.00    +0.000 Cl
ATOM     10  C   UNL     1       6.591   5.279  15.579  0.00  0.00    +0.000 A 
ATOM     11  C   UNL     1       5.244   5.424  15.290  0.00  0.00    +0.000 A 
ATOM     12  C   UNL     1       4.329   5.622  16.332  0.00  0.00    +0.000 A 
ATOM     13  C   UNL     1       4.712   5.566  17.698  0.00  0.00    +0.000 A 
ATOM     14  C   UNL     1       6.103   5.475  17.944  0.00  0.00    +0.000 A 
ATOM     15 CL   UNL     1       6.787   5.450  19.539  0.00  0.00    +0.000 Cl
ATOM     16  C   UNL     1       7.030   5.346  16.895  0.00  0.00    +0.000 A 
ENDBRANCH   1  13
BRANCH   7  17
ATOM     17  N   UNL     1       3.594   3.146  19.265  0.00  0.00    +0.000 N 
ATOM     18  C   UNL     1       4.489   2.495  20.090  0.00  0.00    +0.000 A 
ATOM     19  C   UNL     1       4.547   1.198  19.637  0.00  0.00    +0.000 A 
ATOM     20  N   UNL     1       3.784   1.047  18.514  0.00  0.00    +0.000 NA
ATOM     21  C   UNL     1       3.261   2.230  18.291  0.00  0.00    +0.000 A 
ENDBRANCH   7  17
BRANCH   4  22
ATOM     22  C   UNL     1       1.228   8.546  21.519  0.00  0.00    +0.000 C 
BRANCH  22  23
ATOM     23  C   UNL     1       0.922  10.048  21.690  0.00  0.00    +0.000 C 
BRANCH  23  24
ATOM     24  N   UNL     1      -0.511  10.280  21.829  0.00  0.00    +0.000 N 
ATOM     25  C   UNL     1      -0.845  11.542  22.301  0.00  0.00    +0.000 A 
ATOM     26  N   UNL     1      -0.077  12.602  22.008  0.00  0.00    +0.000 NA
ATOM     27  C   UNL     1      -0.463  13.794  22.498  0.00  0.00    +0.000 A 
ATOM     28  C   UNL     1      -1.583  13.970  23.270  0.00  0.00    +0.000 A 
ATOM     29  C   UNL     1      -2.302  12.828  23.517  0.00  0.00    +0.000 A 
ATOM     30  N   UNL     1      -1.953  11.611  23.052  0.00  0.00    +0.000 NA
ATOM     31  H   UNL     1      -1.015   9.625  22.419  0.00  0.00    +0.000 HD
ENDBRANCH  23  24
ENDBRANCH  22  23
ENDBRANCH   4  22
TORSDOF 5
ENDMDL
MODEL 9
REMARK VINA RESULT:      -7.1      2.810      3.496
REMARK  Name = 
REMARK  5 active torsions:
REMARK  status: ('A' for Active; 'I' for Inactive)
REMARK    1  A    between atoms: C_5  and  C_6
REMARK    2  A    between atoms: N_9  and  C_10
REMARK    3  A    between atoms: C_10  and  C_11
REMARK    4  A    between atoms: C_11  and  N_12
REMARK    5  A    between atoms: C_21  and  N_22
REMARK                            x       y       z     vdW  Elec       q    Type
REMARK                         _______ _______ _______ _____ _____    ______ ____
ROOT
ATOM      1  C   UNL     1       3.650   5.620  18.894  0.00  0.00    +0.000 A 
ATOM      2  N   UNL     1       3.149   6.858  19.141  0.00  0.00    +0.000 NA
ATOM      3  C   UNL     1       2.172   7.008  20.047  0.00  0.00    +0.000 A 
ATOM      4  N   UNL     1       1.756   8.300  20.296  0.00  0.00    +0.000 N 
ATOM      5  N   UNL     1       1.603   5.986  20.687  0.00  0.00    +0.000 NA
ATOM      6  C   UNL     1       2.076   4.761  20.422  0.00  0.00    +0.000 A 
ATOM      7  C   UNL     1       3.127   4.515  19.563  0.00  0.00    +0.000 A 
ATOM      8  H   UNL     1       2.428   8.944  19.892  0.00  0.00    +0.000 HD
ENDROOT
BRANCH   1  13
ATOM      9 CL   UNL     1       7.638   4.972  14.391  0.00  0.00    +0.000 Cl
ATOM     10  C   UNL     1       6.531   5.262  15.673  0.00  0.00    +0.000 A 
ATOM     11  C   UNL     1       5.181   5.414  15.399  0.00  0.00    +0.000 A 
ATOM     12  C   UNL     1       4.280   5.627  16.450  0.00  0.00    +0.000 A 
ATOM     13  C   UNL     1       4.679   5.581  17.811  0.00  0.00    +0.000 A 
ATOM     14  C   UNL     1       6.072   5.482  18.042  0.00  0.00    +0.000 A 
ATOM     15 CL   UNL     1       6.774   5.467  19.629  0.00  0.00    +0.000 Cl
ATOM     16  C   UNL     1       6.985   5.337  16.983  0.00  0.00    +0.000 A 
ENDBRANCH   1  13
BRANCH   7  17
ATOM     17  N   UNL     1       3.583   3.186  19.432  0.00  0.00    +0.000 N 
ATOM     18  C   UNL     1       3.158   2.267  18.493  0.00  0.00    +0.000 A 
ATOM     19  C   UNL     1       3.951   1.157  18.666  0.00  0.00    +0.000 A 
ATOM     20  N   UNL     1       4.791   1.327  19.729  0.00  0.00    +0.000 NA
ATOM     21  C   UNL     1       4.523   2.525  20.192  0.00  0.00    +0.000 A 
ENDBRANCH   7  17
BRANCH   4  22
ATOM     22  C   UNL     1       1.237   8.621  21.624  0.00  0.00    +0.000 C 
BRANCH  22  23
ATOM     23  C   UNL     1      -0.059   9.453  21.548  0.00  0.00    +0.000 C 
BRANCH  23  24
ATOM     24  N   UNL     1       0.234  10.882  21.550  0.00  0.00    +0.000 N 
ATOM     25  C   UNL     1      -0.795  11.678  22.037  0.00  0.00    +0.000 A 
ATOM     26  N   UNL     1      -1.615  11.219  22.992  0.00  0.00    +0.000 NA
ATOM     27  C   UNL     1      -2.587  12.045  23.417  0.00  0.00    +0.000 A 
ATOM     28  C   UNL     1      -2.775  13.312  22.924  0.00  0.00    +0.000 A 
ATOM     29  C   UNL     1      -1.888  13.691  21.948  0.00  0.00    +0.000 A 
ATOM     30  N   UNL     1      -0.901  12.896  21.487  0.00  0.00    +0.000 NA
ATOM     31  H   UNL     1       0.493  11.287  20.655  0.00  0.00    +0.000 HD
ENDBRANCH  23  24
ENDBRANCH  22  23
ENDBRANCH   4  22
TORSDOF 5
ENDMDL
