MODEL 1
REMARK VINA RESULT:      -8.1      0.000      0.000
REMARK  Name = 
REMARK  17 active torsions:
REMARK  status: ('A' for Active; 'I' for Inactive)
REMARK    1  A    between atoms: C_1  and  C_2
REMARK    2  A    between atoms: C_2  and  O_3
REMARK    3  A    between atoms: O_3  and  C_4
REMARK    4  A    between atoms: C_4  and  C_6
REMARK    5  A    between atoms: C_7  and  C_8
REMARK    6  A    between atoms: C_7  and  C_9
REMARK    7  A    between atoms: C_9  and  O_10
REMARK    8  A    between atoms: O_10  and  C_11
REMARK    9  A    between atoms: C_14  and  C_15
REMARK   10  A    between atoms: C_15  and  C_16
REMARK   11  A    between atoms: C_21  and  O_22
REMARK   12  A    between atoms: O_22  and  C_23
REMARK   13  A    between atoms: C_25  and  C_26
REMARK   14  A    between atoms: C_26  and  O_27
REMARK   15  A    between atoms: C_28  and  O_29
REMARK   16  A    between atoms: C_30  and  O_31
REMARK   17  A    between atoms: C_32  and  O_33
REMARK                            x       y       z     vdW  Elec       q    Type
REMARK                         _______ _______ _______ _____ _____    ______ ____
ROOT
ATOM      1  C   UNL     1       2.422   5.232  19.653  0.00  0.00    +0.000 C 
ATOM      2  C   UNL     1       1.054   4.520  19.618  0.00  0.00    +0.000 C 
ATOM      3  C   UNL     1       0.915   3.480  20.723  0.00  0.00    +0.000 C 
ATOM      4  C   UNL     1       2.028   2.447  20.646  0.00  0.00    +0.000 C 
ATOM      5  C   UNL     1       3.386   3.121  20.706  0.00  0.00    +0.000 C 
ATOM      6  C   UNL     1       3.559   4.172  19.603  0.00  0.00    +0.000 C 
ENDROOT
BRANCH   1   7
ATOM      7  C   UNL     1       2.470   6.244  18.479  0.00  0.00    +0.000 C 
BRANCH   7  11
ATOM      8  C   UNL     1       1.088  10.229  19.424  0.00  0.00    +0.000 A 
ATOM      9  C   UNL     1       1.184   9.242  20.412  0.00  0.00    +0.000 A 
ATOM     10  C   UNL     1       1.664   7.972  20.104  0.00  0.00    +0.000 A 
ATOM     11  C   UNL     1       2.031   7.651  18.795  0.00  0.00    +0.000 A 
ATOM     12  C   UNL     1       1.946   8.641  17.807  0.00  0.00    +0.000 A 
ATOM     13  C   UNL     1       1.464   9.919  18.119  0.00  0.00    +0.000 A 
BRANCH   8  14
ATOM     14  O   UNL     1       0.621  11.504  19.639  0.00  0.00    +0.000 OA
BRANCH  14  15
ATOM     15  C   UNL     1      -0.358  11.899  18.675  0.00  0.00    +0.000 C 
BRANCH  15  17
ATOM     16  C   UNL     1      -2.828  11.748  18.940  0.00  0.00    +0.000 C 
ATOM     17  C   UNL     1      -1.666  12.346  19.284  0.00  0.00    +0.000 C 
ATOM     18  C   UNL     1      -1.639  13.537  20.197  0.00  0.00    +0.000 C 
BRANCH  16  19
ATOM     19  C   UNL     1      -2.911  10.676  17.905  0.00  0.00    +0.000 C 
ATOM     20  O   UNL     1      -2.445   9.554  17.992  0.00  0.00    +0.000 OA
BRANCH  19  21
ATOM     21  O   UNL     1      -3.462  11.225  16.795  0.00  0.00    +0.000 OA
BRANCH  21  23
ATOM     22  C   UNL     1      -3.632  10.141  14.673  0.00  0.00    +0.000 C 
ATOM     23  C   UNL     1      -2.732  10.957  15.587  0.00  0.00    +0.000 C 
ENDBRANCH  21  23
ENDBRANCH  19  21
ENDBRANCH  16  19
ENDBRANCH  15  17
ENDBRANCH  14  15
ENDBRANCH   8  14
ENDBRANCH   7  11
ENDBRANCH   1   7
BRANCH   6  24
ATOM     24  O   UNL     1       4.823   4.811  19.759  0.00  0.00    +0.000 OA
BRANCH  24  25
ATOM     25  C   UNL     1       5.792   4.667  18.716  0.00  0.00    +0.000 C 
ATOM     26  O   UNL     1       6.358   5.967  18.553  0.00  0.00    +0.000 OA
ATOM     27  C   UNL     1       7.337   6.115  17.524  0.00  0.00    +0.000 C 
ATOM     28  C   UNL     1       6.759   5.702  16.157  0.00  0.00    +0.000 C 
ATOM     29  C   UNL     1       6.218   4.272  16.253  0.00  0.00    +0.000 C 
ATOM     30  C   UNL     1       5.193   4.149  17.383  0.00  0.00    +0.000 C 
BRANCH  28  31
ATOM     31  O   UNL     1       7.709   5.773  15.093  0.00  0.00    +0.000 OA
ATOM     32  H   UNL     1       7.895   4.874  14.774  0.00  0.00    +0.000 HD
ENDBRANCH  28  31
BRANCH  29  33
ATOM     33  O   UNL     1       5.636   3.857  15.009  0.00  0.00    +0.000 OA
ATOM     34  H   UNL     1       6.336   3.861  14.334  0.00  0.00    +0.000 HD
ENDBRANCH  29  33
BRANCH  30  35
ATOM     35  O   UNL     1       4.766   2.775  17.454  0.00  0.00    +0.000 OA
ATOM     36  H   UNL     1       4.962   2.434  18.344  0.00  0.00    +0.000 HD
ENDBRANCH  30  35
BRANCH  27  37
ATOM     37  C   UNL     1       7.757   7.593  17.557  0.00  0.00    +0.000 C 
BRANCH  37  38
ATOM     38  O   UNL     1       8.543   7.915  18.693  0.00  0.00    +0.000 OA
ATOM     39  H   UNL     1       8.195   7.385  19.431  0.00  0.00    +0.000 HD
ENDBRANCH  37  38
ENDBRANCH  27  37
ENDBRANCH  24  25
ENDBRANCH   6  24
TORSDOF 15
ENDMDL
MODEL 2
REMARK VINA RESULT:      -8.0      1.608      1.958
REMARK  Name = 
REMARK  17 active torsions:
REMARK  status: ('A' for Active; 'I' for Inactive)
REMARK    1  A    between atoms: C_1  and  C_2
REMARK    2  A    between atoms: C_2  and  O_3
REMARK    3  A    between atoms: O_3  and  C_4
REMARK    4  A    between atoms: C_4  and  C_6
REMARK    5  A    between atoms: C_7  and  C_8
REMARK    6  A    between atoms: C_7  and  C_9
REMARK    7  A    between atoms: C_9  and  O_10
REMARK    8  A    between atoms: O_10  and  C_11
REMARK    9  A    between atoms: C_14  and  C_15
REMARK   10  A    between atoms: C_15  and  C_16
REMARK   11  A    between atoms: C_21  and  O_22
REMARK   12  A    between atoms: O_22  and  C_23
REMARK   13  A    between atoms: C_25  and  C_26
REMARK   14  A    between atoms: C_26  and  O_27
REMARK   15  A    between atoms: C_28  and  O_29
REMARK   16  A    between atoms: C_30  and  O_31
REMARK   17  A    between atoms: C_32  and  O_33
REMARK                            x       y       z     vdW  Elec       q    Type
REMARK                         _______ _______ _______ _____ _____    ______ ____
ROOT
ATOM      1  C   UNL     1       2.734   4.391  20.016  0.00  0.00    +0.000 C 
ATOM      2  C   UNL     1       1.215   4.638  19.903  0.00  0.00    +0.000 C 
ATOM      3  C   UNL     1       0.427   3.342  19.755  0.00  0.00    +0.000 C 
ATOM      4  C   UNL     1       0.903   2.546  18.551  0.00  0.00    +0.000 C 
ATOM      5  C   UNL     1       2.391   2.266  18.651  0.00  0.00    +0.000 C 
ATOM      6  C   UNL     1       3.213   3.553  18.797  0.00  0.00    +0.000 C 
ENDROOT
BRANCH   1   7
ATOM      7  C   UNL     1       3.440   5.766  20.134  0.00  0.00    +0.000 C 
BRANCH   7  11
ATOM      8  C   UNL     1       1.147   9.108  18.629  0.00  0.00    +0.000 A 
ATOM      9  C   UNL     1       1.163   8.796  19.994  0.00  0.00    +0.000 A 
ATOM     10  C   UNL     1       1.932   7.738  20.472  0.00  0.00    +0.000 A 
ATOM     11  C   UNL     1       2.681   6.952  19.594  0.00  0.00    +0.000 A 
ATOM     12  C   UNL     1       2.675   7.270  18.230  0.00  0.00    +0.000 A 
ATOM     13  C   UNL     1       1.901   8.335  17.750  0.00  0.00    +0.000 A 
BRANCH   8  14
ATOM     14  O   UNL     1       0.413  10.128  18.072  0.00  0.00    +0.000 OA
BRANCH  14  15
ATOM     15  C   UNL     1      -0.891  10.243  18.647  0.00  0.00    +0.000 C 
BRANCH  15  17
ATOM     16  C   UNL     1      -2.791  11.582  17.759  0.00  0.00    +0.000 C 
ATOM     17  C   UNL     1      -1.576  11.556  18.348  0.00  0.00    +0.000 C 
ATOM     18  C   UNL     1      -0.815  12.818  18.631  0.00  0.00    +0.000 C 
BRANCH  16  19
ATOM     19  C   UNL     1      -3.499  10.348  17.306  0.00  0.00    +0.000 C 
ATOM     20  O   UNL     1      -3.196   9.654  16.352  0.00  0.00    +0.000 OA
BRANCH  19  21
ATOM     21  O   UNL     1      -4.625  10.229  18.052  0.00  0.00    +0.000 OA
BRANCH  21  23
ATOM     22  C   UNL     1      -6.457  11.418  19.018  0.00  0.00    +0.000 C 
ATOM     23  C   UNL     1      -5.622  11.222  17.764  0.00  0.00    +0.000 C 
ENDBRANCH  21  23
ENDBRANCH  19  21
ENDBRANCH  16  19
ENDBRANCH  15  17
ENDBRANCH  14  15
ENDBRANCH   8  14
ENDBRANCH   7  11
ENDBRANCH   1   7
BRANCH   6  24
ATOM     24  O   UNL     1       4.588   3.214  18.954  0.00  0.00    +0.000 OA
BRANCH  24  25
ATOM     25  C   UNL     1       5.543   3.825  18.081  0.00  0.00    +0.000 C 
ATOM     26  O   UNL     1       6.387   4.597  18.936  0.00  0.00    +0.000 OA
ATOM     27  C   UNL     1       7.415   5.359  18.303  0.00  0.00    +0.000 C 
ATOM     28  C   UNL     1       6.817   6.329  17.266  0.00  0.00    +0.000 C 
ATOM     29  C   UNL     1       5.973   5.534  16.265  0.00  0.00    +0.000 C 
ATOM     30  C   UNL     1       4.901   4.712  16.984  0.00  0.00    +0.000 C 
BRANCH  28  31
ATOM     31  O   UNL     1       7.802   7.080  16.556  0.00  0.00    +0.000 OA
ATOM     32  H   UNL     1       7.356   7.731  15.988  0.00  0.00    +0.000 HD
ENDBRANCH  28  31
BRANCH  29  33
ATOM     33  O   UNL     1       5.365   6.403  15.299  0.00  0.00    +0.000 OA
ATOM     34  H   UNL     1       5.921   7.198  15.219  0.00  0.00    +0.000 HD
ENDBRANCH  29  33
BRANCH  30  35
ATOM     35  O   UNL     1       4.180   3.951  15.996  0.00  0.00    +0.000 OA
ATOM     36  H   UNL     1       4.286   3.004  16.194  0.00  0.00    +0.000 HD
ENDBRANCH  30  35
BRANCH  27  37
ATOM     37  C   UNL     1       8.147   6.096  19.436  0.00  0.00    +0.000 C 
BRANCH  37  38
ATOM     38  O   UNL     1       8.071   5.410  20.676  0.00  0.00    +0.000 OA
ATOM     39  H   UNL     1       7.312   4.804  20.612  0.00  0.00    +0.000 HD
ENDBRANCH  37  38
ENDBRANCH  27  37
ENDBRANCH  24  25
ENDBRANCH   6  24
TORSDOF 15
ENDMDL
MODEL 3
REMARK VINA RESULT:      -7.9      1.656      2.615
REMARK  Name = 
REMARK  17 active torsions:
REMARK  status: ('A' for Active; 'I' for Inactive)
REMARK    1  A    between atoms: C_1  and  C_2
REMARK    2  A    between atoms: C_2  and  O_3
REMARK    3  A    between atoms: O_3  and  C_4
REMARK    4  A    between atoms: C_4  and  C_6
REMARK    5  A    between atoms: C_7  and  C_8
REMARK    6  A    between atoms: C_7  and  C_9
REMARK    7  A    between atoms: C_9  and  O_10
REMARK    8  A    between atoms: O_10  and  C_11
REMARK    9  A    between atoms: C_14  and  C_15
REMARK   10  A    between atoms: C_15  and  C_16
REMARK   11  A    between atoms: C_21  and  O_22
REMARK   12  A    between atoms: O_22  and  C_23
REMARK   13  A    between atoms: C_25  and  C_26
REMARK   14  A    between atoms: C_26  and  O_27
REMARK   15  A    between atoms: C_28  and  O_29
REMARK   16  A    between atoms: C_30  and  O_31
REMARK   17  A    between atoms: C_32  and  O_33
REMARK                            x       y       z     vdW  Elec       q    Type
REMARK                         _______ _______ _______ _____ _____    ______ ____
ROOT
ATOM      1  C   UNL     1       2.832   4.295  20.005  0.00  0.00    +0.000 C 
ATOM      2  C   UNL     1       1.310   4.546  19.966  0.00  0.00    +0.000 C 
ATOM      3  C   UNL     1       0.513   3.250  19.866  0.00  0.00    +0.000 C 
ATOM      4  C   UNL     1       0.928   2.445  18.646  0.00  0.00    +0.000 C 
ATOM      5  C   UNL     1       2.418   2.161  18.674  0.00  0.00    +0.000 C 
ATOM      6  C   UNL     1       3.249   3.447  18.770  0.00  0.00    +0.000 C 
ENDROOT
BRANCH   1   7
ATOM      7  C   UNL     1       3.546   5.669  20.079  0.00  0.00    +0.000 C 
BRANCH   7  11
ATOM      8  C   UNL     1       1.124   9.024  18.831  0.00  0.00    +0.000 A 
ATOM      9  C   UNL     1       1.172   8.624  20.171  0.00  0.00    +0.000 A 
ATOM     10  C   UNL     1       1.983   7.564  20.568  0.00  0.00    +0.000 A 
ATOM     11  C   UNL     1       2.742   6.862  19.629  0.00  0.00    +0.000 A 
ATOM     12  C   UNL     1       2.703   7.268  18.289  0.00  0.00    +0.000 A 
ATOM     13  C   UNL     1       1.888   8.336  17.891  0.00  0.00    +0.000 A 
BRANCH   8  14
ATOM     14  O   UNL     1       0.349  10.055  18.352  0.00  0.00    +0.000 OA
BRANCH  14  15
ATOM     15  C   UNL     1      -0.751  10.359  19.215  0.00  0.00    +0.000 C 
BRANCH  15  17
ATOM     16  C   UNL     1      -2.562  12.051  19.001  0.00  0.00    +0.000 C 
ATOM     17  C   UNL     1      -1.935  10.965  18.500  0.00  0.00    +0.000 C 
ATOM     18  C   UNL     1      -2.449  10.258  17.280  0.00  0.00    +0.000 C 
BRANCH  16  19
ATOM     19  C   UNL     1      -2.184  12.676  20.304  0.00  0.00    +0.000 C 
ATOM     20  O   UNL     1      -2.367  12.199  21.409  0.00  0.00    +0.000 OA
BRANCH  19  21
ATOM     21  O   UNL     1      -1.745  13.930  20.040  0.00  0.00    +0.000 OA
BRANCH  21  23
ATOM     22  C   UNL     1      -0.134  15.203  18.819  0.00  0.00    +0.000 C 
ATOM     23  C   UNL     1      -0.344  14.004  19.729  0.00  0.00    +0.000 C 
ENDBRANCH  21  23
ENDBRANCH  19  21
ENDBRANCH  16  19
ENDBRANCH  15  17
ENDBRANCH  14  15
ENDBRANCH   8  14
ENDBRANCH   7  11
ENDBRANCH   1   7
BRANCH   6  24
ATOM     24  O   UNL     1       4.629   3.105  18.862  0.00  0.00    +0.000 OA
BRANCH  24  25
ATOM     25  C   UNL     1       5.555   3.775  18.000  0.00  0.00    +0.000 C 
ATOM     26  O   UNL     1       6.396   4.529  18.873  0.00  0.00    +0.000 OA
ATOM     27  C   UNL     1       7.395   5.341  18.255  0.00  0.00    +0.000 C 
ATOM     28  C   UNL     1       6.757   6.340  17.271  0.00  0.00    +0.000 C 
ATOM     29  C   UNL     1       5.912   5.569  16.252  0.00  0.00    +0.000 C 
ATOM     30  C   UNL     1       4.872   4.692  16.953  0.00  0.00    +0.000 C 
BRANCH  28  31
ATOM     31  O   UNL     1       7.712   7.143  16.577  0.00  0.00    +0.000 OA
ATOM     32  H   UNL     1       7.506   7.130  15.627  0.00  0.00    +0.000 HD
ENDBRANCH  28  31
BRANCH  29  33
ATOM     33  O   UNL     1       5.268   6.464  15.335  0.00  0.00    +0.000 OA
ATOM     34  H   UNL     1       5.699   6.369  14.469  0.00  0.00    +0.000 HD
ENDBRANCH  29  33
BRANCH  30  35
ATOM     35  O   UNL     1       4.151   3.957  15.946  0.00  0.00    +0.000 OA
ATOM     36  H   UNL     1       4.687   3.935  15.134  0.00  0.00    +0.000 HD
ENDBRANCH  30  35
BRANCH  27  37
ATOM     37  C   UNL     1       8.131   6.045  19.406  0.00  0.00    +0.000 C 
BRANCH  37  38
ATOM     38  O   UNL     1       8.118   5.292  20.608  0.00  0.00    +0.000 OA
ATOM     39  H   UNL     1       8.385   5.900  21.320  0.00  0.00    +0.000 HD
ENDBRANCH  37  38
ENDBRANCH  27  37
ENDBRANCH  24  25
ENDBRANCH   6  24
TORSDOF 15
ENDMDL
MODEL 4
REMARK VINA RESULT:      -7.8      1.131      1.671
REMARK  Name = 
REMARK  17 active torsions:
REMARK  status: ('A' for Active; 'I' for Inactive)
REMARK    1  A    between atoms: C_1  and  C_2
REMARK    2  A    between atoms: C_2  and  O_3
REMARK    3  A    between atoms: O_3  and  C_4
REMARK    4  A    between atoms: C_4  and  C_6
REMARK    5  A    between atoms: C_7  and  C_8
REMARK    6  A    between atoms: C_7  and  C_9
REMARK    7  A    between atoms: C_9  and  O_10
REMARK    8  A    between atoms: O_10  and  C_11
REMARK    9  A    between atoms: C_14  and  C_15
REMARK   10  A    between atoms: C_15  and  C_16
REMARK   11  A    between atoms: C_21  and  O_22
REMARK   12  A    between atoms: O_22  and  C_23
REMARK   13  A    between atoms: C_25  and  C_26
REMARK   14  A    between atoms: C_26  and  O_27
REMARK   15  A    between atoms: C_28  and  O_29
REMARK   16  A    between atoms: C_30  and  O_31
REMARK   17  A    between atoms: C_32  and  O_33
REMARK                            x       y       z     vdW  Elec       q    Type
REMARK                         _______ _______ _______ _____ _____    ______ ____
ROOT
ATOM      1  C   UNL     1       2.508   5.128  20.079  0.00  0.00    +0.000 C 
ATOM      2  C   UNL     1       1.037   4.704  19.887  0.00  0.00    +0.000 C 
ATOM      3  C   UNL     1       0.742   3.343  20.505  0.00  0.00    +0.000 C 
ATOM      4  C   UNL     1       1.657   2.272  19.934  0.00  0.00    +0.000 C 
ATOM      5  C   UNL     1       3.112   2.653  20.135  0.00  0.00    +0.000 C 
ATOM      6  C   UNL     1       3.443   4.018  19.520  0.00  0.00    +0.000 C 
ENDROOT
BRANCH   1   7
ATOM      7  C   UNL     1       2.708   6.505  19.395  0.00  0.00    +0.000 C 
BRANCH   7  11
ATOM      8  C   UNL     1       0.640   9.907  21.080  0.00  0.00    +0.000 A 
ATOM      9  C   UNL     1       0.939   9.844  19.714  0.00  0.00    +0.000 A 
ATOM     10  C   UNL     1       1.575   8.728  19.176  0.00  0.00    +0.000 A 
ATOM     11  C   UNL     1       1.950   7.662  19.995  0.00  0.00    +0.000 A 
ATOM     12  C   UNL     1       1.641   7.718  21.361  0.00  0.00    +0.000 A 
ATOM     13  C   UNL     1       1.001   8.841  21.901  0.00  0.00    +0.000 A 
BRANCH   8  14
ATOM     14  O   UNL     1       0.021  10.970  21.694  0.00  0.00    +0.000 OA
BRANCH  14  15
ATOM     15  C   UNL     1       0.173  12.189  20.963  0.00  0.00    +0.000 C 
BRANCH  15  17
ATOM     16  C   UNL     1      -1.934  13.061  19.968  0.00  0.00    +0.000 C 
ATOM     17  C   UNL     1      -1.052  13.073  20.991  0.00  0.00    +0.000 C 
ATOM     18  C   UNL     1      -1.194  14.031  22.138  0.00  0.00    +0.000 C 
BRANCH  16  19
ATOM     19  C   UNL     1      -1.732  12.248  18.733  0.00  0.00    +0.000 C 
ATOM     20  O   UNL     1      -1.020  12.539  17.789  0.00  0.00    +0.000 OA
BRANCH  19  21
ATOM     21  O   UNL     1      -2.601  11.209  18.785  0.00  0.00    +0.000 OA
BRANCH  21  23
ATOM     22  C   UNL     1      -3.242  10.007  16.822  0.00  0.00    +0.000 C 
ATOM     23  C   UNL     1      -2.231  10.098  17.953  0.00  0.00    +0.000 C 
ENDBRANCH  21  23
ENDBRANCH  19  21
ENDBRANCH  16  19
ENDBRANCH  15  17
ENDBRANCH  14  15
ENDBRANCH   8  14
ENDBRANCH   7  11
ENDBRANCH   1   7
BRANCH   6  24
ATOM     24  O   UNL     1       4.801   4.342  19.803  0.00  0.00    +0.000 OA
BRANCH  24  25
ATOM     25  C   UNL     1       5.748   4.304  18.731  0.00  0.00    +0.000 C 
ATOM     26  O   UNL     1       6.407   5.570  18.772  0.00  0.00    +0.000 OA
ATOM     27  C   UNL     1       7.385   5.815  17.761  0.00  0.00    +0.000 C 
ATOM     28  C   UNL     1       6.767   5.676  16.357  0.00  0.00    +0.000 C 
ATOM     29  C   UNL     1       6.123   4.292  16.229  0.00  0.00    +0.000 C 
ATOM     30  C   UNL     1       5.102   4.057  17.344  0.00  0.00    +0.000 C 
BRANCH  28  31
ATOM     31  O   UNL     1       7.710   5.854  15.300  0.00  0.00    +0.000 OA
ATOM     32  H   UNL     1       8.550   5.433  15.551  0.00  0.00    +0.000 HD
ENDBRANCH  28  31
BRANCH  29  33
ATOM     33  O   UNL     1       5.502   4.131  14.946  0.00  0.00    +0.000 OA
ATOM     34  H   UNL     1       4.811   4.811  14.859  0.00  0.00    +0.000 HD
ENDBRANCH  29  33
BRANCH  30  35
ATOM     35  O   UNL     1       4.575   2.725  17.197  0.00  0.00    +0.000 OA
ATOM     36  H   UNL     1       4.487   2.528  16.249  0.00  0.00    +0.000 HD
ENDBRANCH  30  35
BRANCH  27  37
ATOM     37  C   UNL     1       7.913   7.235  18.028  0.00  0.00    +0.000 C 
BRANCH  37  38
ATOM     38  O   UNL     1       7.415   8.188  17.103  0.00  0.00    +0.000 OA
ATOM     39  H   UNL     1       8.189   8.568  16.651  0.00  0.00    +0.000 HD
ENDBRANCH  37  38
ENDBRANCH  27  37
ENDBRANCH  24  25
ENDBRANCH   6  24
TORSDOF 15
ENDMDL
MODEL 5
REMARK VINA RESULT:      -7.7      1.844      3.239
REMARK  Name = 
REMARK  17 active torsions:
REMARK  status: ('A' for Active; 'I' for Inactive)
REMARK    1  A    between atoms: C_1  and  C_2
REMARK    2  A    between atoms: C_2  and  O_3
REMARK    3  A    between atoms: O_3  and  C_4
REMARK    4  A    between atoms: C_4  and  C_6
REMARK    5  A    between atoms: C_7  and  C_8
REMARK    6  A    between atoms: C_7  and  C_9
REMARK    7  A    between atoms: C_9  and  O_10
REMARK    8  A    between atoms: O_10  and  C_11
REMARK    9  A    between atoms: C_14  and  C_15
REMARK   10  A    between atoms: C_15  and  C_16
REMARK   11  A    between atoms: C_21  and  O_22
REMARK   12  A    between atoms: O_22  and  C_23
REMARK   13  A    between atoms: C_25  and  C_26
REMARK   14  A    between atoms: C_26  and  O_27
REMARK   15  A    between atoms: C_28  and  O_29
REMARK   16  A    between atoms: C_30  and  O_31
REMARK   17  A    between atoms: C_32  and  O_33
REMARK                            x       y       z     vdW  Elec       q    Type
REMARK                         _______ _______ _______ _____ _____    ______ ____
ROOT
ATOM      1  C   UNL     1       2.554   5.194  19.765  0.00  0.00    +0.000 C 
ATOM      2  C   UNL     1       1.112   4.658  19.648  0.00  0.00    +0.000 C 
ATOM      3  C   UNL     1       0.853   3.485  20.586  0.00  0.00    +0.000 C 
ATOM      4  C   UNL     1       1.837   2.355  20.335  0.00  0.00    +0.000 C 
ATOM      5  C   UNL     1       3.264   2.850  20.471  0.00  0.00    +0.000 C 
ATOM      6  C   UNL     1       3.559   4.029  19.536  0.00  0.00    +0.000 C 
ENDROOT
BRANCH   1   7
ATOM      7  C   UNL     1       2.720   6.359  18.756  0.00  0.00    +0.000 C 
BRANCH   7  11
ATOM      8  C   UNL     1       0.946  10.162  19.794  0.00  0.00    +0.000 A 
ATOM      9  C   UNL     1       1.353   9.885  18.483  0.00  0.00    +0.000 A 
ATOM     10  C   UNL     1       1.891   8.645  18.153  0.00  0.00    +0.000 A 
ATOM     11  C   UNL     1       2.061   7.662  19.130  0.00  0.00    +0.000 A 
ATOM     12  C   UNL     1       1.643   7.933  20.440  0.00  0.00    +0.000 A 
ATOM     13  C   UNL     1       1.101   9.181  20.771  0.00  0.00    +0.000 A 
BRANCH   8  14
ATOM     14  O   UNL     1       0.410  11.359  20.207  0.00  0.00    +0.000 OA
BRANCH  14  15
ATOM     15  C   UNL     1       0.890  12.467  19.442  0.00  0.00    +0.000 C 
BRANCH  15  17
ATOM     16  C   UNL     1      -0.200  14.579  18.705  0.00  0.00    +0.000 C 
ATOM     17  C   UNL     1      -0.199  13.228  18.724  0.00  0.00    +0.000 C 
ATOM     18  C   UNL     1      -1.326  12.437  18.128  0.00  0.00    +0.000 C 
BRANCH  16  19
ATOM     19  C   UNL     1       0.811  15.400  19.435  0.00  0.00    +0.000 C 
ATOM     20  O   UNL     1       0.739  15.766  20.595  0.00  0.00    +0.000 OA
BRANCH  19  21
ATOM     21  O   UNL     1       1.743  15.793  18.533  0.00  0.00    +0.000 OA
BRANCH  21  23
ATOM     22  C   UNL     1       3.799  14.826  19.271  0.00  0.00    +0.000 C 
ATOM     23  C   UNL     1       3.016  16.119  19.114  0.00  0.00    +0.000 C 
ENDBRANCH  21  23
ENDBRANCH  19  21
ENDBRANCH  16  19
ENDBRANCH  15  17
ENDBRANCH  14  15
ENDBRANCH   8  14
ENDBRANCH   7  11
ENDBRANCH   1   7
BRANCH   6  24
ATOM     24  O   UNL     1       4.889   4.486  19.764  0.00  0.00    +0.000 OA
BRANCH  24  25
ATOM     25  C   UNL     1       5.828   4.414  18.686  0.00  0.00    +0.000 C 
ATOM     26  O   UNL     1       6.415   5.713  18.617  0.00  0.00    +0.000 OA
ATOM     27  C   UNL     1       7.370   5.930  17.578  0.00  0.00    +0.000 C 
ATOM     28  C   UNL     1       6.749   5.643  16.197  0.00  0.00    +0.000 C 
ATOM     29  C   UNL     1       6.183   4.220  16.188  0.00  0.00    +0.000 C 
ATOM     30  C   UNL     1       5.185   4.020  17.332  0.00  0.00    +0.000 C 
BRANCH  28  31
ATOM     31  O   UNL     1       7.673   5.786  15.118  0.00  0.00    +0.000 OA
ATOM     32  H   UNL     1       7.794   6.732  14.928  0.00  0.00    +0.000 HD
ENDBRANCH  28  31
BRANCH  29  33
ATOM     33  O   UNL     1       5.562   3.920  14.931  0.00  0.00    +0.000 OA
ATOM     34  H   UNL     1       5.565   2.954  14.817  0.00  0.00    +0.000 HD
ENDBRANCH  29  33
BRANCH  30  35
ATOM     35  O   UNL     1       4.733   2.653  17.299  0.00  0.00    +0.000 OA
ATOM     36  H   UNL     1       5.074   2.231  16.492  0.00  0.00    +0.000 HD
ENDBRANCH  30  35
BRANCH  27  37
ATOM     37  C   UNL     1       7.820   7.393  17.722  0.00  0.00    +0.000 C 
BRANCH  37  38
ATOM     38  O   UNL     1       8.594   7.616  18.889  0.00  0.00    +0.000 OA
ATOM     39  H   UNL     1       9.291   8.249  18.643  0.00  0.00    +0.000 HD
ENDBRANCH  37  38
ENDBRANCH  27  37
ENDBRANCH  24  25
ENDBRANCH   6  24
TORSDOF 15
ENDMDL
MODEL 6
REMARK VINA RESULT:      -7.7      1.813      3.001
REMARK  Name = 
REMARK  17 active torsions:
REMARK  status: ('A' for Active; 'I' for Inactive)
REMARK    1  A    between atoms: C_1  and  C_2
REMARK    2  A    between atoms: C_2  and  O_3
REMARK    3  A    between atoms: O_3  and  C_4
REMARK    4  A    between atoms: C_4  and  C_6
REMARK    5  A    between atoms: C_7  and  C_8
REMARK    6  A    between atoms: C_7  and  C_9
REMARK    7  A    between atoms: C_9  and  O_10
REMARK    8  A    between atoms: O_10  and  C_11
REMARK    9  A    between atoms: C_14  and  C_15
REMARK   10  A    between atoms: C_15  and  C_16
REMARK   11  A    between atoms: C_21  and  O_22
REMARK   12  A    between atoms: O_22  and  C_23
REMARK   13  A    between atoms: C_25  and  C_26
REMARK   14  A    between atoms: C_26  and  O_27
REMARK   15  A    between atoms: C_28  and  O_29
REMARK   16  A    between atoms: C_30  and  O_31
REMARK   17  A    between atoms: C_32  and  O_33
REMARK                            x       y       z     vdW  Elec       q    Type
REMARK                         _______ _______ _______ _____ _____    ______ ____
ROOT
ATOM      1  C   UNL     1       2.738   5.437  19.843  0.00  0.00    +0.000 C 
ATOM      2  C   UNL     1       1.223   5.194  19.674  0.00  0.00    +0.000 C 
ATOM      3  C   UNL     1       0.726   4.029  20.520  0.00  0.00    +0.000 C 
ATOM      4  C   UNL     1       1.484   2.752  20.193  0.00  0.00    +0.000 C 
ATOM      5  C   UNL     1       2.976   2.956  20.377  0.00  0.00    +0.000 C 
ATOM      6  C   UNL     1       3.509   4.122  19.535  0.00  0.00    +0.000 C 
ENDROOT
BRANCH   1   7
ATOM      7  C   UNL     1       3.143   6.618  18.925  0.00  0.00    +0.000 C 
BRANCH   7  11
ATOM      8  C   UNL     1       0.407   9.964  19.001  0.00  0.00    +0.000 A 
ATOM      9  C   UNL     1       0.785   9.310  20.180  0.00  0.00    +0.000 A 
ATOM     10  C   UNL     1       1.693   8.255  20.147  0.00  0.00    +0.000 A 
ATOM     11  C   UNL     1       2.224   7.813  18.933  0.00  0.00    +0.000 A 
ATOM     12  C   UNL     1       1.856   8.474  17.754  0.00  0.00    +0.000 A 
ATOM     13  C   UNL     1       0.942   9.536  17.788  0.00  0.00    +0.000 A 
BRANCH   8  14
ATOM     14  O   UNL     1      -0.486  11.008  18.941  0.00  0.00    +0.000 OA
BRANCH  14  15
ATOM     15  C   UNL     1      -1.150  11.233  20.187  0.00  0.00    +0.000 C 
BRANCH  15  17
ATOM     16  C   UNL     1      -1.243  12.905  22.028  0.00  0.00    +0.000 C 
ATOM     17  C   UNL     1      -0.954  12.626  20.738  0.00  0.00    +0.000 C 
ATOM     18  C   UNL     1      -0.532  13.701  19.780  0.00  0.00    +0.000 C 
BRANCH  16  19
ATOM     19  C   UNL     1      -1.830  11.900  22.962  0.00  0.00    +0.000 C 
ATOM     20  O   UNL     1      -1.220  11.030  23.557  0.00  0.00    +0.000 OA
BRANCH  19  21
ATOM     21  O   UNL     1      -3.178  12.033  22.908  0.00  0.00    +0.000 OA
BRANCH  21  23
ATOM     22  C   UNL     1      -3.514  13.843  24.430  0.00  0.00    +0.000 C 
ATOM     23  C   UNL     1      -3.781  12.370  24.167  0.00  0.00    +0.000 C 
ENDBRANCH  21  23
ENDBRANCH  19  21
ENDBRANCH  16  19
ENDBRANCH  15  17
ENDBRANCH  14  15
ENDBRANCH   8  14
ENDBRANCH   7  11
ENDBRANCH   1   7
BRANCH   6  24
ATOM     24  O   UNL     1       4.896   4.300  19.807  0.00  0.00    +0.000 OA
BRANCH  24  25
ATOM     25  C   UNL     1       5.814   4.272  18.710  0.00  0.00    +0.000 C 
ATOM     26  O   UNL     1       6.405   5.571  18.687  0.00  0.00    +0.000 OA
ATOM     27  C   UNL     1       7.341   5.830  17.640  0.00  0.00    +0.000 C 
ATOM     28  C   UNL     1       6.693   5.607  16.260  0.00  0.00    +0.000 C 
ATOM     29  C   UNL     1       6.121   4.188  16.200  0.00  0.00    +0.000 C 
ATOM     30  C   UNL     1       5.144   3.941  17.352  0.00  0.00    +0.000 C 
BRANCH  28  31
ATOM     31  O   UNL     1       7.597   5.796  15.171  0.00  0.00    +0.000 OA
ATOM     32  H   UNL     1       7.103   5.741  14.336  0.00  0.00    +0.000 HD
ENDBRANCH  28  31
BRANCH  29  33
ATOM     33  O   UNL     1       5.475   3.947  14.942  0.00  0.00    +0.000 OA
ATOM     34  H   UNL     1       4.647   4.458  14.927  0.00  0.00    +0.000 HD
ENDBRANCH  29  33
BRANCH  30  35
ATOM     35  O   UNL     1       4.686   2.578  17.267  0.00  0.00    +0.000 OA
ATOM     36  H   UNL     1       3.824   2.567  16.816  0.00  0.00    +0.000 HD
ENDBRANCH  30  35
BRANCH  27  37
ATOM     37  C   UNL     1       7.800   7.284  17.841  0.00  0.00    +0.000 C 
BRANCH  37  38
ATOM     38  O   UNL     1       8.595   7.453  19.003  0.00  0.00    +0.000 OA
ATOM     39  H   UNL     1       8.792   8.404  19.069  0.00  0.00    +0.000 HD
ENDBRANCH  37  38
ENDBRANCH  27  37
ENDBRANCH  24  25
ENDBRANCH   6  24
TORSDOF 15
ENDMDL
MODEL 7
REMARK VINA RESULT:      -7.7      1.772      3.116
REMARK  Name = 
REMARK  17 active torsions:
REMARK  status: ('A' for Active; 'I' for Inactive)
REMARK    1  A    between atoms: C_1  and  C_2
REMARK    2  A    between atoms: C_2  and  O_3
REMARK    3  A    between atoms: O_3  and  C_4
REMARK    4  A    between atoms: C_4  and  C_6
REMARK    5  A    between atoms: C_7  and  C_8
REMARK    6  A    between atoms: C_7  and  C_9
REMARK    7  A    between atoms: C_9  and  O_10
REMARK    8  A    between atoms: O_10  and  C_11
REMARK    9  A    between atoms: C_14  and  C_15
REMARK   10  A    between atoms: C_15  and  C_16
REMARK   11  A    between atoms: C_21  and  O_22
REMARK   12  A    between atoms: O_22  and  C_23
REMARK   13  A    between atoms: C_25  and  C_26
REMARK   14  A    between atoms: C_26  and  O_27
REMARK   15  A    between atoms: C_28  and  O_29
REMARK   16  A    between atoms: C_30  and  O_31
REMARK   17  A    between atoms: C_32  and  O_33
REMARK                            x       y       z     vdW  Elec       q    Type
REMARK                         _______ _______ _______ _____ _____    ______ ____
ROOT
ATOM      1  C   UNL     1       2.670   4.252  20.087  0.00  0.00    +0.000 C 
ATOM      2  C   UNL     1       1.146   4.462  19.973  0.00  0.00    +0.000 C 
ATOM      3  C   UNL     1       0.394   3.151  19.775  0.00  0.00    +0.000 C 
ATOM      4  C   UNL     1       0.899   2.411  18.546  0.00  0.00    +0.000 C 
ATOM      5  C   UNL     1       2.393   2.168  18.646  0.00  0.00    +0.000 C 
ATOM      6  C   UNL     1       3.179   3.470  18.842  0.00  0.00    +0.000 C 
ENDROOT
BRANCH   1   7
ATOM      7  C   UNL     1       3.338   5.640  20.258  0.00  0.00    +0.000 C 
BRANCH   7  11
ATOM      8  C   UNL     1       1.365   9.049  18.475  0.00  0.00    +0.000 A 
ATOM      9  C   UNL     1       2.151   8.182  17.706  0.00  0.00    +0.000 A 
ATOM     10  C   UNL     1       2.754   7.068  18.284  0.00  0.00    +0.000 A 
ATOM     11  C   UNL     1       2.607   6.810  19.648  0.00  0.00    +0.000 A 
ATOM     12  C   UNL     1       1.812   7.670  20.417  0.00  0.00    +0.000 A 
ATOM     13  C   UNL     1       1.205   8.790  19.834  0.00  0.00    +0.000 A 
BRANCH   8  14
ATOM     14  O   UNL     1       0.740  10.172  17.988  0.00  0.00    +0.000 OA
BRANCH  14  15
ATOM     15  C   UNL     1       0.030  10.887  19.003  0.00  0.00    +0.000 C 
BRANCH  15  17
ATOM     16  C   UNL     1      -0.787  13.223  18.752  0.00  0.00    +0.000 C 
ATOM     17  C   UNL     1      -0.938  11.913  18.462  0.00  0.00    +0.000 C 
ATOM     18  C   UNL     1      -2.121  11.413  17.686  0.00  0.00    +0.000 C 
BRANCH  16  19
ATOM     19  C   UNL     1       0.278  13.735  19.664  0.00  0.00    +0.000 C 
ATOM     20  O   UNL     1       0.480  13.371  20.809  0.00  0.00    +0.000 OA
BRANCH  19  21
ATOM     21  O   UNL     1       0.876  14.781  19.044  0.00  0.00    +0.000 OA
BRANCH  21  23
ATOM     22  C   UNL     1       0.434  17.027  19.726  0.00  0.00    +0.000 C 
ATOM     23  C   UNL     1       0.002  15.896  18.808  0.00  0.00    +0.000 C 
ENDBRANCH  21  23
ENDBRANCH  19  21
ENDBRANCH  16  19
ENDBRANCH  15  17
ENDBRANCH  14  15
ENDBRANCH   8  14
ENDBRANCH   7  11
ENDBRANCH   1   7
BRANCH   6  24
ATOM     24  O   UNL     1       4.562   3.163  18.997  0.00  0.00    +0.000 OA
BRANCH  24  25
ATOM     25  C   UNL     1       5.499   3.781  18.109  0.00  0.00    +0.000 C 
ATOM     26  O   UNL     1       6.356   4.552  18.952  0.00  0.00    +0.000 OA
ATOM     27  C   UNL     1       7.370   5.319  18.303  0.00  0.00    +0.000 C 
ATOM     28  C   UNL     1       6.750   6.292  17.282  0.00  0.00    +0.000 C 
ATOM     29  C   UNL     1       5.890   5.499  16.294  0.00  0.00    +0.000 C 
ATOM     30  C   UNL     1       4.834   4.670  17.028  0.00  0.00    +0.000 C 
BRANCH  28  31
ATOM     31  O   UNL     1       7.720   7.049  16.557  0.00  0.00    +0.000 OA
ATOM     32  H   UNL     1       7.639   7.986  16.803  0.00  0.00    +0.000 HD
ENDBRANCH  28  31
BRANCH  29  33
ATOM     33  O   UNL     1       5.262   6.371  15.343  0.00  0.00    +0.000 OA
ATOM     34  H   UNL     1       5.011   7.189  15.806  0.00  0.00    +0.000 HD
ENDBRANCH  29  33
BRANCH  30  35
ATOM     35  O   UNL     1       4.098   3.911  16.050  0.00  0.00    +0.000 OA
ATOM     36  H   UNL     1       4.490   3.024  15.985  0.00  0.00    +0.000 HD
ENDBRANCH  30  35
BRANCH  27  37
ATOM     37  C   UNL     1       8.121   6.053  19.427  0.00  0.00    +0.000 C 
BRANCH  37  38
ATOM     38  O   UNL     1       8.178   5.303  20.629  0.00  0.00    +0.000 OA
ATOM     39  H   UNL     1       9.115   5.080  20.773  0.00  0.00    +0.000 HD
ENDBRANCH  37  38
ENDBRANCH  27  37
ENDBRANCH  24  25
ENDBRANCH   6  24
TORSDOF 15
ENDMDL
MODEL 8
REMARK VINA RESULT:      -7.7      1.772      2.286
REMARK  Name = 
REMARK  17 active torsions:
REMARK  status: ('A' for Active; 'I' for Inactive)
REMARK    1  A    between atoms: C_1  and  C_2
REMARK    2  A    between atoms: C_2  and  O_3
REMARK    3  A    between atoms: O_3  and  C_4
REMARK    4  A    between atoms: C_4  and  C_6
REMARK    5  A    between atoms: C_7  and  C_8
REMARK    6  A    between atoms: C_7  and  C_9
REMARK    7  A    between atoms: C_9  and  O_10
REMARK    8  A    between atoms: O_10  and  C_11
REMARK    9  A    between atoms: C_14  and  C_15
REMARK   10  A    between atoms: C_15  and  C_16
REMARK   11  A    between atoms: C_21  and  O_22
REMARK   12  A    between atoms: O_22  and  C_23
REMARK   13  A    between atoms: C_25  and  C_26
REMARK   14  A    between atoms: C_26  and  O_27
REMARK   15  A    between atoms: C_28  and  O_29
REMARK   16  A    between atoms: C_30  and  O_31
REMARK   17  A    between atoms: C_32  and  O_33
REMARK                            x       y       z     vdW  Elec       q    Type
REMARK                         _______ _______ _______ _____ _____    ______ ____
ROOT
ATOM      1  C   UNL     1       2.541   5.196  19.803  0.00  0.00    +0.000 C 
ATOM      2  C   UNL     1       1.089   4.689  19.675  0.00  0.00    +0.000 C 
ATOM      3  C   UNL     1       0.816   3.484  20.568  0.00  0.00    +0.000 C 
ATOM      4  C   UNL     1       1.780   2.349  20.264  0.00  0.00    +0.000 C 
ATOM      5  C   UNL     1       3.216   2.815  20.409  0.00  0.00    +0.000 C 
ATOM      6  C   UNL     1       3.524   4.025  19.519  0.00  0.00    +0.000 C 
ENDROOT
BRANCH   1   7
ATOM      7  C   UNL     1       2.719   6.398  18.841  0.00  0.00    +0.000 C 
BRANCH   7  11
ATOM      8  C   UNL     1       0.866  10.141  19.954  0.00  0.00    +0.000 A 
ATOM      9  C   UNL     1       1.258   9.891  18.634  0.00  0.00    +0.000 A 
ATOM     10  C   UNL     1       1.822   8.669  18.279  0.00  0.00    +0.000 A 
ATOM     11  C   UNL     1       2.033   7.679  19.242  0.00  0.00    +0.000 A 
ATOM     12  C   UNL     1       1.631   7.924  20.561  0.00  0.00    +0.000 A 
ATOM     13  C   UNL     1       1.062   9.154  20.917  0.00  0.00    +0.000 A 
BRANCH   8  14
ATOM     14  O   UNL     1       0.307  11.319  20.391  0.00  0.00    +0.000 OA
BRANCH  14  15
ATOM     15  C   UNL     1      -1.108  11.219  20.575  0.00  0.00    +0.000 C 
BRANCH  15  17
ATOM     16  C   UNL     1      -2.495  12.540  22.163  0.00  0.00    +0.000 C 
ATOM     17  C   UNL     1      -1.567  11.577  21.969  0.00  0.00    +0.000 C 
ATOM     18  C   UNL     1      -0.885  10.903  23.123  0.00  0.00    +0.000 C 
BRANCH  16  19
ATOM     19  C   UNL     1      -3.068  13.351  21.048  0.00  0.00    +0.000 C 
ATOM     20  O   UNL     1      -2.572  14.349  20.557  0.00  0.00    +0.000 OA
BRANCH  19  21
ATOM     21  O   UNL     1      -4.306  12.866  20.789  0.00  0.00    +0.000 OA
BRANCH  21  23
ATOM     22  C   UNL     1      -5.969  12.272  19.180  0.00  0.00    +0.000 C 
ATOM     23  C   UNL     1      -4.477  12.392  19.443  0.00  0.00    +0.000 C 
ENDBRANCH  21  23
ENDBRANCH  19  21
ENDBRANCH  16  19
ENDBRANCH  15  17
ENDBRANCH  14  15
ENDBRANCH   8  14
ENDBRANCH   7  11
ENDBRANCH   1   7
BRANCH   6  24
ATOM     24  O   UNL     1       4.863   4.451  19.756  0.00  0.00    +0.000 OA
BRANCH  24  25
ATOM     25  C   UNL     1       5.799   4.383  18.676  0.00  0.00    +0.000 C 
ATOM     26  O   UNL     1       6.393   5.680  18.616  0.00  0.00    +0.000 OA
ATOM     27  C   UNL     1       7.346   5.900  17.576  0.00  0.00    +0.000 C 
ATOM     28  C   UNL     1       6.722   5.628  16.195  0.00  0.00    +0.000 C 
ATOM     29  C   UNL     1       6.149   4.208  16.176  0.00  0.00    +0.000 C 
ATOM     30  C   UNL     1       5.152   4.003  17.319  0.00  0.00    +0.000 C 
BRANCH  28  31
ATOM     31  O   UNL     1       7.644   5.776  15.115  0.00  0.00    +0.000 OA
ATOM     32  H   UNL     1       8.223   6.536  15.294  0.00  0.00    +0.000 HD
ENDBRANCH  28  31
BRANCH  29  33
ATOM     33  O   UNL     1       5.523   3.922  14.917  0.00  0.00    +0.000 OA
ATOM     34  H   UNL     1       5.134   3.032  14.970  0.00  0.00    +0.000 HD
ENDBRANCH  29  33
BRANCH  30  35
ATOM     35  O   UNL     1       4.694   2.638  17.277  0.00  0.00    +0.000 OA
ATOM     36  H   UNL     1       4.334   2.404  18.149  0.00  0.00    +0.000 HD
ENDBRANCH  30  35
BRANCH  27  37
ATOM     37  C   UNL     1       7.803   7.360  17.732  0.00  0.00    +0.000 C 
BRANCH  37  38
ATOM     38  O   UNL     1       8.560   7.576  18.912  0.00  0.00    +0.000 OA
ATOM     39  H   UNL     1       9.332   8.109  18.654  0.00  0.00    +0.000 HD
ENDBRANCH  37  38
ENDBRANCH  27  37
ENDBRANCH  24  25
ENDBRANCH   6  24
TORSDOF 15
ENDMDL
MODEL 9
REMARK VINA RESULT:      -7.6      2.050      2.940
REMARK  Name = 
REMARK  17 active torsions:
REMARK  status: ('A' for Active; 'I' for Inactive)
REMARK    1  A    between atoms: C_1  and  C_2
REMARK    2  A    between atoms: C_2  and  O_3
REMARK    3  A    between atoms: O_3  and  C_4
REMARK    4  A    between atoms: C_4  and  C_6
REMARK    5  A    between atoms: C_7  and  C_8
REMARK    6  A    between atoms: C_7  and  C_9
REMARK    7  A    between atoms: C_9  and  O_10
REMARK    8  A    between atoms: O_10  and  C_11
REMARK    9  A    between atoms: C_14  and  C_15
REMARK   10  A    between atoms: C_15  and  C_16
REMARK   11  A    between atoms: C_21  and  O_22
REMARK   12  A    between atoms: O_22  and  C_23
REMARK   13  A    between atoms: C_25  and  C_26
REMARK   14  A    between atoms: C_26  and  O_27
REMARK   15  A    between atoms: C_28  and  O_29
REMARK   16  A    between atoms: C_30  and  O_31
REMARK   17  A    between atoms: C_32  and  O_33
REMARK                            x       y       z     vdW  Elec       q    Type
REMARK                         _______ _______ _______ _____ _____    ______ ____
ROOT
ATOM      1  C   UNL     1       2.428   5.009  19.607  0.00  0.00    +0.000 C 
ATOM      2  C   UNL     1       1.048   4.328  19.495  0.00  0.00    +0.000 C 
ATOM      3  C   UNL     1       0.890   3.173  20.476  0.00  0.00    +0.000 C 
ATOM      4  C   UNL     1       1.985   2.137  20.282  0.00  0.00    +0.000 C 
ATOM      5  C   UNL     1       3.354   2.776  20.414  0.00  0.00    +0.000 C 
ATOM      6  C   UNL     1       3.546   3.941  19.436  0.00  0.00    +0.000 C 
ENDROOT
BRANCH   1   7
ATOM      7  C   UNL     1       2.494   6.144  18.555  0.00  0.00    +0.000 C 
BRANCH   7  11
ATOM      8  C   UNL     1       1.038   9.984  19.904  0.00  0.00    +0.000 A 
ATOM      9  C   UNL     1       1.192   8.914  20.794  0.00  0.00    +0.000 A 
ATOM     10  C   UNL     1       1.694   7.692  20.355  0.00  0.00    +0.000 A 
ATOM     11  C   UNL     1       2.029   7.503  19.012  0.00  0.00    +0.000 A 
ATOM     12  C   UNL     1       1.886   8.577  18.123  0.00  0.00    +0.000 A 
ATOM     13  C   UNL     1       1.381   9.806  18.566  0.00  0.00    +0.000 A 
BRANCH   8  14
ATOM     14  O   UNL     1       0.545  11.221  20.250  0.00  0.00    +0.000 OA
BRANCH  14  15
ATOM     15  C   UNL     1      -0.805  11.161  20.717  0.00  0.00    +0.000 C 
BRANCH  15  17
ATOM     16  C   UNL     1      -0.996  12.860  22.525  0.00  0.00    +0.000 C 
ATOM     17  C   UNL     1      -0.966  11.558  22.165  0.00  0.00    +0.000 C 
ATOM     18  C   UNL     1      -0.987  10.462  23.190  0.00  0.00    +0.000 C 
BRANCH  16  19
ATOM     19  C   UNL     1      -0.803  13.974  21.550  0.00  0.00    +0.000 C 
ATOM     20  O   UNL     1       0.250  14.527  21.288  0.00  0.00    +0.000 OA
BRANCH  19  21
ATOM     21  O   UNL     1      -2.032  14.361  21.127  0.00  0.00    +0.000 OA
BRANCH  21  23
ATOM     22  C   UNL     1      -2.914  16.329  22.153  0.00  0.00    +0.000 C 
ATOM     23  C   UNL     1      -2.167  15.780  20.949  0.00  0.00    +0.000 C 
ENDBRANCH  21  23
ENDBRANCH  19  21
ENDBRANCH  16  19
ENDBRANCH  15  17
ENDBRANCH  14  15
ENDBRANCH   8  14
ENDBRANCH   7  11
ENDBRANCH   1   7
BRANCH   6  24
ATOM     24  O   UNL     1       4.821   4.536  19.661  0.00  0.00    +0.000 OA
BRANCH  24  25
ATOM     25  C   UNL     1       5.801   4.457  18.622  0.00  0.00    +0.000 C 
ATOM     26  O   UNL     1       6.373   5.764  18.551  0.00  0.00    +0.000 OA
ATOM     27  C   UNL     1       7.364   5.975  17.545  0.00  0.00    +0.000 C 
ATOM     28  C   UNL     1       6.801   5.655  16.147  0.00  0.00    +0.000 C 
ATOM     29  C   UNL     1       6.255   4.224  16.143  0.00  0.00    +0.000 C 
ATOM     30  C   UNL     1       5.217   4.030  17.251  0.00  0.00    +0.000 C 
BRANCH  28  31
ATOM     31  O   UNL     1       7.764   5.792  15.102  0.00  0.00    +0.000 OA
ATOM     32  H   UNL     1       7.335   6.191  14.326  0.00  0.00    +0.000 HD
ENDBRANCH  28  31
BRANCH  29  33
ATOM     33  O   UNL     1       5.686   3.894  14.868  0.00  0.00    +0.000 OA
ATOM     34  H   UNL     1       4.861   3.403  15.026  0.00  0.00    +0.000 HD
ENDBRANCH  29  33
BRANCH  30  35
ATOM     35  O   UNL     1       4.785   2.656  17.226  0.00  0.00    +0.000 OA
ATOM     36  H   UNL     1       5.570   2.083  17.253  0.00  0.00    +0.000 HD
ENDBRANCH  30  35
BRANCH  27  37
ATOM     37  C   UNL     1       7.788   7.447  17.680  0.00  0.00    +0.000 C 
BRANCH  37  38
ATOM     38  O   UNL     1       8.572   7.688  18.837  0.00  0.00    +0.000 OA
ATOM     39  H   UNL     1       8.433   6.929  19.430  0.00  0.00    +0.000 HD
ENDBRANCH  37  38
ENDBRANCH  27  37
ENDBRANCH  24  25
ENDBRANCH   6  24
TORSDOF 15
ENDMDL
