MODEL 1
REMARK VINA RESULT:      -8.2      0.000      0.000
REMARK  Name = 
REMARK  4 active torsions:
REMARK  status: ('A' for Active; 'I' for Inactive)
REMARK    1  A    between atoms: C_1  and  C_2
REMARK    2  A    between atoms: C_8  and  C_10
REMARK    3  A    between atoms: C_10  and  C_11
REMARK    4  A    between atoms: C_11  and  C_12
REMARK                            x       y       z     vdW  Elec       q    Type
REMARK                         _______ _______ _______ _____ _____    ______ ____
ROOT
ATOM      1  C   UNL     1       5.339   5.664  18.441  0.00  0.00    +0.000 C 
ENDROOT
BRANCH   1   9
ATOM      2  C   UNL     1       2.530   6.482  18.183  0.00  0.00    +0.000 C 
ATOM      3  C   UNL     1       2.308   5.109  18.810  0.00  0.00    +0.000 C 
ATOM      4  C   UNL     1       1.527   4.216  17.826  0.00  0.00    +0.000 C 
ATOM      5  C   UNL     1       1.042   2.939  18.514  0.00  0.00    +0.000 C 
ATOM      6  C   UNL     1       2.199   2.206  19.187  0.00  0.00    +0.000 C 
ATOM      7  C   UNL     1       2.987   3.136  20.109  0.00  0.00    +0.000 C 
ATOM      8  N   UNL     1       3.445   4.333  19.386  0.00  0.00    +0.000 N 
ATOM      9  C   UNL     1       4.823   4.460  19.190  0.00  0.00    +0.000 C 
ATOM     10  O   UNL     1       5.627   3.634  19.632  0.00  0.00    +0.000 OA
ENDBRANCH   1   9
BRANCH   1  11
ATOM     11  C   UNL     1       6.741   5.510  17.852  0.00  0.00    +0.000 C 
BRANCH  11  12
ATOM     12  C   UNL     1       6.678   5.097  16.401  0.00  0.00    +0.000 A 
ATOM     13  N   UNL     1       7.465   5.558  15.453  0.00  0.00    +0.000 NA
ATOM     14  C   UNL     1       7.161   4.963  14.236  0.00  0.00    +0.000 A 
ATOM     15  C   UNL     1       7.817   5.200  13.013  0.00  0.00    +0.000 A 
ATOM     16  C   UNL     1       7.403   4.528  11.854  0.00  0.00    +0.000 A 
ATOM     17  C   UNL     1       6.340   3.631  11.906  0.00  0.00    +0.000 A 
ATOM     18  C   UNL     1       5.673   3.377  13.112  0.00  0.00    +0.000 A 
ATOM     19  C   UNL     1       6.108   4.049  14.270  0.00  0.00    +0.000 A 
ATOM     20  S   UNL     1       5.520   3.932  15.886  0.00  0.00    +0.000 S 
ENDBRANCH  11  12
ENDBRANCH   1  11
TORSDOF 3
ENDMDL
MODEL 2
REMARK VINA RESULT:      -7.2      2.703      6.622
REMARK  Name = 
REMARK  4 active torsions:
REMARK  status: ('A' for Active; 'I' for Inactive)
REMARK    1  A    between atoms: C_1  and  C_2
REMARK    2  A    between atoms: C_8  and  C_10
REMARK    3  A    between atoms: C_10  and  C_11
REMARK    4  A    between atoms: C_11  and  C_12
REMARK                            x       y       z     vdW  Elec       q    Type
REMARK                         _______ _______ _______ _____ _____    ______ ____
ROOT
ATOM      1  C   UNL     1       4.013   3.848  17.819  0.00  0.00    +0.000 C 
ENDROOT
BRANCH   1   9
ATOM      2  C   UNL     1       5.093   5.397  15.569  0.00  0.00    +0.000 C 
ATOM      3  C   UNL     1       6.255   5.573  16.541  0.00  0.00    +0.000 C 
ATOM      4  C   UNL     1       6.416   7.066  16.883  0.00  0.00    +0.000 C 
ATOM      5  C   UNL     1       7.730   7.318  17.624  0.00  0.00    +0.000 C 
ATOM      6  C   UNL     1       7.851   6.415  18.849  0.00  0.00    +0.000 C 
ATOM      7  C   UNL     1       7.626   4.947  18.483  0.00  0.00    +0.000 C 
ATOM      8  N   UNL     1       6.338   4.766  17.794  0.00  0.00    +0.000 N 
ATOM      9  C   UNL     1       5.355   4.048  18.479  0.00  0.00    +0.000 C 
ATOM     10  O   UNL     1       5.559   3.554  19.592  0.00  0.00    +0.000 OA
ENDBRANCH   1   9
BRANCH   1  11
ATOM     11  C   UNL     1       2.808   3.944  18.755  0.00  0.00    +0.000 C 
BRANCH  11  12
ATOM     12  C   UNL     1       2.429   5.384  19.006  0.00  0.00    +0.000 A 
ATOM     13  N   UNL     1       2.470   6.340  18.104  0.00  0.00    +0.000 NA
ATOM     14  C   UNL     1       2.040   7.542  18.649  0.00  0.00    +0.000 A 
ATOM     15  C   UNL     1       1.931   8.768  17.966  0.00  0.00    +0.000 A 
ATOM     16  C   UNL     1       1.482   9.910  18.643  0.00  0.00    +0.000 A 
ATOM     17  C   UNL     1       1.147   9.839  19.992  0.00  0.00    +0.000 A 
ATOM     18  C   UNL     1       1.245   8.630  20.693  0.00  0.00    +0.000 A 
ATOM     19  C   UNL     1       1.686   7.488  19.997  0.00  0.00    +0.000 A 
ATOM     20  S   UNL     1       1.882   5.872  20.563  0.00  0.00    +0.000 S 
ENDBRANCH  11  12
ENDBRANCH   1  11
TORSDOF 3
ENDMDL
MODEL 3
REMARK VINA RESULT:      -7.2      4.351      7.955
REMARK  Name = 
REMARK  4 active torsions:
REMARK  status: ('A' for Active; 'I' for Inactive)
REMARK    1  A    between atoms: C_1  and  C_2
REMARK    2  A    between atoms: C_8  and  C_10
REMARK    3  A    between atoms: C_10  and  C_11
REMARK    4  A    between atoms: C_11  and  C_12
REMARK                            x       y       z     vdW  Elec       q    Type
REMARK                         _______ _______ _______ _____ _____    ______ ____
ROOT
ATOM      1  C   UNL     1       3.153   6.693  19.185  0.00  0.00    +0.000 C 
ENDROOT
BRANCH   1   9
ATOM      2  C   UNL     1       2.172   4.771  21.178  0.00  0.00    +0.000 C 
ATOM      3  C   UNL     1       2.493   3.788  20.056  0.00  0.00    +0.000 C 
ATOM      4  C   UNL     1       1.197   3.086  19.604  0.00  0.00    +0.000 C 
ATOM      5  C   UNL     1       1.509   1.903  18.687  0.00  0.00    +0.000 C 
ATOM      6  C   UNL     1       2.388   2.333  17.516  0.00  0.00    +0.000 C 
ATOM      7  C   UNL     1       3.633   3.079  17.998  0.00  0.00    +0.000 C 
ATOM      8  N   UNL     1       3.268   4.218  18.856  0.00  0.00    +0.000 N 
ATOM      9  C   UNL     1       3.523   5.494  18.348  0.00  0.00    +0.000 C 
ATOM     10  O   UNL     1       4.063   5.667  17.252  0.00  0.00    +0.000 OA
ENDBRANCH   1   9
BRANCH   1  11
ATOM     11  C   UNL     1       2.408   7.800  18.440  0.00  0.00    +0.000 C 
BRANCH  11  12
ATOM     12  C   UNL     1       1.560   8.616  19.387  0.00  0.00    +0.000 A 
ATOM     13  N   UNL     1       1.356   8.327  20.654  0.00  0.00    +0.000 NA
ATOM     14  C   UNL     1       0.549   9.286  21.248  0.00  0.00    +0.000 A 
ATOM     15  C   UNL     1       0.147   9.307  22.597  0.00  0.00    +0.000 A 
ATOM     16  C   UNL     1      -0.677  10.341  23.067  0.00  0.00    +0.000 A 
ATOM     17  C   UNL     1      -1.105  11.344  22.202  0.00  0.00    +0.000 A 
ATOM     18  C   UNL     1      -0.717  11.345  20.856  0.00  0.00    +0.000 A 
ATOM     19  C   UNL     1       0.121  10.308  20.401  0.00  0.00    +0.000 A 
ATOM     20  S   UNL     1       0.785  10.050  18.832  0.00  0.00    +0.000 S 
ENDBRANCH  11  12
ENDBRANCH   1  11
TORSDOF 3
ENDMDL
MODEL 4
REMARK VINA RESULT:      -7.1      3.601      5.761
REMARK  Name = 
REMARK  4 active torsions:
REMARK  status: ('A' for Active; 'I' for Inactive)
REMARK    1  A    between atoms: C_1  and  C_2
REMARK    2  A    between atoms: C_8  and  C_10
REMARK    3  A    between atoms: C_10  and  C_11
REMARK    4  A    between atoms: C_11  and  C_12
REMARK                            x       y       z     vdW  Elec       q    Type
REMARK                         _______ _______ _______ _____ _____    ______ ____
ROOT
ATOM      1  C   UNL     1       4.324   3.441  17.427  0.00  0.00    +0.000 C 
ENDROOT
BRANCH   1   9
ATOM      2  C   UNL     1       4.681   1.908  19.908  0.00  0.00    +0.000 C 
ATOM      3  C   UNL     1       3.165   2.078  19.964  0.00  0.00    +0.000 C 
ATOM      4  C   UNL     1       2.787   2.894  21.215  0.00  0.00    +0.000 C 
ATOM      5  C   UNL     1       1.278   2.848  21.460  0.00  0.00    +0.000 C 
ATOM      6  C   UNL     1       0.506   3.281  20.216  0.00  0.00    +0.000 C 
ATOM      7  C   UNL     1       0.951   2.492  18.983  0.00  0.00    +0.000 C 
ATOM      8  N   UNL     1       2.406   2.593  18.788  0.00  0.00    +0.000 N 
ATOM      9  C   UNL     1       2.841   3.298  17.663  0.00  0.00    +0.000 C 
ATOM     10  O   UNL     1       2.052   3.783  16.847  0.00  0.00    +0.000 OA
ENDBRANCH   1   9
BRANCH   1  11
ATOM     11  C   UNL     1       5.004   4.554  18.224  0.00  0.00    +0.000 C 
BRANCH  11  12
ATOM     12  C   UNL     1       4.076   5.731  18.412  0.00  0.00    +0.000 A 
ATOM     13  N   UNL     1       3.351   5.952  19.487  0.00  0.00    +0.000 NA
ATOM     14  C   UNL     1       2.624   7.127  19.350  0.00  0.00    +0.000 A 
ATOM     15  C   UNL     1       1.761   7.682  20.314  0.00  0.00    +0.000 A 
ATOM     16  C   UNL     1       1.085   8.880  20.041  0.00  0.00    +0.000 A 
ATOM     17  C   UNL     1       1.257   9.520  18.818  0.00  0.00    +0.000 A 
ATOM     18  C   UNL     1       2.112   8.987  17.843  0.00  0.00    +0.000 A 
ATOM     19  C   UNL     1       2.794   7.791  18.135  0.00  0.00    +0.000 A 
ATOM     20  S   UNL     1       3.921   6.912  17.170  0.00  0.00    +0.000 S 
ENDBRANCH  11  12
ENDBRANCH   1  11
TORSDOF 3
ENDMDL
MODEL 5
REMARK VINA RESULT:      -7.0      1.177      1.695
REMARK  Name = 
REMARK  4 active torsions:
REMARK  status: ('A' for Active; 'I' for Inactive)
REMARK    1  A    between atoms: C_1  and  C_2
REMARK    2  A    between atoms: C_8  and  C_10
REMARK    3  A    between atoms: C_10  and  C_11
REMARK    4  A    between atoms: C_11  and  C_12
REMARK                            x       y       z     vdW  Elec       q    Type
REMARK                         _______ _______ _______ _____ _____    ______ ____
ROOT
ATOM      1  C   UNL     1       5.395   4.029  18.279  0.00  0.00    +0.000 C 
ENDROOT
BRANCH   1   9
ATOM      2  C   UNL     1       2.948   2.660  17.406  0.00  0.00    +0.000 C 
ATOM      3  C   UNL     1       2.319   3.631  18.400  0.00  0.00    +0.000 C 
ATOM      4  C   UNL     1       1.654   2.838  19.542  0.00  0.00    +0.000 C 
ATOM      5  C   UNL     1       0.779   3.750  20.402  0.00  0.00    +0.000 C 
ATOM      6  C   UNL     1       1.570   4.956  20.903  0.00  0.00    +0.000 C 
ATOM      7  C   UNL     1       2.265   5.683  19.752  0.00  0.00    +0.000 C 
ATOM      8  N   UNL     1       3.108   4.759  18.976  0.00  0.00    +0.000 N 
ATOM      9  C   UNL     1       4.489   4.960  19.047  0.00  0.00    +0.000 C 
ATOM     10  O   UNL     1       4.985   5.886  19.694  0.00  0.00    +0.000 OA
ENDBRANCH   1   9
BRANCH   1  11
ATOM     11  C   UNL     1       6.673   4.668  17.736  0.00  0.00    +0.000 C 
BRANCH  11  12
ATOM     12  C   UNL     1       6.730   4.571  16.230  0.00  0.00    +0.000 A 
ATOM     13  N   UNL     1       7.496   5.311  15.457  0.00  0.00    +0.000 NA
ATOM     14  C   UNL     1       7.326   4.960  14.125  0.00  0.00    +0.000 A 
ATOM     15  C   UNL     1       8.003   5.527  13.028  0.00  0.00    +0.000 A 
ATOM     16  C   UNL     1       7.732   5.076  11.729  0.00  0.00    +0.000 A 
ATOM     17  C   UNL     1       6.790   4.074  11.516  0.00  0.00    +0.000 A 
ATOM     18  C   UNL     1       6.105   3.494  12.592  0.00  0.00    +0.000 A 
ATOM     19  C   UNL     1       6.396   3.947  13.893  0.00  0.00    +0.000 A 
ATOM     20  S   UNL     1       5.753   3.420  15.403  0.00  0.00    +0.000 S 
ENDBRANCH  11  12
ENDBRANCH   1  11
TORSDOF 3
ENDMDL
MODEL 6
REMARK VINA RESULT:      -7.0      1.631      2.411
REMARK  Name = 
REMARK  4 active torsions:
REMARK  status: ('A' for Active; 'I' for Inactive)
REMARK    1  A    between atoms: C_1  and  C_2
REMARK    2  A    between atoms: C_8  and  C_10
REMARK    3  A    between atoms: C_10  and  C_11
REMARK    4  A    between atoms: C_11  and  C_12
REMARK                            x       y       z     vdW  Elec       q    Type
REMARK                         _______ _______ _______ _____ _____    ______ ____
ROOT
ATOM      1  C   UNL     1       3.485   5.831  17.681  0.00  0.00    +0.000 C 
ENDROOT
BRANCH   1   9
ATOM      2  C   UNL     1       2.319   3.173  17.228  0.00  0.00    +0.000 C 
ATOM      3  C   UNL     1       1.850   3.383  18.664  0.00  0.00    +0.000 C 
ATOM      4  C   UNL     1       2.478   2.307  19.571  0.00  0.00    +0.000 C 
ATOM      5  C   UNL     1       1.821   2.306  20.952  0.00  0.00    +0.000 C 
ATOM      6  C   UNL     1       1.856   3.699  21.577  0.00  0.00    +0.000 C 
ATOM      7  C   UNL     1       1.281   4.750  20.626  0.00  0.00    +0.000 C 
ATOM      8  N   UNL     1       1.967   4.716  19.324  0.00  0.00    +0.000 N 
ATOM      9  C   UNL     1       2.751   5.826  18.999  0.00  0.00    +0.000 C 
ATOM     10  O   UNL     1       2.840   6.806  19.743  0.00  0.00    +0.000 OA
ENDBRANCH   1   9
BRANCH   1  11
ATOM     11  C   UNL     1       4.962   5.442  17.758  0.00  0.00    +0.000 C 
BRANCH  11  12
ATOM     12  C   UNL     1       5.509   5.114  16.389  0.00  0.00    +0.000 A 
ATOM     13  N   UNL     1       4.926   4.320  15.517  0.00  0.00    +0.000 NA
ATOM     14  C   UNL     1       5.676   4.246  14.351  0.00  0.00    +0.000 A 
ATOM     15  C   UNL     1       5.341   3.509  13.199  0.00  0.00    +0.000 A 
ATOM     16  C   UNL     1       6.195   3.521  12.087  0.00  0.00    +0.000 A 
ATOM     17  C   UNL     1       7.378   4.254  12.119  0.00  0.00    +0.000 A 
ATOM     18  C   UNL     1       7.732   4.996  13.254  0.00  0.00    +0.000 A 
ATOM     19  C   UNL     1       6.858   4.985  14.358  0.00  0.00    +0.000 A 
ATOM     20  S   UNL     1       6.995   5.807  15.867  0.00  0.00    +0.000 S 
ENDBRANCH  11  12
ENDBRANCH   1  11
TORSDOF 3
ENDMDL
MODEL 7
REMARK VINA RESULT:      -6.9      4.517      8.349
REMARK  Name = 
REMARK  4 active torsions:
REMARK  status: ('A' for Active; 'I' for Inactive)
REMARK    1  A    between atoms: C_1  and  C_2
REMARK    2  A    between atoms: C_8  and  C_10
REMARK    3  A    between atoms: C_10  and  C_11
REMARK    4  A    between atoms: C_11  and  C_12
REMARK                            x       y       z     vdW  Elec       q    Type
REMARK                         _______ _______ _______ _____ _____    ______ ____
ROOT
ATOM      1  C   UNL     1       2.143   7.248  18.190  0.00  0.00    +0.000 C 
ENDROOT
BRANCH   1   9
ATOM      2  C   UNL     1       1.640   5.446  20.454  0.00  0.00    +0.000 C 
ATOM      3  C   UNL     1       3.051   4.982  20.106  0.00  0.00    +0.000 C 
ATOM      4  C   UNL     1       3.013   3.502  19.678  0.00  0.00    +0.000 C 
ATOM      5  C   UNL     1       4.426   2.922  19.593  0.00  0.00    +0.000 C 
ATOM      6  C   UNL     1       5.316   3.775  18.692  0.00  0.00    +0.000 C 
ATOM      7  C   UNL     1       5.282   5.247  19.109  0.00  0.00    +0.000 C 
ATOM      8  N   UNL     1       3.900   5.752  19.151  0.00  0.00    +0.000 N 
ATOM      9  C   UNL     1       3.553   6.710  18.195  0.00  0.00    +0.000 C 
ATOM     10  O   UNL     1       4.368   7.146  17.377  0.00  0.00    +0.000 OA
ENDBRANCH   1   9
BRANCH   1  11
ATOM     11  C   UNL     1       2.027   8.763  18.024  0.00  0.00    +0.000 C 
BRANCH  11  12
ATOM     12  C   UNL     1       1.232   9.373  19.154  0.00  0.00    +0.000 A 
ATOM     13  N   UNL     1       1.103   8.846  20.353  0.00  0.00    +0.000 NA
ATOM     14  C   UNL     1       0.327   9.664  21.163  0.00  0.00    +0.000 A 
ATOM     15  C   UNL     1       0.004   9.423  22.512  0.00  0.00    +0.000 A 
ATOM     16  C   UNL     1      -0.795  10.337  23.214  0.00  0.00    +0.000 A 
ATOM     17  C   UNL     1      -1.277  11.479  22.581  0.00  0.00    +0.000 A 
ATOM     18  C   UNL     1      -0.967  11.740  21.239  0.00  0.00    +0.000 A 
ATOM     19  C   UNL     1      -0.153  10.821  20.550  0.00  0.00    +0.000 A 
ATOM     20  S   UNL     1       0.420  10.873  18.925  0.00  0.00    +0.000 S 
ENDBRANCH  11  12
ENDBRANCH   1  11
TORSDOF 3
ENDMDL
MODEL 8
REMARK VINA RESULT:      -6.9      2.688      3.971
REMARK  Name = 
REMARK  4 active torsions:
REMARK  status: ('A' for Active; 'I' for Inactive)
REMARK    1  A    between atoms: C_1  and  C_2
REMARK    2  A    between atoms: C_8  and  C_10
REMARK    3  A    between atoms: C_10  and  C_11
REMARK    4  A    between atoms: C_11  and  C_12
REMARK                            x       y       z     vdW  Elec       q    Type
REMARK                         _______ _______ _______ _____ _____    ______ ____
ROOT
ATOM      1  C   UNL     1       3.106   3.516  16.972  0.00  0.00    +0.000 C 
ENDROOT
BRANCH   1   9
ATOM      2  C   UNL     1       2.628   5.763  18.801  0.00  0.00    +0.000 C 
ATOM      3  C   UNL     1       2.763   4.654  19.839  0.00  0.00    +0.000 C 
ATOM      4  C   UNL     1       1.436   4.508  20.610  0.00  0.00    +0.000 C 
ATOM      5  C   UNL     1       1.613   3.610  21.835  0.00  0.00    +0.000 C 
ATOM      6  C   UNL     1       2.222   2.265  21.448  0.00  0.00    +0.000 C 
ATOM      7  C   UNL     1       3.503   2.449  20.633  0.00  0.00    +0.000 C 
ATOM      8  N   UNL     1       3.265   3.301  19.457  0.00  0.00    +0.000 N 
ATOM      9  C   UNL     1       3.357   2.686  18.206  0.00  0.00    +0.000 C 
ATOM     10  O   UNL     1       3.660   1.496  18.082  0.00  0.00    +0.000 OA
ENDBRANCH   1   9
BRANCH   1  11
ATOM     11  C   UNL     1       4.321   3.715  16.066  0.00  0.00    +0.000 C 
BRANCH  11  12
ATOM     12  C   UNL     1       5.259   4.753  16.635  0.00  0.00    +0.000 A 
ATOM     13  N   UNL     1       6.074   4.555  17.649  0.00  0.00    +0.000 NA
ATOM     14  C   UNL     1       6.812   5.701  17.910  0.00  0.00    +0.000 A 
ATOM     15  C   UNL     1       7.795   5.841  18.908  0.00  0.00    +0.000 A 
ATOM     16  C   UNL     1       8.466   7.062  19.064  0.00  0.00    +0.000 A 
ATOM     17  C   UNL     1       8.159   8.141  18.240  0.00  0.00    +0.000 A 
ATOM     18  C   UNL     1       7.186   8.025  17.239  0.00  0.00    +0.000 A 
ATOM     19  C   UNL     1       6.529   6.789  17.085  0.00  0.00    +0.000 A 
ATOM     20  S   UNL     1       5.322   6.328  15.944  0.00  0.00    +0.000 S 
ENDBRANCH  11  12
ENDBRANCH   1  11
TORSDOF 3
ENDMDL
MODEL 9
REMARK VINA RESULT:      -6.9      4.162      7.857
REMARK  Name = 
REMARK  4 active torsions:
REMARK  status: ('A' for Active; 'I' for Inactive)
REMARK    1  A    between atoms: C_1  and  C_2
REMARK    2  A    between atoms: C_8  and  C_10
REMARK    3  A    between atoms: C_10  and  C_11
REMARK    4  A    between atoms: C_11  and  C_12
REMARK                            x       y       z     vdW  Elec       q    Type
REMARK                         _______ _______ _______ _____ _____    ______ ____
ROOT
ATOM      1  C   UNL     1       3.182   6.633  18.486  0.00  0.00    +0.000 C 
ENDROOT
BRANCH   1   9
ATOM      2  C   UNL     1       5.633   5.051  18.833  0.00  0.00    +0.000 C 
ATOM      3  C   UNL     1       4.683   3.916  18.461  0.00  0.00    +0.000 C 
ATOM      4  C   UNL     1       4.579   2.928  19.639  0.00  0.00    +0.000 C 
ATOM      5  C   UNL     1       3.868   1.643  19.213  0.00  0.00    +0.000 C 
ATOM      6  C   UNL     1       2.514   1.951  18.577  0.00  0.00    +0.000 C 
ATOM      7  C   UNL     1       2.647   2.979  17.453  0.00  0.00    +0.000 C 
ATOM      8  N   UNL     1       3.318   4.199  17.930  0.00  0.00    +0.000 N 
ATOM      9  C   UNL     1       2.542   5.360  17.989  0.00  0.00    +0.000 C 
ATOM     10  O   UNL     1       1.363   5.380  17.626  0.00  0.00    +0.000 OA
ENDBRANCH   1   9
BRANCH   1  11
ATOM     11  C   UNL     1       2.565   7.923  17.946  0.00  0.00    +0.000 C 
BRANCH  11  12
ATOM     12  C   UNL     1       1.758   8.626  19.011  0.00  0.00    +0.000 A 
ATOM     13  N   UNL     1       1.643   8.220  20.257  0.00  0.00    +0.000 NA
ATOM     14  C   UNL     1       0.849   9.098  20.982  0.00  0.00    +0.000 A 
ATOM     15  C   UNL     1       0.533   8.989  22.350  0.00  0.00    +0.000 A 
ATOM     16  C   UNL     1      -0.287   9.950  22.959  0.00  0.00    +0.000 A 
ATOM     17  C   UNL     1      -0.797  11.010  22.214  0.00  0.00    +0.000 A 
ATOM     18  C   UNL     1      -0.495  11.141  20.852  0.00  0.00    +0.000 A 
ATOM     19  C   UNL     1       0.340  10.175  20.257  0.00  0.00    +0.000 A 
ATOM     20  S   UNL     1       0.910  10.076  18.634  0.00  0.00    +0.000 S 
ENDBRANCH  11  12
ENDBRANCH   1  11
TORSDOF 3
ENDMDL
