MODEL 1
REMARK VINA RESULT:      -8.3      0.000      0.000
REMARK  Name = 
REMARK  5 active torsions:
REMARK  status: ('A' for Active; 'I' for Inactive)
REMARK    1  A    between atoms: C_2  and  C_3
REMARK    2  A    between atoms: C_3  and  N_4
REMARK    3  A    between atoms: C_16  and  C_17
REMARK    4  A    between atoms: N_26  and  C_27
REMARK    5  A    between atoms: C_27  and  C_28
REMARK                            x       y       z     vdW  Elec       q    Type
REMARK                         _______ _______ _______ _____ _____    ______ ____
ROOT
ATOM      1  N   UNL     1      -0.537  10.842  18.949  0.00  0.00    +0.000 N 
ATOM      2  C   UNL     1      -1.829  10.504  18.544  0.00  0.00    +0.000 C 
ATOM      3  O   UNL     1      -2.129   9.380  18.140  0.00  0.00    +0.000 OA
ATOM      4  C   UNL     1      -2.733  11.738  18.460  0.00  0.00    +0.000 C 
ATOM      5  C   UNL     1      -4.053  11.416  17.778  0.00  0.00    +0.000 C 
ATOM      6  C   UNL     1      -5.324  11.532  18.579  0.00  0.00    +0.000 C 
ATOM      7  C   UNL     1      -5.274  12.411  19.818  0.00  0.00    +0.000 C 
ATOM      8  C   UNL     1      -3.961  13.126  20.166  0.00  0.00    +0.000 C 
ATOM      9  N   UNL     1      -2.765  12.393  19.777  0.00  0.00    +0.000 N 
ATOM     10  C   UNL     1      -1.441  12.853  20.080  0.00  0.00    +0.000 A 
ATOM     11  C   UNL     1      -1.162  14.051  20.763  0.00  0.00    +0.000 A 
ATOM     12  C   UNL     1       0.177  14.477  20.979  0.00  0.00    +0.000 A 
ATOM     13  C   UNL     1       1.263  13.732  20.519  0.00  0.00    +0.000 A 
ATOM     14  C   UNL     1       1.002  12.515  19.894  0.00  0.00    +0.000 A 
ATOM     15  C   UNL     1      -0.313  12.076  19.645  0.00  0.00    +0.000 A 
ENDROOT
BRANCH  13  16
ATOM     16  C   UNL     1       2.714  14.085  20.686  0.00  0.00    +0.000 C 
ATOM     17  O   UNL     1       3.319  13.583  21.635  0.00  0.00    +0.000 OA
ATOM     18  N   UNL     1       3.377  14.853  19.733  0.00  0.00    +0.000 N 
ATOM     19  C   UNL     1       2.841  15.462  18.535  0.00  0.00    +0.000 C 
ATOM     20  C   UNL     1       4.013  15.472  17.568  0.00  0.00    +0.000 C 
ATOM     21  C   UNL     1       5.226  15.664  18.470  0.00  0.00    +0.000 C 
ATOM     22  C   UNL     1       4.824  15.022  19.799  0.00  0.00    +0.000 C 
ENDBRANCH  13  16
BRANCH   1  23
ATOM     23  C   UNL     1       0.512  10.145  18.226  0.00  0.00    +0.000 C 
BRANCH  23  25
ATOM     24  O   UNL     1       0.978   9.183  20.428  0.00  0.00    +0.000 OA
ATOM     25  C   UNL     1       1.181   9.163  19.214  0.00  0.00    +0.000 C 
ATOM     26  N   UNL     1       2.029   8.245  18.634  0.00  0.00    +0.000 N 
ATOM     27  H   UNL     1       2.339   8.395  17.683  0.00  0.00    +0.000 HD
BRANCH  26  28
ATOM     28  C   UNL     1       2.744   7.280  19.438  0.00  0.00    +0.000 C 
BRANCH  28  29
ATOM     29  C   UNL     1       2.257   5.870  19.220  0.00  0.00    +0.000 A 
ATOM     30  C   UNL     1       2.045   5.381  17.922  0.00  0.00    +0.000 A 
ATOM     31  C   UNL     1       1.554   4.087  17.721  0.00  0.00    +0.000 A 
ATOM     32  C   UNL     1       1.279   3.265  18.813  0.00  0.00    +0.000 A 
ATOM     33  C   UNL     1       1.511   3.735  20.104  0.00  0.00    +0.000 A 
ATOM     34 CL   UNL     1       1.188   2.713  21.451  0.00  0.00    +0.000 Cl
ATOM     35  C   UNL     1       1.999   5.026  20.312  0.00  0.00    +0.000 A 
ENDBRANCH  28  29
ENDBRANCH  26  28
ENDBRANCH  23  25
ENDBRANCH   1  23
TORSDOF 5
ENDMDL
MODEL 2
REMARK VINA RESULT:      -8.2      4.170      9.550
REMARK  Name = 
REMARK  5 active torsions:
REMARK  status: ('A' for Active; 'I' for Inactive)
REMARK    1  A    between atoms: C_2  and  C_3
REMARK    2  A    between atoms: C_3  and  N_4
REMARK    3  A    between atoms: C_16  and  C_17
REMARK    4  A    between atoms: N_26  and  C_27
REMARK    5  A    between atoms: C_27  and  C_28
REMARK                            x       y       z     vdW  Elec       q    Type
REMARK                         _______ _______ _______ _____ _____    ______ ____
ROOT
ATOM      1  N   UNL     1       3.263   6.144  18.680  0.00  0.00    +0.000 N 
ATOM      2  C   UNL     1       2.480   5.742  19.764  0.00  0.00    +0.000 C 
ATOM      3  O   UNL     1       1.716   6.507  20.355  0.00  0.00    +0.000 OA
ATOM      4  C   UNL     1       2.859   4.336  20.240  0.00  0.00    +0.000 C 
ATOM      5  C   UNL     1       2.197   4.001  21.567  0.00  0.00    +0.000 C 
ATOM      6  C   UNL     1       1.198   2.874  21.609  0.00  0.00    +0.000 C 
ATOM      7  C   UNL     1       1.275   1.850  20.489  0.00  0.00    +0.000 C 
ATOM      8  C   UNL     1       2.355   2.013  19.409  0.00  0.00    +0.000 C 
ATOM      9  N   UNL     1       2.700   3.396  19.120  0.00  0.00    +0.000 N 
ATOM     10  C   UNL     1       3.631   3.764  18.092  0.00  0.00    +0.000 A 
ATOM     11  C   UNL     1       4.308   2.839  17.277  0.00  0.00    +0.000 A 
ATOM     12  C   UNL     1       5.262   3.271  16.316  0.00  0.00    +0.000 A 
ATOM     13  C   UNL     1       5.570   4.621  16.147  0.00  0.00    +0.000 A 
ATOM     14  C   UNL     1       4.863   5.551  16.906  0.00  0.00    +0.000 A 
ATOM     15  C   UNL     1       3.928   5.155  17.882  0.00  0.00    +0.000 A 
ENDROOT
BRANCH  13  16
ATOM     16  C   UNL     1       6.559   5.189  15.168  0.00  0.00    +0.000 C 
ATOM     17  O   UNL     1       7.440   5.929  15.610  0.00  0.00    +0.000 OA
ATOM     18  N   UNL     1       6.550   4.794  13.834  0.00  0.00    +0.000 N 
ATOM     19  C   UNL     1       5.636   3.892  13.167  0.00  0.00    +0.000 C 
ATOM     20  C   UNL     1       6.475   3.257  12.071  0.00  0.00    +0.000 C 
ATOM     21  C   UNL     1       7.443   4.364  11.669  0.00  0.00    +0.000 C 
ATOM     22  C   UNL     1       7.630   5.194  12.939  0.00  0.00    +0.000 C 
ENDBRANCH  13  16
BRANCH   1  23
ATOM     23  C   UNL     1       3.700   7.527  18.745  0.00  0.00    +0.000 C 
BRANCH  23  25
ATOM     24  O   UNL     1       2.636   8.527  16.781  0.00  0.00    +0.000 OA
ATOM     25  C   UNL     1       2.647   8.381  18.003  0.00  0.00    +0.000 C 
ATOM     26  N   UNL     1       1.703   8.972  18.814  0.00  0.00    +0.000 N 
ATOM     27  H   UNL     1       1.869   9.012  19.811  0.00  0.00    +0.000 HD
BRANCH  26  28
ATOM     28  C   UNL     1       0.671   9.819  18.261  0.00  0.00    +0.000 C 
BRANCH  28  29
ATOM     29  C   UNL     1      -0.094  10.567  19.323  0.00  0.00    +0.000 A 
ATOM     30  C   UNL     1      -0.800  11.737  19.004  0.00  0.00    +0.000 A 
ATOM     31  C   UNL     1      -1.476  12.453  19.996  0.00  0.00    +0.000 A 
ATOM     32  C   UNL     1      -1.463  12.004  21.315  0.00  0.00    +0.000 A 
ATOM     33  C   UNL     1      -0.786  10.829  21.635  0.00  0.00    +0.000 A 
ATOM     34 CL   UNL     1      -0.784  10.265  23.262  0.00  0.00    +0.000 Cl
ATOM     35  C   UNL     1      -0.107  10.110  20.650  0.00  0.00    +0.000 A 
ENDBRANCH  28  29
ENDBRANCH  26  28
ENDBRANCH  23  25
ENDBRANCH   1  23
TORSDOF 5
ENDMDL
MODEL 3
REMARK VINA RESULT:      -8.1      4.455      9.605
REMARK  Name = 
REMARK  5 active torsions:
REMARK  status: ('A' for Active; 'I' for Inactive)
REMARK    1  A    between atoms: C_2  and  C_3
REMARK    2  A    between atoms: C_3  and  N_4
REMARK    3  A    between atoms: C_16  and  C_17
REMARK    4  A    between atoms: N_26  and  C_27
REMARK    5  A    between atoms: C_27  and  C_28
REMARK                            x       y       z     vdW  Elec       q    Type
REMARK                         _______ _______ _______ _____ _____    ______ ____
ROOT
ATOM      1  N   UNL     1       3.197   6.182  18.569  0.00  0.00    +0.000 N 
ATOM      2  C   UNL     1       2.422   5.797  19.663  0.00  0.00    +0.000 C 
ATOM      3  O   UNL     1       1.642   6.563  20.232  0.00  0.00    +0.000 OA
ATOM      4  C   UNL     1       2.828   4.414  20.181  0.00  0.00    +0.000 C 
ATOM      5  C   UNL     1       2.172   4.104  21.517  0.00  0.00    +0.000 C 
ATOM      6  C   UNL     1       1.195   2.959  21.591  0.00  0.00    +0.000 C 
ATOM      7  C   UNL     1       1.293   1.905  20.502  0.00  0.00    +0.000 C 
ATOM      8  C   UNL     1       2.371   2.057  19.418  0.00  0.00    +0.000 C 
ATOM      9  N   UNL     1       2.689   3.438  19.089  0.00  0.00    +0.000 N 
ATOM     10  C   UNL     1       3.613   3.795  18.051  0.00  0.00    +0.000 A 
ATOM     11  C   UNL     1       4.309   2.860  17.263  0.00  0.00    +0.000 A 
ATOM     12  C   UNL     1       5.256   3.282  16.291  0.00  0.00    +0.000 A 
ATOM     13  C   UNL     1       5.537   4.632  16.082  0.00  0.00    +0.000 A 
ATOM     14  C   UNL     1       4.810   5.570  16.813  0.00  0.00    +0.000 A 
ATOM     15  C   UNL     1       3.883   5.184  17.800  0.00  0.00    +0.000 A 
ENDROOT
BRANCH  13  16
ATOM     16  C   UNL     1       6.515   5.191  15.088  0.00  0.00    +0.000 C 
ATOM     17  O   UNL     1       7.385   5.955  15.508  0.00  0.00    +0.000 OA
ATOM     18  N   UNL     1       6.510   4.762  13.764  0.00  0.00    +0.000 N 
ATOM     19  C   UNL     1       5.610   3.829  13.122  0.00  0.00    +0.000 C 
ATOM     20  C   UNL     1       6.457   3.181  12.040  0.00  0.00    +0.000 C 
ATOM     21  C   UNL     1       7.407   4.292  11.608  0.00  0.00    +0.000 C 
ATOM     22  C   UNL     1       7.583   5.156  12.857  0.00  0.00    +0.000 C 
ENDBRANCH  13  16
BRANCH   1  23
ATOM     23  C   UNL     1       3.607   7.576  18.593  0.00  0.00    +0.000 C 
BRANCH  23  25
ATOM     24  O   UNL     1       1.835   8.502  17.181  0.00  0.00    +0.000 OA
ATOM     25  C   UNL     1       2.355   8.432  18.295  0.00  0.00    +0.000 C 
ATOM     26  N   UNL     1       1.849   9.116  19.378  0.00  0.00    +0.000 N 
ATOM     27  H   UNL     1       2.418   9.209  20.209  0.00  0.00    +0.000 HD
BRANCH  26  28
ATOM     28  C   UNL     1       0.696   9.976  19.243  0.00  0.00    +0.000 C 
BRANCH  28  29
ATOM     29  C   UNL     1       0.063  10.309  20.570  0.00  0.00    +0.000 A 
ATOM     30  C   UNL     1       0.280   9.491  21.690  0.00  0.00    +0.000 A 
ATOM     31  C   UNL     1      -0.339   9.777  22.910  0.00  0.00    +0.000 A 
ATOM     32  C   UNL     1      -1.174  10.887  23.029  0.00  0.00    +0.000 A 
ATOM     33  C   UNL     1      -1.373  11.719  21.928  0.00  0.00    +0.000 A 
ATOM     34 CL   UNL     1      -2.390  13.100  22.080  0.00  0.00    +0.000 Cl
ATOM     35  C   UNL     1      -0.760  11.438  20.707  0.00  0.00    +0.000 A 
ENDBRANCH  28  29
ENDBRANCH  26  28
ENDBRANCH  23  25
ENDBRANCH   1  23
TORSDOF 5
ENDMDL
MODEL 4
REMARK VINA RESULT:      -8.0      1.200      1.428
REMARK  Name = 
REMARK  5 active torsions:
REMARK  status: ('A' for Active; 'I' for Inactive)
REMARK    1  A    between atoms: C_2  and  C_3
REMARK    2  A    between atoms: C_3  and  N_4
REMARK    3  A    between atoms: C_16  and  C_17
REMARK    4  A    between atoms: N_26  and  C_27
REMARK    5  A    between atoms: C_27  and  C_28
REMARK                            x       y       z     vdW  Elec       q    Type
REMARK                         _______ _______ _______ _____ _____    ______ ____
ROOT
ATOM      1  N   UNL     1      -0.412  10.879  18.920  0.00  0.00    +0.000 N 
ATOM      2  C   UNL     1      -1.689  10.532  18.475  0.00  0.00    +0.000 C 
ATOM      3  O   UNL     1      -1.961   9.413  18.038  0.00  0.00    +0.000 OA
ATOM      4  C   UNL     1      -2.609  11.754  18.396  0.00  0.00    +0.000 C 
ATOM      5  C   UNL     1      -3.906  11.428  17.674  0.00  0.00    +0.000 C 
ATOM      6  C   UNL     1      -5.199  11.507  18.445  0.00  0.00    +0.000 C 
ATOM      7  C   UNL     1      -5.193  12.357  19.704  0.00  0.00    +0.000 C 
ATOM      8  C   UNL     1      -3.900  13.083  20.102  0.00  0.00    +0.000 C 
ATOM      9  N   UNL     1      -2.684  12.378  19.726  0.00  0.00    +0.000 N 
ATOM     10  C   UNL     1      -1.375  12.850  20.073  0.00  0.00    +0.000 A 
ATOM     11  C   UNL     1      -1.132  14.036  20.790  0.00  0.00    +0.000 A 
ATOM     12  C   UNL     1       0.195  14.476  21.049  0.00  0.00    +0.000 A 
ATOM     13  C   UNL     1       1.304  13.759  20.600  0.00  0.00    +0.000 A 
ATOM     14  C   UNL     1       1.077  12.552  19.941  0.00  0.00    +0.000 A 
ATOM     15  C   UNL     1      -0.224  12.100  19.649  0.00  0.00    +0.000 A 
ENDROOT
BRANCH  13  16
ATOM     16  C   UNL     1       2.745  14.129  20.812  0.00  0.00    +0.000 C 
ATOM     17  O   UNL     1       3.310  13.678  21.810  0.00  0.00    +0.000 OA
ATOM     18  N   UNL     1       3.444  14.852  19.851  0.00  0.00    +0.000 N 
ATOM     19  C   UNL     1       2.958  15.397  18.602  0.00  0.00    +0.000 C 
ATOM     20  C   UNL     1       4.171  15.367  17.688  0.00  0.00    +0.000 C 
ATOM     21  C   UNL     1       5.343  15.612  18.631  0.00  0.00    +0.000 C 
ATOM     22  C   UNL     1       4.887  15.034  19.971  0.00  0.00    +0.000 C 
ENDBRANCH  13  16
BRANCH   1  23
ATOM     23  C   UNL     1       0.665  10.214  18.208  0.00  0.00    +0.000 C 
BRANCH  23  25
ATOM     24  O   UNL     1       1.045   9.101  20.354  0.00  0.00    +0.000 OA
ATOM     25  C   UNL     1       1.222   9.111  19.136  0.00  0.00    +0.000 C 
ATOM     26  N   UNL     1       1.937   8.122  18.498  0.00  0.00    +0.000 N 
ATOM     27  H   UNL     1       2.246   8.276  17.547  0.00  0.00    +0.000 HD
BRANCH  26  28
ATOM     28  C   UNL     1       2.538   7.039  19.242  0.00  0.00    +0.000 C 
BRANCH  28  29
ATOM     29  C   UNL     1       3.191   6.015  18.349  0.00  0.00    +0.000 A 
ATOM     30  C   UNL     1       4.198   6.392  17.448  0.00  0.00    +0.000 A 
ATOM     31  C   UNL     1       4.775   5.450  16.591  0.00  0.00    +0.000 A 
ATOM     32  C   UNL     1       4.359   4.120  16.631  0.00  0.00    +0.000 A 
ATOM     33  C   UNL     1       3.378   3.733  17.541  0.00  0.00    +0.000 A 
ATOM     34 CL   UNL     1       2.877   2.087  17.602  0.00  0.00    +0.000 Cl
ATOM     35  C   UNL     1       2.796   4.668  18.397  0.00  0.00    +0.000 A 
ENDBRANCH  28  29
ENDBRANCH  26  28
ENDBRANCH  23  25
ENDBRANCH   1  23
TORSDOF 5
ENDMDL
MODEL 5
REMARK VINA RESULT:      -7.9      1.706      1.941
REMARK  Name = 
REMARK  5 active torsions:
REMARK  status: ('A' for Active; 'I' for Inactive)
REMARK    1  A    between atoms: C_2  and  C_3
REMARK    2  A    between atoms: C_3  and  N_4
REMARK    3  A    between atoms: C_16  and  C_17
REMARK    4  A    between atoms: N_26  and  C_27
REMARK    5  A    between atoms: C_27  and  C_28
REMARK                            x       y       z     vdW  Elec       q    Type
REMARK                         _______ _______ _______ _____ _____    ______ ____
ROOT
ATOM      1  N   UNL     1      -0.159  10.998  19.215  0.00  0.00    +0.000 N 
ATOM      2  C   UNL     1      -1.458  10.691  18.809  0.00  0.00    +0.000 C 
ATOM      3  O   UNL     1      -1.778   9.582  18.377  0.00  0.00    +0.000 OA
ATOM      4  C   UNL     1      -2.342  11.941  18.760  0.00  0.00    +0.000 C 
ATOM      5  C   UNL     1      -3.670  11.658  18.077  0.00  0.00    +0.000 C 
ATOM      6  C   UNL     1      -4.936  11.775  18.887  0.00  0.00    +0.000 C 
ATOM      7  C   UNL     1      -4.866  12.621  20.147  0.00  0.00    +0.000 C 
ATOM      8  C   UNL     1      -3.539  13.306  20.507  0.00  0.00    +0.000 C 
ATOM      9  N   UNL     1      -2.357  12.564  20.093  0.00  0.00    +0.000 N 
ATOM     10  C   UNL     1      -1.025  12.994  20.401  0.00  0.00    +0.000 A 
ATOM     11  C   UNL     1      -0.723  14.170  21.112  0.00  0.00    +0.000 A 
ATOM     12  C   UNL     1       0.624  14.569  21.332  0.00  0.00    +0.000 A 
ATOM     13  C   UNL     1       1.696  13.818  20.847  0.00  0.00    +0.000 A 
ATOM     14  C   UNL     1       1.412  12.621  20.194  0.00  0.00    +0.000 A 
ATOM     15  C   UNL     1       0.089  12.210  19.941  0.00  0.00    +0.000 A 
ENDROOT
BRANCH  13  16
ATOM     16  C   UNL     1       3.153  14.143  21.017  0.00  0.00    +0.000 C 
ATOM     17  O   UNL     1       3.724  13.707  22.017  0.00  0.00    +0.000 OA
ATOM     18  N   UNL     1       3.857  14.807  20.016  0.00  0.00    +0.000 N 
ATOM     19  C   UNL     1       3.363  15.327  18.760  0.00  0.00    +0.000 C 
ATOM     20  C   UNL     1       4.553  15.222  17.821  0.00  0.00    +0.000 C 
ATOM     21  C   UNL     1       5.754  15.456  18.731  0.00  0.00    +0.000 C 
ATOM     22  C   UNL     1       5.307  14.941  20.100  0.00  0.00    +0.000 C 
ENDBRANCH  13  16
BRANCH   1  23
ATOM     23  C   UNL     1       0.876  10.302  18.469  0.00  0.00    +0.000 C 
BRANCH  23  25
ATOM     24  O   UNL     1       1.124   9.020  20.539  0.00  0.00    +0.000 OA
ATOM     25  C   UNL     1       1.343   9.107  19.331  0.00  0.00    +0.000 C 
ATOM     26  N   UNL     1       2.028   8.129  18.643  0.00  0.00    +0.000 N 
ATOM     27  H   UNL     1       2.376   8.334  17.716  0.00  0.00    +0.000 HD
BRANCH  26  28
ATOM     28  C   UNL     1       2.547   6.965  19.324  0.00  0.00    +0.000 C 
BRANCH  28  29
ATOM     29  C   UNL     1       3.093   5.933  18.372  0.00  0.00    +0.000 A 
ATOM     30  C   UNL     1       2.486   4.673  18.258  0.00  0.00    +0.000 A 
ATOM     31  C   UNL     1       3.017   3.702  17.404  0.00  0.00    +0.000 A 
ATOM     32  C   UNL     1       4.154   3.981  16.647  0.00  0.00    +0.000 A 
ATOM     33  C   UNL     1       4.747   5.238  16.736  0.00  0.00    +0.000 A 
ATOM     34 CL   UNL     1       6.141   5.588  15.788  0.00  0.00    +0.000 Cl
ATOM     35  C   UNL     1       4.224   6.212  17.587  0.00  0.00    +0.000 A 
ENDBRANCH  28  29
ENDBRANCH  26  28
ENDBRANCH  23  25
ENDBRANCH   1  23
TORSDOF 5
ENDMDL
MODEL 6
REMARK VINA RESULT:      -7.9      2.504      3.086
REMARK  Name = 
REMARK  5 active torsions:
REMARK  status: ('A' for Active; 'I' for Inactive)
REMARK    1  A    between atoms: C_2  and  C_3
REMARK    2  A    between atoms: C_3  and  N_4
REMARK    3  A    between atoms: C_16  and  C_17
REMARK    4  A    between atoms: N_26  and  C_27
REMARK    5  A    between atoms: C_27  and  C_28
REMARK                            x       y       z     vdW  Elec       q    Type
REMARK                         _______ _______ _______ _____ _____    ______ ____
ROOT
ATOM      1  N   UNL     1      -0.795  11.567  19.871  0.00  0.00    +0.000 N 
ATOM      2  C   UNL     1      -1.287  10.946  18.722  0.00  0.00    +0.000 C 
ATOM      3  O   UNL     1      -0.758   9.952  18.223  0.00  0.00    +0.000 OA
ATOM      4  C   UNL     1      -2.393  11.776  18.064  0.00  0.00    +0.000 C 
ATOM      5  C   UNL     1      -2.747  11.240  16.686  0.00  0.00    +0.000 C 
ATOM      6  C   UNL     1      -4.133  10.691  16.462  0.00  0.00    +0.000 C 
ATOM      7  C   UNL     1      -5.213  11.143  17.429  0.00  0.00    +0.000 C 
ATOM      8  C   UNL     1      -4.840  12.126  18.549  0.00  0.00    +0.000 C 
ATOM      9  N   UNL     1      -3.477  11.979  19.038  0.00  0.00    +0.000 N 
ATOM     10  C   UNL     1      -2.958  12.749  20.131  0.00  0.00    +0.000 A 
ATOM     11  C   UNL     1      -3.697  13.723  20.826  0.00  0.00    +0.000 A 
ATOM     12  C   UNL     1      -3.101  14.493  21.863  0.00  0.00    +0.000 A 
ATOM     13  C   UNL     1      -1.766  14.318  22.227  0.00  0.00    +0.000 A 
ATOM     14  C   UNL     1      -1.041  13.315  21.587  0.00  0.00    +0.000 A 
ATOM     15  C   UNL     1      -1.595  12.552  20.541  0.00  0.00    +0.000 A 
ENDROOT
BRANCH  13  16
ATOM     16  C   UNL     1      -1.034  15.073  23.301  0.00  0.00    +0.000 C 
ATOM     17  O   UNL     1      -0.938  14.542  24.408  0.00  0.00    +0.000 OA
ATOM     18  N   UNL     1      -0.384  16.270  23.015  0.00  0.00    +0.000 N 
ATOM     19  C   UNL     1      -0.338  16.995  21.764  0.00  0.00    +0.000 C 
ATOM     20  C   UNL     1       1.010  17.694  21.789  0.00  0.00    +0.000 C 
ATOM     21  C   UNL     1       1.231  18.002  23.265  0.00  0.00    +0.000 C 
ATOM     22  C   UNL     1       0.487  16.891  24.007  0.00  0.00    +0.000 C 
ENDBRANCH  13  16
BRANCH   1  23
ATOM     23  C   UNL     1       0.649  11.498  20.012  0.00  0.00    +0.000 C 
BRANCH  23  25
ATOM     24  O   UNL     1       1.017  10.430  22.183  0.00  0.00    +0.000 OA
ATOM     25  C   UNL     1       0.966  10.318  20.958  0.00  0.00    +0.000 C 
ATOM     26  N   UNL     1       1.186   9.113  20.329  0.00  0.00    +0.000 N 
ATOM     27  H   UNL     1       1.352   9.103  19.331  0.00  0.00    +0.000 HD
BRANCH  26  28
ATOM     28  C   UNL     1       1.518   7.927  21.086  0.00  0.00    +0.000 C 
BRANCH  28  29
ATOM     29  C   UNL     1       1.853   6.752  20.203  0.00  0.00    +0.000 A 
ATOM     30  C   UNL     1       2.474   6.946  18.960  0.00  0.00    +0.000 A 
ATOM     31  C   UNL     1       2.748   5.860  18.124  0.00  0.00    +0.000 A 
ATOM     32  C   UNL     1       2.413   4.567  18.523  0.00  0.00    +0.000 A 
ATOM     33  C   UNL     1       1.820   4.363  19.767  0.00  0.00    +0.000 A 
ATOM     34 CL   UNL     1       1.423   2.765  20.268  0.00  0.00    +0.000 Cl
ATOM     35  C   UNL     1       1.542   5.443  20.606  0.00  0.00    +0.000 A 
ENDBRANCH  28  29
ENDBRANCH  26  28
ENDBRANCH  23  25
ENDBRANCH   1  23
TORSDOF 5
ENDMDL
MODEL 7
REMARK VINA RESULT:      -7.8      2.930      4.444
REMARK  Name = 
REMARK  5 active torsions:
REMARK  status: ('A' for Active; 'I' for Inactive)
REMARK    1  A    between atoms: C_2  and  C_3
REMARK    2  A    between atoms: C_3  and  N_4
REMARK    3  A    between atoms: C_16  and  C_17
REMARK    4  A    between atoms: N_26  and  C_27
REMARK    5  A    between atoms: C_27  and  C_28
REMARK                            x       y       z     vdW  Elec       q    Type
REMARK                         _______ _______ _______ _____ _____    ______ ____
ROOT
ATOM      1  N   UNL     1      -1.225  11.544  20.251  0.00  0.00    +0.000 N 
ATOM      2  C   UNL     1      -1.177  11.135  18.917  0.00  0.00    +0.000 C 
ATOM      3  O   UNL     1      -0.293  10.399  18.477  0.00  0.00    +0.000 OA
ATOM      4  C   UNL     1      -2.205  11.883  18.062  0.00  0.00    +0.000 C 
ATOM      5  C   UNL     1      -1.983  11.633  16.579  0.00  0.00    +0.000 C 
ATOM      6  C   UNL     1      -3.054  10.912  15.802  0.00  0.00    +0.000 C 
ATOM      7  C   UNL     1      -4.452  10.920  16.396  0.00  0.00    +0.000 C 
ATOM      8  C   UNL     1      -4.690  11.660  17.720  0.00  0.00    +0.000 C 
ATOM      9  N   UNL     1      -3.546  11.650  18.620  0.00  0.00    +0.000 N 
ATOM     10  C   UNL     1      -3.589  12.219  19.935  0.00  0.00    +0.000 A 
ATOM     11  C   UNL     1      -4.721  12.851  20.482  0.00  0.00    +0.000 A 
ATOM     12  C   UNL     1      -4.676  13.447  21.771  0.00  0.00    +0.000 A 
ATOM     13  C   UNL     1      -3.513  13.436  22.541  0.00  0.00    +0.000 A 
ATOM     14  C   UNL     1      -2.403  12.761  22.037  0.00  0.00    +0.000 A 
ATOM     15  C   UNL     1      -2.408  12.181  20.754  0.00  0.00    +0.000 A 
ENDROOT
BRANCH  13  16
ATOM     16  C   UNL     1      -3.350  14.034  23.910  0.00  0.00    +0.000 C 
ATOM     17  O   UNL     1      -3.618  13.324  24.880  0.00  0.00    +0.000 OA
ATOM     18  N   UNL     1      -2.799  15.302  24.074  0.00  0.00    +0.000 N 
ATOM     19  C   UNL     1      -2.372  16.237  23.057  0.00  0.00    +0.000 C 
ATOM     20  C   UNL     1      -1.237  17.006  23.713  0.00  0.00    +0.000 C 
ATOM     21  C   UNL     1      -1.639  17.061  25.182  0.00  0.00    +0.000 C 
ATOM     22  C   UNL     1      -2.461  15.792  25.406  0.00  0.00    +0.000 C 
ENDBRANCH  13  16
BRANCH   1  23
ATOM     23  C   UNL     1       0.079  11.705  20.870  0.00  0.00    +0.000 C 
BRANCH  23  25
ATOM     24  O   UNL     1       0.115  10.222  22.816  0.00  0.00    +0.000 OA
ATOM     25  C   UNL     1       0.396  10.398  21.630  0.00  0.00    +0.000 C 
ATOM     26  N   UNL     1       1.018   9.426  20.878  0.00  0.00    +0.000 N 
ATOM     27  H   UNL     1       1.425   9.679  19.988  0.00  0.00    +0.000 HD
BRANCH  26  28
ATOM     28  C   UNL     1       1.397   8.160  21.464  0.00  0.00    +0.000 C 
BRANCH  28  29
ATOM     29  C   UNL     1       1.773   7.132  20.428  0.00  0.00    +0.000 A 
ATOM     30  C   UNL     1       2.307   7.527  19.191  0.00  0.00    +0.000 A 
ATOM     31  C   UNL     1       2.619   6.576  18.215  0.00  0.00    +0.000 A 
ATOM     32  C   UNL     1       2.409   5.221  18.466  0.00  0.00    +0.000 A 
ATOM     33  C   UNL     1       1.904   4.819  19.701  0.00  0.00    +0.000 A 
ATOM     34 CL   UNL     1       1.663   3.144  20.016  0.00  0.00    +0.000 Cl
ATOM     35  C   UNL     1       1.589   5.763  20.679  0.00  0.00    +0.000 A 
ENDBRANCH  28  29
ENDBRANCH  26  28
ENDBRANCH  23  25
ENDBRANCH   1  23
TORSDOF 5
ENDMDL
MODEL 8
REMARK VINA RESULT:      -7.8      4.501      8.493
REMARK  Name = 
REMARK  5 active torsions:
REMARK  status: ('A' for Active; 'I' for Inactive)
REMARK    1  A    between atoms: C_2  and  C_3
REMARK    2  A    between atoms: C_3  and  N_4
REMARK    3  A    between atoms: C_16  and  C_17
REMARK    4  A    between atoms: N_26  and  C_27
REMARK    5  A    between atoms: C_27  and  C_28
REMARK                            x       y       z     vdW  Elec       q    Type
REMARK                         _______ _______ _______ _____ _____    ______ ____
ROOT
ATOM      1  N   UNL     1       4.468   6.114  17.483  0.00  0.00    +0.000 N 
ATOM      2  C   UNL     1       4.615   4.727  17.516  0.00  0.00    +0.000 C 
ATOM      3  O   UNL     1       5.610   4.151  17.074  0.00  0.00    +0.000 OA
ATOM      4  C   UNL     1       3.319   4.034  17.950  0.00  0.00    +0.000 C 
ATOM      5  C   UNL     1       3.393   2.531  17.738  0.00  0.00    +0.000 C 
ATOM      6  C   UNL     1       3.333   1.630  18.945  0.00  0.00    +0.000 C 
ATOM      7  C   UNL     1       2.721   2.216  20.206  0.00  0.00    +0.000 C 
ATOM      8  C   UNL     1       2.197   3.659  20.173  0.00  0.00    +0.000 C 
ATOM      9  N   UNL     1       2.933   4.538  19.277  0.00  0.00    +0.000 N 
ATOM     10  C   UNL     1       2.650   5.939  19.159  0.00  0.00    +0.000 A 
ATOM     11  C   UNL     1       1.636   6.599  19.876  0.00  0.00    +0.000 A 
ATOM     12  C   UNL     1       1.370   7.980  19.666  0.00  0.00    +0.000 A 
ATOM     13  C   UNL     1       2.096   8.731  18.742  0.00  0.00    +0.000 A 
ATOM     14  C   UNL     1       3.143   8.104  18.069  0.00  0.00    +0.000 A 
ATOM     15  C   UNL     1       3.417   6.733  18.237  0.00  0.00    +0.000 A 
ENDROOT
BRANCH  13  16
ATOM     16  C   UNL     1       1.902  10.190  18.437  0.00  0.00    +0.000 C 
ATOM     17  O   UNL     1       2.541  10.668  17.499  0.00  0.00    +0.000 OA
ATOM     18  N   UNL     1       0.943  10.938  19.114  0.00  0.00    +0.000 N 
ATOM     19  C   UNL     1       0.067  10.522  20.187  0.00  0.00    +0.000 C 
ATOM     20  C   UNL     1      -1.177  11.375  20.003  0.00  0.00    +0.000 C 
ATOM     21  C   UNL     1      -0.637  12.688  19.448  0.00  0.00    +0.000 C 
ATOM     22  C   UNL     1       0.623  12.293  18.678  0.00  0.00    +0.000 C 
ENDBRANCH  13  16
BRANCH   1  23
ATOM     23  C   UNL     1       5.094   6.750  16.337  0.00  0.00    +0.000 C 
BRANCH  23  25
ATOM     24  O   UNL     1       7.481   6.259  16.119  0.00  0.00    +0.000 OA
ATOM     25  C   UNL     1       6.595   6.918  16.662  0.00  0.00    +0.000 C 
ATOM     26  N   UNL     1       6.880   7.874  17.613  0.00  0.00    +0.000 N 
ATOM     27  H   UNL     1       6.129   8.233  18.187  0.00  0.00    +0.000 HD
BRANCH  26  28
ATOM     28  C   UNL     1       8.239   8.123  18.035  0.00  0.00    +0.000 C 
BRANCH  28  29
ATOM     29  C   UNL     1       8.515   9.586  18.265  0.00  0.00    +0.000 A 
ATOM     30  C   UNL     1       7.969  10.558  17.412  0.00  0.00    +0.000 A 
ATOM     31  C   UNL     1       8.258  11.913  17.601  0.00  0.00    +0.000 A 
ATOM     32  C   UNL     1       9.087  12.313  18.648  0.00  0.00    +0.000 A 
ATOM     33  C   UNL     1       9.612  11.356  19.514  0.00  0.00    +0.000 A 
ATOM     34 CL   UNL     1      10.622  11.852  20.817  0.00  0.00    +0.000 Cl
ATOM     35  C   UNL     1       9.330  10.002  19.330  0.00  0.00    +0.000 A 
ENDBRANCH  28  29
ENDBRANCH  26  28
ENDBRANCH  23  25
ENDBRANCH   1  23
TORSDOF 5
ENDMDL
MODEL 9
REMARK VINA RESULT:      -7.8      3.943      7.088
REMARK  Name = 
REMARK  5 active torsions:
REMARK  status: ('A' for Active; 'I' for Inactive)
REMARK    1  A    between atoms: C_2  and  C_3
REMARK    2  A    between atoms: C_3  and  N_4
REMARK    3  A    between atoms: C_16  and  C_17
REMARK    4  A    between atoms: N_26  and  C_27
REMARK    5  A    between atoms: C_27  and  C_28
REMARK                            x       y       z     vdW  Elec       q    Type
REMARK                         _______ _______ _______ _____ _____    ______ ____
ROOT
ATOM      1  N   UNL     1       0.874  14.174  19.766  0.00  0.00    +0.000 N 
ATOM      2  C   UNL     1       1.566  14.805  18.731  0.00  0.00    +0.000 C 
ATOM      3  O   UNL     1       2.382  14.217  18.019  0.00  0.00    +0.000 OA
ATOM      4  C   UNL     1       1.349  16.321  18.751  0.00  0.00    +0.000 C 
ATOM      5  C   UNL     1       2.296  17.032  17.799  0.00  0.00    +0.000 C 
ATOM      6  C   UNL     1       1.713  17.772  16.623  0.00  0.00    +0.000 C 
ATOM      7  C   UNL     1       0.253  18.178  16.726  0.00  0.00    +0.000 C 
ATOM      8  C   UNL     1      -0.524  17.829  18.004  0.00  0.00    +0.000 C 
ATOM      9  N   UNL     1      -0.092  16.595  18.643  0.00  0.00    +0.000 N 
ATOM     10  C   UNL     1      -0.739  16.055  19.803  0.00  0.00    +0.000 A 
ATOM     11  C   UNL     1      -1.835  16.660  20.446  0.00  0.00    +0.000 A 
ATOM     12  C   UNL     1      -2.391  16.101  21.628  0.00  0.00    +0.000 A 
ATOM     13  C   UNL     1      -1.872  14.939  22.201  0.00  0.00    +0.000 A 
ATOM     14  C   UNL     1      -0.826  14.298  21.541  0.00  0.00    +0.000 A 
ATOM     15  C   UNL     1      -0.239  14.838  20.382  0.00  0.00    +0.000 A 
ENDROOT
BRANCH  13  16
ATOM     16  C   UNL     1      -2.376  14.263  23.445  0.00  0.00    +0.000 C 
ATOM     17  O   UNL     1      -1.802  14.514  24.505  0.00  0.00    +0.000 OA
ATOM     18  N   UNL     1      -3.526  13.480  23.415  0.00  0.00    +0.000 N 
ATOM     19  C   UNL     1      -4.355  13.138  22.279  0.00  0.00    +0.000 C 
ATOM     20  C   UNL     1      -5.746  12.979  22.869  0.00  0.00    +0.000 C 
ATOM     21  C   UNL     1      -5.487  12.430  24.267  0.00  0.00    +0.000 C 
ATOM     22  C   UNL     1      -4.119  12.993  24.656  0.00  0.00    +0.000 C 
ENDBRANCH  13  16
BRANCH   1  23
ATOM     23  C   UNL     1       1.624  13.119  20.425  0.00  0.00    +0.000 C 
BRANCH  23  25
ATOM     24  O   UNL     1       0.825  10.867  20.952  0.00  0.00    +0.000 OA
ATOM     25  C   UNL     1       0.900  11.785  20.136  0.00  0.00    +0.000 C 
ATOM     26  N   UNL     1       0.329  11.694  18.885  0.00  0.00    +0.000 N 
ATOM     27  H   UNL     1       0.594  12.363  18.175  0.00  0.00    +0.000 HD
BRANCH  26  28
ATOM     28  C   UNL     1      -0.360  10.494  18.467  0.00  0.00    +0.000 C 
BRANCH  28  29
ATOM     29  C   UNL     1      -1.731  10.779  17.909  0.00  0.00    +0.000 A 
ATOM     30  C   UNL     1      -2.683  11.472  18.672  0.00  0.00    +0.000 A 
ATOM     31  C   UNL     1      -3.967  11.701  18.170  0.00  0.00    +0.000 A 
ATOM     32  C   UNL     1      -4.312  11.249  16.897  0.00  0.00    +0.000 A 
ATOM     33  C   UNL     1      -3.364  10.584  16.123  0.00  0.00    +0.000 A 
ATOM     34 CL   UNL     1      -3.785  10.042  14.544  0.00  0.00    +0.000 Cl
ATOM     35  C   UNL     1      -2.081  10.350  16.618  0.00  0.00    +0.000 A 
ENDBRANCH  28  29
ENDBRANCH  26  28
ENDBRANCH  23  25
ENDBRANCH   1  23
TORSDOF 5
ENDMDL
