MODEL 1
REMARK VINA RESULT:      -8.8      0.000      0.000
REMARK  Name = 
REMARK  9 active torsions:
REMARK  status: ('A' for Active; 'I' for Inactive)
REMARK    1  A    between atoms: C_1  and  C_2
REMARK    2  A    between atoms: C_2  and  C_3
REMARK    3  A    between atoms: C_2  and  O_4
REMARK    4  A    between atoms: O_4  and  C_5
REMARK    5  A    between atoms: C_8  and  C_9
REMARK    6  A    between atoms: C_9  and  N_10
REMARK    7  A    between atoms: C_11  and  C_13
REMARK    8  A    between atoms: C_13  and  C_14
REMARK    9  A    between atoms: C_18  and  C_20
REMARK                            x       y       z     vdW  Elec       q    Type
REMARK                         _______ _______ _______ _____ _____    ______ ____
ROOT
ATOM      1  C   UNL     1       2.435   2.248  19.165  0.00  0.00    +0.000 C 
ATOM      2  C   UNL     1       3.720   2.553  19.946  0.00  0.00    +0.000 C 
ATOM      3  C   UNL     1       4.394   3.826  19.456  0.00  0.00    +0.000 C 
ATOM      4  N   UNL     1       4.699   3.740  18.023  0.00  0.00    +0.000 N 
ATOM      5  C   UNL     1       5.963   4.208  17.643  0.00  0.00    +0.000 C 
ATOM      6  O   UNL     1       6.752   4.563  18.525  0.00  0.00    +0.000 OA
ATOM      7  C   UNL     1       3.528   3.502  17.182  0.00  0.00    +0.000 C 
ATOM      8  C   UNL     1       2.759   2.255  17.651  0.00  0.00    +0.000 C 
ENDROOT
BRANCH   5   9
ATOM      9  C   UNL     1       6.396   4.334  16.259  0.00  0.00    +0.000 A 
ATOM     10  C   UNL     1       5.884   3.533  15.243  0.00  0.00    +0.000 A 
ATOM     11  C   UNL     1       6.395   3.954  14.000  0.00  0.00    +0.000 A 
ATOM     12  C   UNL     1       6.190   3.526  12.675  0.00  0.00    +0.000 A 
ATOM     13  C   UNL     1       6.898   4.142  11.642  0.00  0.00    +0.000 A 
ATOM     14  C   UNL     1       7.788   5.179  11.922  0.00  0.00    +0.000 A 
ATOM     15  C   UNL     1       7.969   5.648  13.231  0.00  0.00    +0.000 A 
ATOM     16  C   UNL     1       7.258   5.015  14.261  0.00  0.00    +0.000 A 
ATOM     17  N   UNL     1       7.192   5.266  15.625  0.00  0.00    +0.000 N 
ATOM     18  H   UNL     1       7.619   6.068  16.061  0.00  0.00    +0.000 HD
ENDBRANCH   5   9
BRANCH   1  19
ATOM     19  C   UNL     1       1.267   3.194  19.505  0.00  0.00    +0.000 C 
BRANCH  19  21
ATOM     20  N   UNL     1       1.709   5.492  20.214  0.00  0.00    +0.000 N 
ATOM     21  C   UNL     1       1.600   4.179  20.617  0.00  0.00    +0.000 C 
ATOM     22  O   UNL     1       1.781   3.810  21.773  0.00  0.00    +0.000 OA
ATOM     23  H   UNL     1       1.361   5.762  19.304  0.00  0.00    +0.000 HD
BRANCH  20  24
ATOM     24  C   UNL     1       1.912   6.549  21.183  0.00  0.00    +0.000 C 
BRANCH  24  28
ATOM     25  C   UNL     1       0.371  10.332  19.716  0.00  0.00    +0.000 A 
ATOM     26  C   UNL     1       1.154   9.517  18.902  0.00  0.00    +0.000 A 
ATOM     27  C   UNL     1       1.656   8.300  19.381  0.00  0.00    +0.000 A 
ATOM     28  C   UNL     1       1.398   7.879  20.691  0.00  0.00    +0.000 A 
ATOM     29  C   UNL     1       0.615   8.703  21.512  0.00  0.00    +0.000 A 
ATOM     30  C   UNL     1       0.111   9.918  21.025  0.00  0.00    +0.000 A 
BRANCH  25  31
ATOM     31  O   UNL     1      -0.187  11.529  19.358  0.00  0.00    +0.000 OA
BRANCH  31  33
ATOM     32  C   UNL     1      -0.236  13.740  18.463  0.00  0.00    +0.000 C 
ATOM     33  C   UNL     1       0.652  12.541  18.784  0.00  0.00    +0.000 C 
ATOM     34  C   UNL     1       1.740  12.946  19.776  0.00  0.00    +0.000 C 
ENDBRANCH  31  33
ENDBRANCH  25  31
ENDBRANCH  24  28
ENDBRANCH  20  24
ENDBRANCH  19  21
ENDBRANCH   1  19
TORSDOF 7
ENDMDL
MODEL 2
REMARK VINA RESULT:      -8.8      2.845      3.936
REMARK  Name = 
REMARK  9 active torsions:
REMARK  status: ('A' for Active; 'I' for Inactive)
REMARK    1  A    between atoms: C_1  and  C_2
REMARK    2  A    between atoms: C_2  and  C_3
REMARK    3  A    between atoms: C_2  and  O_4
REMARK    4  A    between atoms: O_4  and  C_5
REMARK    5  A    between atoms: C_8  and  C_9
REMARK    6  A    between atoms: C_9  and  N_10
REMARK    7  A    between atoms: C_11  and  C_13
REMARK    8  A    between atoms: C_13  and  C_14
REMARK    9  A    between atoms: C_18  and  C_20
REMARK                            x       y       z     vdW  Elec       q    Type
REMARK                         _______ _______ _______ _____ _____    ______ ____
ROOT
ATOM      1  C   UNL     1       2.107   6.449  19.288  0.00  0.00    +0.000 C 
ATOM      2  C   UNL     1       2.955   5.368  19.972  0.00  0.00    +0.000 C 
ATOM      3  C   UNL     1       4.432   5.509  19.636  0.00  0.00    +0.000 C 
ATOM      4  N   UNL     1       4.648   5.458  18.186  0.00  0.00    +0.000 N 
ATOM      5  C   UNL     1       5.732   4.680  17.759  0.00  0.00    +0.000 C 
ATOM      6  O   UNL     1       6.359   4.028  18.602  0.00  0.00    +0.000 OA
ATOM      7  C   UNL     1       3.921   6.487  17.443  0.00  0.00    +0.000 C 
ATOM      8  C   UNL     1       2.419   6.443  17.772  0.00  0.00    +0.000 C 
ENDROOT
BRANCH   5   9
ATOM      9  C   UNL     1       6.189   4.618  16.380  0.00  0.00    +0.000 A 
ATOM     10  C   UNL     1       5.658   3.720  15.459  0.00  0.00    +0.000 A 
ATOM     11  C   UNL     1       6.205   3.964  14.184  0.00  0.00    +0.000 A 
ATOM     12  C   UNL     1       6.002   3.385  12.918  0.00  0.00    +0.000 A 
ATOM     13  C   UNL     1       6.750   3.839  11.832  0.00  0.00    +0.000 A 
ATOM     14  C   UNL     1       7.680   4.865  12.000  0.00  0.00    +0.000 A 
ATOM     15  C   UNL     1       7.862   5.484  13.245  0.00  0.00    +0.000 A 
ATOM     16  C   UNL     1       7.109   5.012  14.331  0.00  0.00    +0.000 A 
ATOM     17  N   UNL     1       7.034   5.431  15.653  0.00  0.00    +0.000 N 
ATOM     18  H   UNL     1       7.489   6.262  15.996  0.00  0.00    +0.000 HD
ENDBRANCH   5   9
BRANCH   1  19
ATOM     19  C   UNL     1       2.282   7.851  19.903  0.00  0.00    +0.000 C 
BRANCH  19  21
ATOM     20  N   UNL     1       0.386   9.360  19.575  0.00  0.00    +0.000 N 
ATOM     21  C   UNL     1       1.609   8.948  19.091  0.00  0.00    +0.000 C 
ATOM     22  O   UNL     1       2.118   9.400  18.070  0.00  0.00    +0.000 OA
ATOM     23  H   UNL     1       0.110   9.100  20.512  0.00  0.00    +0.000 HD
BRANCH  20  24
ATOM     24  C   UNL     1      -0.315  10.472  18.966  0.00  0.00    +0.000 C 
BRANCH  24  28
ATOM     25  C   UNL     1      -2.469  12.866  21.876  0.00  0.00    +0.000 A 
ATOM     26  C   UNL     1      -1.332  12.150  22.243  0.00  0.00    +0.000 A 
ATOM     27  C   UNL     1      -0.643  11.373  21.303  0.00  0.00    +0.000 A 
ATOM     28  C   UNL     1      -1.086  11.282  19.978  0.00  0.00    +0.000 A 
ATOM     29  C   UNL     1      -2.234  11.997  19.611  0.00  0.00    +0.000 A 
ATOM     30  C   UNL     1      -2.917  12.779  20.555  0.00  0.00    +0.000 A 
BRANCH  25  31
ATOM     31  O   UNL     1      -3.214  13.668  22.696  0.00  0.00    +0.000 OA
BRANCH  31  33
ATOM     32  C   UNL     1      -3.317  14.765  24.813  0.00  0.00    +0.000 C 
ATOM     33  C   UNL     1      -3.206  13.416  24.108  0.00  0.00    +0.000 C 
ATOM     34  C   UNL     1      -4.386  12.527  24.489  0.00  0.00    +0.000 C 
ENDBRANCH  31  33
ENDBRANCH  25  31
ENDBRANCH  24  28
ENDBRANCH  20  24
ENDBRANCH  19  21
ENDBRANCH   1  19
TORSDOF 7
ENDMDL
MODEL 3
REMARK VINA RESULT:      -8.8      2.973      3.826
REMARK  Name = 
REMARK  9 active torsions:
REMARK  status: ('A' for Active; 'I' for Inactive)
REMARK    1  A    between atoms: C_1  and  C_2
REMARK    2  A    between atoms: C_2  and  C_3
REMARK    3  A    between atoms: C_2  and  O_4
REMARK    4  A    between atoms: O_4  and  C_5
REMARK    5  A    between atoms: C_8  and  C_9
REMARK    6  A    between atoms: C_9  and  N_10
REMARK    7  A    between atoms: C_11  and  C_13
REMARK    8  A    between atoms: C_13  and  C_14
REMARK    9  A    between atoms: C_18  and  C_20
REMARK                            x       y       z     vdW  Elec       q    Type
REMARK                         _______ _______ _______ _____ _____    ______ ____
ROOT
ATOM      1  C   UNL     1       2.253   6.294  19.293  0.00  0.00    +0.000 C 
ATOM      2  C   UNL     1       3.164   5.258  19.965  0.00  0.00    +0.000 C 
ATOM      3  C   UNL     1       4.623   5.455  19.585  0.00  0.00    +0.000 C 
ATOM      4  N   UNL     1       4.800   5.392  18.130  0.00  0.00    +0.000 N 
ATOM      5  C   UNL     1       5.902   4.653  17.683  0.00  0.00    +0.000 C 
ATOM      6  O   UNL     1       6.579   4.039  18.515  0.00  0.00    +0.000 OA
ATOM      7  C   UNL     1       4.010   6.379  17.396  0.00  0.00    +0.000 C 
ATOM      8  C   UNL     1       2.521   6.279  17.768  0.00  0.00    +0.000 C 
ENDROOT
BRANCH   5   9
ATOM      9  C   UNL     1       6.322   4.589  16.291  0.00  0.00    +0.000 A 
ATOM     10  C   UNL     1       5.752   3.706  15.381  0.00  0.00    +0.000 A 
ATOM     11  C   UNL     1       6.270   3.947  14.093  0.00  0.00    +0.000 A 
ATOM     12  C   UNL     1       6.023   3.378  12.830  0.00  0.00    +0.000 A 
ATOM     13  C   UNL     1       6.751   3.825  11.726  0.00  0.00    +0.000 A 
ATOM     14  C   UNL     1       7.703   4.833  11.875  0.00  0.00    +0.000 A 
ATOM     15  C   UNL     1       7.928   5.442  13.118  0.00  0.00    +0.000 A 
ATOM     16  C   UNL     1       7.196   4.978  14.221  0.00  0.00    +0.000 A 
ATOM     17  N   UNL     1       7.163   5.391  15.546  0.00  0.00    +0.000 N 
ATOM     18  H   UNL     1       7.641   6.213  15.882  0.00  0.00    +0.000 HD
ENDBRANCH   5   9
BRANCH   1  19
ATOM     19  C   UNL     1       2.387   7.710  19.884  0.00  0.00    +0.000 C 
BRANCH  19  21
ATOM     20  N   UNL     1       0.583   9.352  20.045  0.00  0.00    +0.000 N 
ATOM     21  C   UNL     1       1.480   8.729  19.207  0.00  0.00    +0.000 C 
ATOM     22  O   UNL     1       1.540   8.945  18.001  0.00  0.00    +0.000 OA
ATOM     23  H   UNL     1       0.708   9.284  21.046  0.00  0.00    +0.000 HD
BRANCH  20  24
ATOM     24  C   UNL     1      -0.265  10.422  19.559  0.00  0.00    +0.000 C 
BRANCH  24  28
ATOM     25  C   UNL     1      -2.362  12.466  22.763  0.00  0.00    +0.000 A 
ATOM     26  C   UNL     1      -2.566  12.827  21.433  0.00  0.00    +0.000 A 
ATOM     27  C   UNL     1      -1.882  12.170  20.402  0.00  0.00    +0.000 A 
ATOM     28  C   UNL     1      -0.966  11.147  20.680  0.00  0.00    +0.000 A 
ATOM     29  C   UNL     1      -0.758  10.789  22.019  0.00  0.00    +0.000 A 
ATOM     30  C   UNL     1      -1.449  11.446  23.047  0.00  0.00    +0.000 A 
BRANCH  25  31
ATOM     31  O   UNL     1      -2.980  13.019  23.850  0.00  0.00    +0.000 OA
BRANCH  31  33
ATOM     32  C   UNL     1      -4.718  14.654  23.885  0.00  0.00    +0.000 C 
ATOM     33  C   UNL     1      -3.208  14.435  23.873  0.00  0.00    +0.000 C 
ATOM     34  C   UNL     1      -2.580  15.048  25.122  0.00  0.00    +0.000 C 
ENDBRANCH  31  33
ENDBRANCH  25  31
ENDBRANCH  24  28
ENDBRANCH  20  24
ENDBRANCH  19  21
ENDBRANCH   1  19
TORSDOF 7
ENDMDL
MODEL 4
REMARK VINA RESULT:      -8.7      0.826      1.350
REMARK  Name = 
REMARK  9 active torsions:
REMARK  status: ('A' for Active; 'I' for Inactive)
REMARK    1  A    between atoms: C_1  and  C_2
REMARK    2  A    between atoms: C_2  and  C_3
REMARK    3  A    between atoms: C_2  and  O_4
REMARK    4  A    between atoms: O_4  and  C_5
REMARK    5  A    between atoms: C_8  and  C_9
REMARK    6  A    between atoms: C_9  and  N_10
REMARK    7  A    between atoms: C_11  and  C_13
REMARK    8  A    between atoms: C_13  and  C_14
REMARK    9  A    between atoms: C_18  and  C_20
REMARK                            x       y       z     vdW  Elec       q    Type
REMARK                         _______ _______ _______ _____ _____    ______ ____
ROOT
ATOM      1  C   UNL     1       2.195   2.153  19.313  0.00  0.00    +0.000 C 
ATOM      2  C   UNL     1       3.563   2.359  19.977  0.00  0.00    +0.000 C 
ATOM      3  C   UNL     1       4.261   3.608  19.462  0.00  0.00    +0.000 C 
ATOM      4  N   UNL     1       4.426   3.554  18.005  0.00  0.00    +0.000 N 
ATOM      5  C   UNL     1       5.674   3.964  17.519  0.00  0.00    +0.000 C 
ATOM      6  O   UNL     1       6.562   4.244  18.332  0.00  0.00    +0.000 OA
ATOM      7  C   UNL     1       3.169   3.411  17.273  0.00  0.00    +0.000 C 
ATOM      8  C   UNL     1       2.375   2.194  17.776  0.00  0.00    +0.000 C 
ENDROOT
BRANCH   5   9
ATOM      9  C   UNL     1       5.982   4.114  16.105  0.00  0.00    +0.000 A 
ATOM     10  C   UNL     1       6.900   5.049  15.637  0.00  0.00    +0.000 A 
ATOM     11  C   UNL     1       7.079   4.888  14.249  0.00  0.00    +0.000 A 
ATOM     12  C   UNL     1       7.894   5.532  13.300  0.00  0.00    +0.000 A 
ATOM     13  C   UNL     1       7.806   5.156  11.959  0.00  0.00    +0.000 A 
ATOM     14  C   UNL     1       6.928   4.144  11.569  0.00  0.00    +0.000 A 
ATOM     15  C   UNL     1       6.143   3.462  12.510  0.00  0.00    +0.000 A 
ATOM     16  C   UNL     1       6.235   3.855  13.853  0.00  0.00    +0.000 A 
ATOM     17  N   UNL     1       5.630   3.362  15.002  0.00  0.00    +0.000 N 
ATOM     18  H   UNL     1       5.071   2.524  15.016  0.00  0.00    +0.000 HD
ENDBRANCH   5   9
BRANCH   1  19
ATOM     19  C   UNL     1       1.121   3.150  19.790  0.00  0.00    +0.000 C 
BRANCH  19  21
ATOM     20  N   UNL     1       1.752   5.495  20.073  0.00  0.00    +0.000 N 
ATOM     21  C   UNL     1       1.683   4.257  20.672  0.00  0.00    +0.000 C 
ATOM     22  O   UNL     1       2.065   4.038  21.817  0.00  0.00    +0.000 OA
ATOM     23  H   UNL     1       1.249   5.659  19.211  0.00  0.00    +0.000 HD
BRANCH  20  24
ATOM     24  C   UNL     1       2.162   6.661  20.828  0.00  0.00    +0.000 C 
BRANCH  24  28
ATOM     25  C   UNL     1       0.653  10.303  19.011  0.00  0.00    +0.000 A 
ATOM     26  C   UNL     1       1.481   9.440  18.297  0.00  0.00    +0.000 A 
ATOM     27  C   UNL     1       1.972   8.269  18.889  0.00  0.00    +0.000 A 
ATOM     28  C   UNL     1       1.658   7.943  20.214  0.00  0.00    +0.000 A 
ATOM     29  C   UNL     1       0.830   8.816  20.934  0.00  0.00    +0.000 A 
ATOM     30  C   UNL     1       0.336   9.984  20.334  0.00  0.00    +0.000 A 
BRANCH  25  31
ATOM     31  O   UNL     1       0.101  11.461  18.539  0.00  0.00    +0.000 OA
BRANCH  31  33
ATOM     32  C   UNL     1      -0.047  13.630  19.524  0.00  0.00    +0.000 C 
ATOM     33  C   UNL     1      -0.704  12.256  19.421  0.00  0.00    +0.000 C 
ATOM     34  C   UNL     1      -2.118  12.392  18.861  0.00  0.00    +0.000 C 
ENDBRANCH  31  33
ENDBRANCH  25  31
ENDBRANCH  24  28
ENDBRANCH  20  24
ENDBRANCH  19  21
ENDBRANCH   1  19
TORSDOF 7
ENDMDL
MODEL 5
REMARK VINA RESULT:      -8.5      2.128      3.607
REMARK  Name = 
REMARK  9 active torsions:
REMARK  status: ('A' for Active; 'I' for Inactive)
REMARK    1  A    between atoms: C_1  and  C_2
REMARK    2  A    between atoms: C_2  and  C_3
REMARK    3  A    between atoms: C_2  and  O_4
REMARK    4  A    between atoms: O_4  and  C_5
REMARK    5  A    between atoms: C_8  and  C_9
REMARK    6  A    between atoms: C_9  and  N_10
REMARK    7  A    between atoms: C_11  and  C_13
REMARK    8  A    between atoms: C_13  and  C_14
REMARK    9  A    between atoms: C_18  and  C_20
REMARK                            x       y       z     vdW  Elec       q    Type
REMARK                         _______ _______ _______ _____ _____    ______ ____
ROOT
ATOM      1  C   UNL     1       1.996   6.588  19.347  0.00  0.00    +0.000 C 
ATOM      2  C   UNL     1       2.728   5.410  20.001  0.00  0.00    +0.000 C 
ATOM      3  C   UNL     1       4.225   5.452  19.734  0.00  0.00    +0.000 C 
ATOM      4  N   UNL     1       4.501   5.462  18.293  0.00  0.00    +0.000 N 
ATOM      5  C   UNL     1       5.541   4.625  17.868  0.00  0.00    +0.000 C 
ATOM      6  O   UNL     1       6.078   3.882  18.697  0.00  0.00    +0.000 OA
ATOM      7  C   UNL     1       3.889   6.582  17.582  0.00  0.00    +0.000 C 
ATOM      8  C   UNL     1       2.374   6.639  17.846  0.00  0.00    +0.000 C 
ENDROOT
BRANCH   5   9
ATOM      9  C   UNL     1       6.054   4.601  16.507  0.00  0.00    +0.000 A 
ATOM     10  C   UNL     1       5.551   3.739  15.537  0.00  0.00    +0.000 A 
ATOM     11  C   UNL     1       6.153   4.017  14.294  0.00  0.00    +0.000 A 
ATOM     12  C   UNL     1       5.995   3.480  13.003  0.00  0.00    +0.000 A 
ATOM     13  C   UNL     1       6.792   3.960  11.963  0.00  0.00    +0.000 A 
ATOM     14  C   UNL     1       7.725   4.969  12.201  0.00  0.00    +0.000 A 
ATOM     15  C   UNL     1       7.863   5.546  13.472  0.00  0.00    +0.000 A 
ATOM     16  C   UNL     1       7.061   5.049  14.511  0.00  0.00    +0.000 A 
ATOM     17  N   UNL     1       6.937   5.426  15.841  0.00  0.00    +0.000 N 
ATOM     18  H   UNL     1       7.386   6.241  16.229  0.00  0.00    +0.000 HD
ENDBRANCH   5   9
BRANCH   1  19
ATOM     19  C   UNL     1       2.249   7.937  20.047  0.00  0.00    +0.000 C 
BRANCH  19  21
ATOM     20  N   UNL     1       1.125   9.746  18.845  0.00  0.00    +0.000 N 
ATOM     21  C   UNL     1       1.076   8.900  19.931  0.00  0.00    +0.000 C 
ATOM     22  O   UNL     1       0.178   8.926  20.767  0.00  0.00    +0.000 OA
ATOM     23  H   UNL     1       1.773   9.551  18.094  0.00  0.00    +0.000 HD
BRANCH  20  24
ATOM     24  C   UNL     1       0.022  10.637  18.549  0.00  0.00    +0.000 C 
BRANCH  24  28
ATOM     25  C   UNL     1       1.097  14.803  19.122  0.00  0.00    +0.000 A 
ATOM     26  C   UNL     1       2.059  13.800  19.207  0.00  0.00    +0.000 A 
ATOM     27  C   UNL     1       1.707  12.456  19.029  0.00  0.00    +0.000 A 
ATOM     28  C   UNL     1       0.381  12.084  18.777  0.00  0.00    +0.000 A 
ATOM     29  C   UNL     1      -0.588  13.093  18.697  0.00  0.00    +0.000 A 
ATOM     30  C   UNL     1      -0.229  14.438  18.871  0.00  0.00    +0.000 A 
BRANCH  25  31
ATOM     31  O   UNL     1       1.319  16.145  19.260  0.00  0.00    +0.000 OA
BRANCH  31  33
ATOM     32  C   UNL     1      -0.004  18.129  19.348  0.00  0.00    +0.000 C 
ATOM     33  C   UNL     1       0.585  17.059  18.433  0.00  0.00    +0.000 C 
ATOM     34  C   UNL     1       1.515  17.701  17.407  0.00  0.00    +0.000 C 
ENDBRANCH  31  33
ENDBRANCH  25  31
ENDBRANCH  24  28
ENDBRANCH  20  24
ENDBRANCH  19  21
ENDBRANCH   1  19
TORSDOF 7
ENDMDL
MODEL 6
REMARK VINA RESULT:      -8.4      2.752      3.560
REMARK  Name = 
REMARK  9 active torsions:
REMARK  status: ('A' for Active; 'I' for Inactive)
REMARK    1  A    between atoms: C_1  and  C_2
REMARK    2  A    between atoms: C_2  and  C_3
REMARK    3  A    between atoms: C_2  and  O_4
REMARK    4  A    between atoms: O_4  and  C_5
REMARK    5  A    between atoms: C_8  and  C_9
REMARK    6  A    between atoms: C_9  and  N_10
REMARK    7  A    between atoms: C_11  and  C_13
REMARK    8  A    between atoms: C_13  and  C_14
REMARK    9  A    between atoms: C_18  and  C_20
REMARK                            x       y       z     vdW  Elec       q    Type
REMARK                         _______ _______ _______ _____ _____    ______ ____
ROOT
ATOM      1  C   UNL     1       1.948   6.614  19.185  0.00  0.00    +0.000 C 
ATOM      2  C   UNL     1       2.750   5.515  19.894  0.00  0.00    +0.000 C 
ATOM      3  C   UNL     1       4.241   5.634  19.619  0.00  0.00    +0.000 C 
ATOM      4  N   UNL     1       4.515   5.589  18.179  0.00  0.00    +0.000 N 
ATOM      5  C   UNL     1       5.603   4.797  17.791  0.00  0.00    +0.000 C 
ATOM      6  O   UNL     1       6.185   4.129  18.654  0.00  0.00    +0.000 OA
ATOM      7  C   UNL     1       3.836   6.634  17.415  0.00  0.00    +0.000 C 
ATOM      8  C   UNL     1       2.321   6.613  17.682  0.00  0.00    +0.000 C 
ENDROOT
BRANCH   5   9
ATOM      9  C   UNL     1       6.115   4.736  16.431  0.00  0.00    +0.000 A 
ATOM     10  C   UNL     1       5.619   3.842  15.487  0.00  0.00    +0.000 A 
ATOM     11  C   UNL     1       6.218   4.088  14.236  0.00  0.00    +0.000 A 
ATOM     12  C   UNL     1       6.063   3.513  12.961  0.00  0.00    +0.000 A 
ATOM     13  C   UNL     1       6.856   3.967  11.907  0.00  0.00    +0.000 A 
ATOM     14  C   UNL     1       7.782   4.989  12.115  0.00  0.00    +0.000 A 
ATOM     15  C   UNL     1       7.916   5.604  13.368  0.00  0.00    +0.000 A 
ATOM     16  C   UNL     1       7.119   5.132  14.422  0.00  0.00    +0.000 A 
ATOM     17  N   UNL     1       6.992   5.548  15.741  0.00  0.00    +0.000 N 
ATOM     18  H   UNL     1       7.436   6.377  16.104  0.00  0.00    +0.000 HD
ENDBRANCH   5   9
BRANCH   1  19
ATOM     19  C   UNL     1       2.120   8.008  19.816  0.00  0.00    +0.000 C 
BRANCH  19  21
ATOM     20  N   UNL     1       1.276   9.497  21.563  0.00  0.00    +0.000 N 
ATOM     21  C   UNL     1       1.235   8.225  21.036  0.00  0.00    +0.000 C 
ATOM     22  O   UNL     1       0.565   7.317  21.517  0.00  0.00    +0.000 OA
ATOM     23  H   UNL     1       1.683  10.246  21.020  0.00  0.00    +0.000 HD
BRANCH  20  24
ATOM     24  C   UNL     1       0.403   9.876  22.655  0.00  0.00    +0.000 C 
BRANCH  24  28
ATOM     25  C   UNL     1      -2.674  12.661  21.383  0.00  0.00    +0.000 A 
ATOM     26  C   UNL     1      -1.777  12.119  20.464  0.00  0.00    +0.000 A 
ATOM     27  C   UNL     1      -0.781  11.226  20.880  0.00  0.00    +0.000 A 
ATOM     28  C   UNL     1      -0.650  10.867  22.226  0.00  0.00    +0.000 A 
ATOM     29  C   UNL     1      -1.548  11.417  23.151  0.00  0.00    +0.000 A 
ATOM     30  C   UNL     1      -2.547  12.306  22.730  0.00  0.00    +0.000 A 
BRANCH  25  31
ATOM     31  O   UNL     1      -3.694  13.525  21.098  0.00  0.00    +0.000 OA
BRANCH  31  33
ATOM     32  C   UNL     1      -5.941  13.562  21.901  0.00  0.00    +0.000 C 
ATOM     33  C   UNL     1      -5.001  12.995  20.840  0.00  0.00    +0.000 C 
ATOM     34  C   UNL     1      -5.471  13.410  19.448  0.00  0.00    +0.000 C 
ENDBRANCH  31  33
ENDBRANCH  25  31
ENDBRANCH  24  28
ENDBRANCH  20  24
ENDBRANCH  19  21
ENDBRANCH   1  19
TORSDOF 7
ENDMDL
MODEL 7
REMARK VINA RESULT:      -8.3      4.978      9.748
REMARK  Name = 
REMARK  9 active torsions:
REMARK  status: ('A' for Active; 'I' for Inactive)
REMARK    1  A    between atoms: C_1  and  C_2
REMARK    2  A    between atoms: C_2  and  C_3
REMARK    3  A    between atoms: C_2  and  O_4
REMARK    4  A    between atoms: O_4  and  C_5
REMARK    5  A    between atoms: C_8  and  C_9
REMARK    6  A    between atoms: C_9  and  N_10
REMARK    7  A    between atoms: C_11  and  C_13
REMARK    8  A    between atoms: C_13  and  C_14
REMARK    9  A    between atoms: C_18  and  C_20
REMARK                            x       y       z     vdW  Elec       q    Type
REMARK                         _______ _______ _______ _____ _____    ______ ____
ROOT
ATOM      1  C   UNL     1       1.286  15.074  18.646  0.00  0.00    +0.000 C 
ATOM      2  C   UNL     1      -0.110  14.456  18.796  0.00  0.00    +0.000 C 
ATOM      3  C   UNL     1      -0.107  13.273  19.751  0.00  0.00    +0.000 C 
ATOM      4  N   UNL     1       0.840  12.243  19.310  0.00  0.00    +0.000 N 
ATOM      5  C   UNL     1       0.381  10.922  19.386  0.00  0.00    +0.000 C 
ATOM      6  O   UNL     1      -0.792  10.722  19.719  0.00  0.00    +0.000 OA
ATOM      7  C   UNL     1       2.216  12.720  19.186  0.00  0.00    +0.000 C 
ATOM      8  C   UNL     1       2.289  13.955  18.272  0.00  0.00    +0.000 C 
ENDROOT
BRANCH   5   9
ATOM      9  C   UNL     1       1.217   9.760  19.127  0.00  0.00    +0.000 A 
ATOM     10  C   UNL     1       1.290   8.684  20.007  0.00  0.00    +0.000 A 
ATOM     11  C   UNL     1       2.080   7.662  19.445  0.00  0.00    +0.000 A 
ATOM     12  C   UNL     1       2.449   6.376  19.882  0.00  0.00    +0.000 A 
ATOM     13  C   UNL     1       3.299   5.604  19.089  0.00  0.00    +0.000 A 
ATOM     14  C   UNL     1       3.764   6.099  17.871  0.00  0.00    +0.000 A 
ATOM     15  C   UNL     1       3.369   7.359  17.400  0.00  0.00    +0.000 A 
ATOM     16  C   UNL     1       2.521   8.129  18.211  0.00  0.00    +0.000 A 
ATOM     17  N   UNL     1       1.935   9.372  18.014  0.00  0.00    +0.000 N 
ATOM     18  H   UNL     1       1.982   9.874  17.141  0.00  0.00    +0.000 HD
ENDBRANCH   5   9
BRANCH   1  19
ATOM     19  C   UNL     1       1.747  15.865  19.885  0.00  0.00    +0.000 C 
BRANCH  19  21
ATOM     20  N   UNL     1       4.130  16.094  20.383  0.00  0.00    +0.000 N 
ATOM     21  C   UNL     1       3.064  16.598  19.670  0.00  0.00    +0.000 C 
ATOM     22  O   UNL     1       3.146  17.577  18.936  0.00  0.00    +0.000 OA
ATOM     23  H   UNL     1       4.053  15.182  20.812  0.00  0.00    +0.000 HD
BRANCH  20  24
ATOM     24  C   UNL     1       5.465  16.622  20.192  0.00  0.00    +0.000 C 
BRANCH  24  28
ATOM     25  C   UNL     1       8.067  13.695  18.322  0.00  0.00    +0.000 A 
ATOM     26  C   UNL     1       8.317  14.149  19.614  0.00  0.00    +0.000 A 
ATOM     27  C   UNL     1       7.480  15.099  20.212  0.00  0.00    +0.000 A 
ATOM     28  C   UNL     1       6.381  15.628  19.524  0.00  0.00    +0.000 A 
ATOM     29  C   UNL     1       6.133  15.175  18.221  0.00  0.00    +0.000 A 
ATOM     30  C   UNL     1       6.971  14.219  17.629  0.00  0.00    +0.000 A 
BRANCH  25  31
ATOM     31  O   UNL     1       8.799  12.762  17.640  0.00  0.00    +0.000 OA
BRANCH  31  33
ATOM     32  C   UNL     1       9.085  10.517  18.397  0.00  0.00    +0.000 C 
ATOM     33  C   UNL     1       9.696  11.915  18.372  0.00  0.00    +0.000 C 
ATOM     34  C   UNL     1      11.060  11.879  17.687  0.00  0.00    +0.000 C 
ENDBRANCH  31  33
ENDBRANCH  25  31
ENDBRANCH  24  28
ENDBRANCH  20  24
ENDBRANCH  19  21
ENDBRANCH   1  19
TORSDOF 7
ENDMDL
MODEL 8
REMARK VINA RESULT:      -8.2      1.292      1.810
REMARK  Name = 
REMARK  9 active torsions:
REMARK  status: ('A' for Active; 'I' for Inactive)
REMARK    1  A    between atoms: C_1  and  C_2
REMARK    2  A    between atoms: C_2  and  C_3
REMARK    3  A    between atoms: C_2  and  O_4
REMARK    4  A    between atoms: O_4  and  C_5
REMARK    5  A    between atoms: C_8  and  C_9
REMARK    6  A    between atoms: C_9  and  N_10
REMARK    7  A    between atoms: C_11  and  C_13
REMARK    8  A    between atoms: C_13  and  C_14
REMARK    9  A    between atoms: C_18  and  C_20
REMARK                            x       y       z     vdW  Elec       q    Type
REMARK                         _______ _______ _______ _____ _____    ______ ____
ROOT
ATOM      1  C   UNL     1       3.166   2.365  19.709  0.00  0.00    +0.000 C 
ATOM      2  C   UNL     1       4.492   2.825  20.329  0.00  0.00    +0.000 C 
ATOM      3  C   UNL     1       5.017   4.092  19.671  0.00  0.00    +0.000 C 
ATOM      4  N   UNL     1       5.191   3.900  18.227  0.00  0.00    +0.000 N 
ATOM      5  C   UNL     1       6.373   4.418  17.683  0.00  0.00    +0.000 C 
ATOM      6  O   UNL     1       7.213   4.904  18.449  0.00  0.00    +0.000 OA
ATOM      7  C   UNL     1       3.966   3.510  17.530  0.00  0.00    +0.000 C 
ATOM      8  C   UNL     1       3.343   2.260  18.174  0.00  0.00    +0.000 C 
ENDROOT
BRANCH   5   9
ATOM      9  C   UNL     1       6.661   4.451  16.257  0.00  0.00    +0.000 A 
ATOM     10  C   UNL     1       6.045   3.590  15.354  0.00  0.00    +0.000 A 
ATOM     11  C   UNL     1       6.427   3.925  14.040  0.00  0.00    +0.000 A 
ATOM     12  C   UNL     1       6.086   3.414  12.774  0.00  0.00    +0.000 A 
ATOM     13  C   UNL     1       6.685   3.954  11.636  0.00  0.00    +0.000 A 
ATOM     14  C   UNL     1       7.602   4.999  11.754  0.00  0.00    +0.000 A 
ATOM     15  C   UNL     1       7.918   5.550  13.004  0.00  0.00    +0.000 A 
ATOM     16  C   UNL     1       7.315   4.992  14.141  0.00  0.00    +0.000 A 
ATOM     17  N   UNL     1       7.391   5.332  15.485  0.00  0.00    +0.000 N 
ATOM     18  H   UNL     1       7.863   6.156  15.822  0.00  0.00    +0.000 HD
ENDBRANCH   5   9
BRANCH   1  19
ATOM     19  C   UNL     1       1.967   3.255  20.087  0.00  0.00    +0.000 C 
BRANCH  19  21
ATOM     20  N   UNL     1       2.264   5.632  19.597  0.00  0.00    +0.000 N 
ATOM     21  C   UNL     1       1.772   4.430  19.139  0.00  0.00    +0.000 C 
ATOM     22  O   UNL     1       1.193   4.302  18.064  0.00  0.00    +0.000 OA
ATOM     23  H   UNL     1       2.895   5.641  20.386  0.00  0.00    +0.000 HD
BRANCH  20  24
ATOM     24  C   UNL     1       2.247   6.809  18.754  0.00  0.00    +0.000 C 
BRANCH  24  28
ATOM     25  C   UNL     1       0.802  10.310  20.873  0.00  0.00    +0.000 A 
ATOM     26  C   UNL     1       1.048   9.118  21.550  0.00  0.00    +0.000 A 
ATOM     27  C   UNL     1       1.507   7.988  20.862  0.00  0.00    +0.000 A 
ATOM     28  C   UNL     1       1.716   8.021  19.477  0.00  0.00    +0.000 A 
ATOM     29  C   UNL     1       1.462   9.220  18.796  0.00  0.00    +0.000 A 
ATOM     30  C   UNL     1       1.008  10.350  19.491  0.00  0.00    +0.000 A 
BRANCH  25  31
ATOM     31  O   UNL     1       0.369  11.480  21.436  0.00  0.00    +0.000 OA
BRANCH  31  33
ATOM     32  C   UNL     1      -1.355  11.953  23.015  0.00  0.00    +0.000 C 
ATOM     33  C   UNL     1      -1.041  11.719  21.540  0.00  0.00    +0.000 C 
ATOM     34  C   UNL     1      -1.427  12.948  20.721  0.00  0.00    +0.000 C 
ENDBRANCH  31  33
ENDBRANCH  25  31
ENDBRANCH  24  28
ENDBRANCH  20  24
ENDBRANCH  19  21
ENDBRANCH   1  19
TORSDOF 7
ENDMDL
MODEL 9
REMARK VINA RESULT:      -8.2      2.575      3.501
REMARK  Name = 
REMARK  9 active torsions:
REMARK  status: ('A' for Active; 'I' for Inactive)
REMARK    1  A    between atoms: C_1  and  C_2
REMARK    2  A    between atoms: C_2  and  C_3
REMARK    3  A    between atoms: C_2  and  O_4
REMARK    4  A    between atoms: O_4  and  C_5
REMARK    5  A    between atoms: C_8  and  C_9
REMARK    6  A    between atoms: C_9  and  N_10
REMARK    7  A    between atoms: C_11  and  C_13
REMARK    8  A    between atoms: C_13  and  C_14
REMARK    9  A    between atoms: C_18  and  C_20
REMARK                            x       y       z     vdW  Elec       q    Type
REMARK                         _______ _______ _______ _____ _____    ______ ____
ROOT
ATOM      1  C   UNL     1       2.259   6.437  19.244  0.00  0.00    +0.000 C 
ATOM      2  C   UNL     1       3.201   5.455  19.952  0.00  0.00    +0.000 C 
ATOM      3  C   UNL     1       4.651   5.667  19.545  0.00  0.00    +0.000 C 
ATOM      4  N   UNL     1       4.813   5.541  18.092  0.00  0.00    +0.000 N 
ATOM      5  C   UNL     1       5.928   4.808  17.666  0.00  0.00    +0.000 C 
ATOM      6  O   UNL     1       6.628   4.249  18.517  0.00  0.00    +0.000 OA
ATOM      7  C   UNL     1       3.992   6.475  17.323  0.00  0.00    +0.000 C 
ATOM      8  C   UNL     1       2.510   6.358  17.719  0.00  0.00    +0.000 C 
ENDROOT
BRANCH   5   9
ATOM      9  C   UNL     1       6.333   4.690  16.274  0.00  0.00    +0.000 A 
ATOM     10  C   UNL     1       5.750   3.775  15.403  0.00  0.00    +0.000 A 
ATOM     11  C   UNL     1       6.256   3.965  14.102  0.00  0.00    +0.000 A 
ATOM     12  C   UNL     1       5.994   3.350  12.864  0.00  0.00    +0.000 A 
ATOM     13  C   UNL     1       6.713   3.752  11.737  0.00  0.00    +0.000 A 
ATOM     14  C   UNL     1       7.670   4.761  11.838  0.00  0.00    +0.000 A 
ATOM     15  C   UNL     1       7.910   5.416  13.055  0.00  0.00    +0.000 A 
ATOM     16  C   UNL     1       7.187   4.997  14.182  0.00  0.00    +0.000 A 
ATOM     17  N   UNL     1       7.169   5.460  15.491  0.00  0.00    +0.000 N 
ATOM     18  H   UNL     1       7.654   6.291  15.790  0.00  0.00    +0.000 HD
ENDBRANCH   5   9
BRANCH   1  19
ATOM     19  C   UNL     1       2.367   7.882  19.768  0.00  0.00    +0.000 C 
BRANCH  19  21
ATOM     20  N   UNL     1       0.718   9.601  20.321  0.00  0.00    +0.000 N 
ATOM     21  C   UNL     1       1.150   8.318  20.573  0.00  0.00    +0.000 C 
ATOM     22  O   UNL     1       0.624   7.579  21.400  0.00  0.00    +0.000 OA
ATOM     23  H   UNL     1       1.059  10.088  19.503  0.00  0.00    +0.000 HD
BRANCH  20  24
ATOM     24  C   UNL     1      -0.493  10.109  20.933  0.00  0.00    +0.000 C 
BRANCH  24  28
ATOM     25  C   UNL     1       0.004  14.161  22.407  0.00  0.00    +0.000 A 
ATOM     26  C   UNL     1      -0.968  13.321  22.945  0.00  0.00    +0.000 A 
ATOM     27  C   UNL     1      -1.130  12.016  22.462  0.00  0.00    +0.000 A 
ATOM     28  C   UNL     1      -0.334  11.528  21.419  0.00  0.00    +0.000 A 
ATOM     29  C   UNL     1       0.640  12.377  20.874  0.00  0.00    +0.000 A 
ATOM     30  C   UNL     1       0.802  13.681  21.365  0.00  0.00    +0.000 A 
BRANCH  25  31
ATOM     31  O   UNL     1       0.268  15.443  22.804  0.00  0.00    +0.000 OA
BRANCH  31  33
ATOM     32  C   UNL     1      -1.461  16.585  21.620  0.00  0.00    +0.000 C 
ATOM     33  C   UNL     1       0.041  16.516  21.880  0.00  0.00    +0.000 C 
ATOM     34  C   UNL     1       0.531  17.834  22.475  0.00  0.00    +0.000 C 
ENDBRANCH  31  33
ENDBRANCH  25  31
ENDBRANCH  24  28
ENDBRANCH  20  24
ENDBRANCH  19  21
ENDBRANCH   1  19
TORSDOF 7
ENDMDL
