MODEL 1
REMARK VINA RESULT:      -7.9      0.000      0.000
REMARK  Name = 
REMARK  3 active torsions:
REMARK  status: ('A' for Active; 'I' for Inactive)
REMARK    1  A    between atoms: C_1  and  O_2
REMARK    2  A    between atoms: O_2  and  C_3
REMARK    3  A    between atoms: C_9  and  C_10
REMARK                            x       y       z     vdW  Elec       q    Type
REMARK                         _______ _______ _______ _____ _____    ______ ____
ROOT
ATOM      1  C   UNL     1       1.774   6.052  20.431  0.00  0.00    +0.000 A 
ATOM      2  C   UNL     1       1.478   4.737  20.774  0.00  0.00    +0.000 A 
ATOM      3  C   UNL     1       2.022   3.684  20.036  0.00  0.00    +0.000 A 
ATOM      4  C   UNL     1       2.871   3.930  18.942  0.00  0.00    +0.000 A 
ATOM      5  C   UNL     1       3.433   2.868  18.231  0.00  0.00    +0.000 A 
ATOM      6  C   UNL     1       4.315   3.097  17.171  0.00  0.00    +0.000 A 
ATOM      7  C   UNL     1       4.639   4.398  16.735  0.00  0.00    +0.000 A 
ATOM      8  C   UNL     1       4.003   5.469  17.417  0.00  0.00    +0.000 A 
ATOM      9 CL   UNL     1       4.152   7.106  16.810  0.00  0.00    +0.000 Cl
ATOM     10  C   UNL     1       3.161   5.255  18.554  0.00  0.00    +0.000 A 
ATOM     11  C   UNL     1       2.595   6.301  19.330  0.00  0.00    +0.000 A 
ENDROOT
BRANCH   7  12
ATOM     12  C   UNL     1       5.612   4.562  15.618  0.00  0.00    +0.000 A 
ATOM     13  C   UNL     1       6.814   5.274  15.750  0.00  0.00    +0.000 A 
ATOM     14  N   UNL     1       7.738   5.460  14.770  0.00  0.00    +0.000 NA
ATOM     15  C   UNL     1       7.480   4.873  13.584  0.00  0.00    +0.000 A 
ATOM     16  C   UNL     1       6.353   4.111  13.351  0.00  0.00    +0.000 A 
ATOM     17  F   UNL     1       6.169   3.512  12.169  0.00  0.00    +0.000 F 
ATOM     18  C   UNL     1       5.412   3.961  14.364  0.00  0.00    +0.000 A 
ENDBRANCH   7  12
BRANCH   1  20
ATOM     19  C   UNL     1       1.340   8.360  20.797  0.00  0.00    +0.000 C 
ATOM     20  O   UNL     1       1.205   7.007  21.229  0.00  0.00    +0.000 OA
ENDBRANCH   1  20
TORSDOF 2
ENDMDL
MODEL 2
REMARK VINA RESULT:      -7.6      1.536      2.519
REMARK  Name = 
REMARK  3 active torsions:
REMARK  status: ('A' for Active; 'I' for Inactive)
REMARK    1  A    between atoms: C_1  and  O_2
REMARK    2  A    between atoms: O_2  and  C_3
REMARK    3  A    between atoms: C_9  and  C_10
REMARK                            x       y       z     vdW  Elec       q    Type
REMARK                         _______ _______ _______ _____ _____    ______ ____
ROOT
ATOM      1  C   UNL     1       1.707   4.453  20.148  0.00  0.00    +0.000 A 
ATOM      2  C   UNL     1       1.625   5.815  20.420  0.00  0.00    +0.000 A 
ATOM      3  C   UNL     1       2.354   6.725  19.653  0.00  0.00    +0.000 A 
ATOM      4  C   UNL     1       3.178   6.288  18.600  0.00  0.00    +0.000 A 
ATOM      5  C   UNL     1       3.878   7.212  17.822  0.00  0.00    +0.000 A 
ATOM      6  C   UNL     1       4.664   6.794  16.743  0.00  0.00    +0.000 A 
ATOM      7  C   UNL     1       4.832   5.432  16.421  0.00  0.00    +0.000 A 
ATOM      8  C   UNL     1       4.175   4.499  17.266  0.00  0.00    +0.000 A 
ATOM      9 CL   UNL     1       4.502   2.785  17.100  0.00  0.00    +0.000 Cl
ATOM     10  C   UNL     1       3.303   4.911  18.325  0.00  0.00    +0.000 A 
ATOM     11  C   UNL     1       2.544   4.013  19.121  0.00  0.00    +0.000 A 
ENDROOT
BRANCH   7  12
ATOM     12  C   UNL     1       5.660   5.068  15.237  0.00  0.00    +0.000 A 
ATOM     13  C   UNL     1       6.970   5.533  15.050  0.00  0.00    +0.000 A 
ATOM     14  N   UNL     1       7.773   5.238  13.992  0.00  0.00    +0.000 NA
ATOM     15  C   UNL     1       7.265   4.396  13.069  0.00  0.00    +0.000 A 
ATOM     16  C   UNL     1       6.005   3.841  13.172  0.00  0.00    +0.000 A 
ATOM     17  F   UNL     1       5.567   2.974  12.251  0.00  0.00    +0.000 F 
ATOM     18  C   UNL     1       5.197   4.182  14.250  0.00  0.00    +0.000 A 
ENDBRANCH   7  12
BRANCH   1  20
ATOM     19  C   UNL     1       1.633   2.672  21.719  0.00  0.00    +0.000 C 
ATOM     20  O   UNL     1       0.940   3.649  20.946  0.00  0.00    +0.000 OA
ENDBRANCH   1  20
TORSDOF 2
ENDMDL
MODEL 3
REMARK VINA RESULT:      -7.4      3.083      5.104
REMARK  Name = 
REMARK  3 active torsions:
REMARK  status: ('A' for Active; 'I' for Inactive)
REMARK    1  A    between atoms: C_1  and  O_2
REMARK    2  A    between atoms: O_2  and  C_3
REMARK    3  A    between atoms: C_9  and  C_10
REMARK                            x       y       z     vdW  Elec       q    Type
REMARK                         _______ _______ _______ _____ _____    ______ ____
ROOT
ATOM      1  C   UNL     1       0.345  10.069  21.938  0.00  0.00    +0.000 A 
ATOM      2  C   UNL     1       0.390  11.111  21.017  0.00  0.00    +0.000 A 
ATOM      3  C   UNL     1       0.888  10.886  19.733  0.00  0.00    +0.000 A 
ATOM      4  C   UNL     1       1.349   9.615  19.347  0.00  0.00    +0.000 A 
ATOM      5  C   UNL     1       1.816   9.396  18.050  0.00  0.00    +0.000 A 
ATOM      6  C   UNL     1       2.235   8.126  17.640  0.00  0.00    +0.000 A 
ATOM      7  C   UNL     1       2.256   7.025  18.519  0.00  0.00    +0.000 A 
ATOM      8  C   UNL     1       1.850   7.277  19.857  0.00  0.00    +0.000 A 
ATOM      9 CL   UNL     1       2.059   6.042  21.083  0.00  0.00    +0.000 Cl
ATOM     10  C   UNL     1       1.344   8.549  20.272  0.00  0.00    +0.000 A 
ATOM     11  C   UNL     1       0.826   8.812  21.568  0.00  0.00    +0.000 A 
ENDROOT
BRANCH   7  12
ATOM     12  C   UNL     1       2.685   5.695  17.999  0.00  0.00    +0.000 A 
ATOM     13  C   UNL     1       1.794   4.632  17.793  0.00  0.00    +0.000 A 
ATOM     14  N   UNL     1       2.124   3.399  17.324  0.00  0.00    +0.000 NA
ATOM     15  C   UNL     1       3.420   3.208  17.001  0.00  0.00    +0.000 A 
ATOM     16  C   UNL     1       4.377   4.194  17.119  0.00  0.00    +0.000 A 
ATOM     17  F   UNL     1       5.640   3.966  16.739  0.00  0.00    +0.000 F 
ATOM     18  C   UNL     1       4.015   5.437  17.627  0.00  0.00    +0.000 A 
ENDBRANCH   7  12
BRANCH   1  20
ATOM     19  C   UNL     1      -1.373  11.168  23.157  0.00  0.00    +0.000 C 
ATOM     20  O   UNL     1      -0.177  10.391  23.161  0.00  0.00    +0.000 OA
ENDBRANCH   1  20
TORSDOF 2
ENDMDL
MODEL 4
REMARK VINA RESULT:      -7.4      3.158      5.089
REMARK  Name = 
REMARK  3 active torsions:
REMARK  status: ('A' for Active; 'I' for Inactive)
REMARK    1  A    between atoms: C_1  and  O_2
REMARK    2  A    between atoms: O_2  and  C_3
REMARK    3  A    between atoms: C_9  and  C_10
REMARK                            x       y       z     vdW  Elec       q    Type
REMARK                         _______ _______ _______ _____ _____    ______ ____
ROOT
ATOM      1  C   UNL     1       0.323  10.041  21.871  0.00  0.00    +0.000 A 
ATOM      2  C   UNL     1       0.323  11.081  20.948  0.00  0.00    +0.000 A 
ATOM      3  C   UNL     1       0.837  10.877  19.666  0.00  0.00    +0.000 A 
ATOM      4  C   UNL     1       1.359   9.628  19.286  0.00  0.00    +0.000 A 
ATOM      5  C   UNL     1       1.842   9.429  17.991  0.00  0.00    +0.000 A 
ATOM      6  C   UNL     1       2.322   8.179  17.586  0.00  0.00    +0.000 A 
ATOM      7  C   UNL     1       2.391   7.082  18.468  0.00  0.00    +0.000 A 
ATOM      8  C   UNL     1       1.968   7.318  19.803  0.00  0.00    +0.000 A 
ATOM      9 CL   UNL     1       2.228   6.097  21.033  0.00  0.00    +0.000 Cl
ATOM     10  C   UNL     1       1.400   8.566  20.214  0.00  0.00    +0.000 A 
ATOM     11  C   UNL     1       0.865   8.807  21.506  0.00  0.00    +0.000 A 
ENDROOT
BRANCH   7  12
ATOM     12  C   UNL     1       2.885   5.773  17.954  0.00  0.00    +0.000 A 
ATOM     13  C   UNL     1       4.173   5.597  17.427  0.00  0.00    +0.000 A 
ATOM     14  N   UNL     1       4.679   4.432  16.941  0.00  0.00    +0.000 NA
ATOM     15  C   UNL     1       3.873   3.352  17.011  0.00  0.00    +0.000 A 
ATOM     16  C   UNL     1       2.603   3.397  17.550  0.00  0.00    +0.000 A 
ATOM     17  F   UNL     1       1.862   2.286  17.639  0.00  0.00    +0.000 F 
ATOM     18  C   UNL     1       2.102   4.608  18.015  0.00  0.00    +0.000 A 
ENDBRANCH   7  12
BRANCH   1  20
ATOM     19  C   UNL     1      -1.297  11.275  23.096  0.00  0.00    +0.000 C 
ATOM     20  O   UNL     1      -0.219  10.340  23.091  0.00  0.00    +0.000 OA
ENDBRANCH   1  20
TORSDOF 2
ENDMDL
MODEL 5
REMARK VINA RESULT:      -7.2      0.840      1.015
REMARK  Name = 
REMARK  3 active torsions:
REMARK  status: ('A' for Active; 'I' for Inactive)
REMARK    1  A    between atoms: C_1  and  O_2
REMARK    2  A    between atoms: O_2  and  C_3
REMARK    3  A    between atoms: C_9  and  C_10
REMARK                            x       y       z     vdW  Elec       q    Type
REMARK                         _______ _______ _______ _____ _____    ______ ____
ROOT
ATOM      1  C   UNL     1       1.677   7.477  20.254  0.00  0.00    +0.000 A 
ATOM      2  C   UNL     1       1.411   6.294  20.937  0.00  0.00    +0.000 A 
ATOM      3  C   UNL     1       1.970   5.093  20.496  0.00  0.00    +0.000 A 
ATOM      4  C   UNL     1       2.804   5.055  19.365  0.00  0.00    +0.000 A 
ATOM      5  C   UNL     1       3.381   3.852  18.953  0.00  0.00    +0.000 A 
ATOM      6  C   UNL     1       4.249   3.808  17.857  0.00  0.00    +0.000 A 
ATOM      7  C   UNL     1       4.543   4.952  17.088  0.00  0.00    +0.000 A 
ATOM      8  C   UNL     1       3.891   6.154  17.471  0.00  0.00    +0.000 A 
ATOM      9 CL   UNL     1       4.002   7.574  16.450  0.00  0.00    +0.000 Cl
ATOM     10  C   UNL     1       3.064   6.235  18.636  0.00  0.00    +0.000 A 
ATOM     11  C   UNL     1       2.483   7.439  19.115  0.00  0.00    +0.000 A 
ENDROOT
BRANCH   7  12
ATOM     12  C   UNL     1       5.503   4.831  15.955  0.00  0.00    +0.000 A 
ATOM     13  C   UNL     1       6.775   5.423  15.964  0.00  0.00    +0.000 A 
ATOM     14  N   UNL     1       7.691   5.351  14.962  0.00  0.00    +0.000 NA
ATOM     15  C   UNL     1       7.347   4.613  13.887  0.00  0.00    +0.000 A 
ATOM     16  C   UNL     1       6.142   3.948  13.786  0.00  0.00    +0.000 A 
ATOM     17  F   UNL     1       5.870   3.190  12.717  0.00  0.00    +0.000 F 
ATOM     18  C   UNL     1       5.213   4.062  14.815  0.00  0.00    +0.000 A 
ENDBRANCH   7  12
BRANCH   1  20
ATOM     19  C   UNL     1       1.380   8.882  22.147  0.00  0.00    +0.000 C 
ATOM     20  O   UNL     1       1.096   8.599  20.778  0.00  0.00    +0.000 OA
ENDBRANCH   1  20
TORSDOF 2
ENDMDL
MODEL 6
REMARK VINA RESULT:      -7.2      4.239      7.092
REMARK  Name = 
REMARK  3 active torsions:
REMARK  status: ('A' for Active; 'I' for Inactive)
REMARK    1  A    between atoms: C_1  and  O_2
REMARK    2  A    between atoms: O_2  and  C_3
REMARK    3  A    between atoms: C_9  and  C_10
REMARK                            x       y       z     vdW  Elec       q    Type
REMARK                         _______ _______ _______ _____ _____    ______ ____
ROOT
ATOM      1  C   UNL     1       6.261   3.971  13.850  0.00  0.00    +0.000 A 
ATOM      2  C   UNL     1       7.362   4.717  14.257  0.00  0.00    +0.000 A 
ATOM      3  C   UNL     1       7.470   5.135  15.585  0.00  0.00    +0.000 A 
ATOM      4  C   UNL     1       6.479   4.811  16.528  0.00  0.00    +0.000 A 
ATOM      5  C   UNL     1       6.615   5.208  17.860  0.00  0.00    +0.000 A 
ATOM      6  C   UNL     1       5.659   4.854  18.818  0.00  0.00    +0.000 A 
ATOM      7  C   UNL     1       4.497   4.130  18.484  0.00  0.00    +0.000 A 
ATOM      8  C   UNL     1       4.333   3.797  17.113  0.00  0.00    +0.000 A 
ATOM      9 CL   UNL     1       2.822   3.107  16.554  0.00  0.00    +0.000 Cl
ATOM     10  C   UNL     1       5.338   4.082  16.134  0.00  0.00    +0.000 A 
ATOM     11  C   UNL     1       5.262   3.670  14.778  0.00  0.00    +0.000 A 
ENDROOT
BRANCH   7  12
ATOM     12  C   UNL     1       3.541   3.762  19.566  0.00  0.00    +0.000 A 
ATOM     13  C   UNL     1       3.829   2.800  20.546  0.00  0.00    +0.000 A 
ATOM     14  N   UNL     1       2.999   2.420  21.554  0.00  0.00    +0.000 NA
ATOM     15  C   UNL     1       1.814   3.060  21.628  0.00  0.00    +0.000 A 
ATOM     16  C   UNL     1       1.441   4.055  20.748  0.00  0.00    +0.000 A 
ATOM     17  F   UNL     1       0.272   4.690  20.894  0.00  0.00    +0.000 F 
ATOM     18  C   UNL     1       2.299   4.403  19.710  0.00  0.00    +0.000 A 
ENDBRANCH   7  12
BRANCH   1  20
ATOM     19  C   UNL     1       4.992   3.293  11.959  0.00  0.00    +0.000 C 
ATOM     20  O   UNL     1       6.261   3.598  12.534  0.00  0.00    +0.000 OA
ENDBRANCH   1  20
TORSDOF 2
ENDMDL
MODEL 7
REMARK VINA RESULT:      -6.9      1.921      2.893
REMARK  Name = 
REMARK  3 active torsions:
REMARK  status: ('A' for Active; 'I' for Inactive)
REMARK    1  A    between atoms: C_1  and  O_2
REMARK    2  A    between atoms: O_2  and  C_3
REMARK    3  A    between atoms: C_9  and  C_10
REMARK                            x       y       z     vdW  Elec       q    Type
REMARK                         _______ _______ _______ _____ _____    ______ ____
ROOT
ATOM      1  C   UNL     1       2.026   4.427  19.888  0.00  0.00    +0.000 A 
ATOM      2  C   UNL     1       2.000   5.793  20.147  0.00  0.00    +0.000 A 
ATOM      3  C   UNL     1       2.721   6.672  19.337  0.00  0.00    +0.000 A 
ATOM      4  C   UNL     1       3.482   6.197  18.253  0.00  0.00    +0.000 A 
ATOM      5  C   UNL     1       4.174   7.089  17.432  0.00  0.00    +0.000 A 
ATOM      6  C   UNL     1       4.896   6.635  16.324  0.00  0.00    +0.000 A 
ATOM      7  C   UNL     1       5.005   5.265  16.011  0.00  0.00    +0.000 A 
ATOM      8  C   UNL     1       4.359   4.362  16.897  0.00  0.00    +0.000 A 
ATOM      9 CL   UNL     1       4.623   2.637  16.736  0.00  0.00    +0.000 Cl
ATOM     10  C   UNL     1       3.550   4.813  17.988  0.00  0.00    +0.000 A 
ATOM     11  C   UNL     1       2.801   3.949  18.829  0.00  0.00    +0.000 A 
ENDROOT
BRANCH   7  12
ATOM     12  C   UNL     1       5.766   4.862  14.795  0.00  0.00    +0.000 A 
ATOM     13  C   UNL     1       5.276   3.939  13.858  0.00  0.00    +0.000 A 
ATOM     14  N   UNL     1       5.923   3.530  12.734  0.00  0.00    +0.000 NA
ATOM     15  C   UNL     1       7.123   4.097  12.493  0.00  0.00    +0.000 A 
ATOM     16  C   UNL     1       7.685   5.049  13.319  0.00  0.00    +0.000 A 
ATOM     17  F   UNL     1       8.858   5.613  13.009  0.00  0.00    +0.000 F 
ATOM     18  C   UNL     1       7.013   5.427  14.477  0.00  0.00    +0.000 A 
ENDBRANCH   7  12
BRANCH   1  20
ATOM     19  C   UNL     1       1.985   2.838  21.655  0.00  0.00    +0.000 C 
ATOM     20  O   UNL     1       1.271   3.657  20.730  0.00  0.00    +0.000 OA
ENDBRANCH   1  20
TORSDOF 2
ENDMDL
MODEL 8
REMARK VINA RESULT:      -6.9      2.615      4.389
REMARK  Name = 
REMARK  3 active torsions:
REMARK  status: ('A' for Active; 'I' for Inactive)
REMARK    1  A    between atoms: C_1  and  O_2
REMARK    2  A    between atoms: O_2  and  C_3
REMARK    3  A    between atoms: C_9  and  C_10
REMARK                            x       y       z     vdW  Elec       q    Type
REMARK                         _______ _______ _______ _____ _____    ______ ____
ROOT
ATOM      1  C   UNL     1       0.104   9.186  21.483  0.00  0.00    +0.000 A 
ATOM      2  C   UNL     1       0.043  10.296  20.647  0.00  0.00    +0.000 A 
ATOM      3  C   UNL     1       0.735  10.297  19.434  0.00  0.00    +0.000 A 
ATOM      4  C   UNL     1       1.500   9.186  19.037  0.00  0.00    +0.000 A 
ATOM      5  C   UNL     1       2.162   9.187  17.808  0.00  0.00    +0.000 A 
ATOM      6  C   UNL     1       2.889   8.071  17.381  0.00  0.00    +0.000 A 
ATOM      7  C   UNL     1       3.032   6.920  18.181  0.00  0.00    +0.000 A 
ATOM      8  C   UNL     1       2.417   6.960  19.460  0.00  0.00    +0.000 A 
ATOM      9 CL   UNL     1       2.727   5.684  20.621  0.00  0.00    +0.000 Cl
ATOM     10  C   UNL     1       1.604   8.060  19.881  0.00  0.00    +0.000 A 
ATOM     11  C   UNL     1       0.884   8.092  21.104  0.00  0.00    +0.000 A 
ENDROOT
BRANCH   7  12
ATOM     12  C   UNL     1       3.796   5.759  17.643  0.00  0.00    +0.000 A 
ATOM     13  C   UNL     1       5.074   5.881  17.077  0.00  0.00    +0.000 A 
ATOM     14  N   UNL     1       5.817   4.862  16.568  0.00  0.00    +0.000 NA
ATOM     15  C   UNL     1       5.281   3.627  16.654  0.00  0.00    +0.000 A 
ATOM     16  C   UNL     1       4.052   3.380  17.231  0.00  0.00    +0.000 A 
ATOM     17  F   UNL     1       3.586   2.130  17.334  0.00  0.00    +0.000 F 
ATOM     18  C   UNL     1       3.302   4.446  17.718  0.00  0.00    +0.000 A 
ENDBRANCH   7  12
BRANCH   1  20
ATOM     19  C   UNL     1      -0.801  10.592  23.171  0.00  0.00    +0.000 C 
ATOM     20  O   UNL     1      -0.624   9.281  22.637  0.00  0.00    +0.000 OA
ENDBRANCH   1  20
TORSDOF 2
ENDMDL
MODEL 9
REMARK VINA RESULT:      -6.8      4.146      7.087
REMARK  Name = 
REMARK  3 active torsions:
REMARK  status: ('A' for Active; 'I' for Inactive)
REMARK    1  A    between atoms: C_1  and  O_2
REMARK    2  A    between atoms: O_2  and  C_3
REMARK    3  A    between atoms: C_9  and  C_10
REMARK                            x       y       z     vdW  Elec       q    Type
REMARK                         _______ _______ _______ _____ _____    ______ ____
ROOT
ATOM      1  C   UNL     1       6.206   3.938  13.702  0.00  0.00    +0.000 A 
ATOM      2  C   UNL     1       7.252   4.813  13.975  0.00  0.00    +0.000 A 
ATOM      3  C   UNL     1       7.336   5.435  15.222  0.00  0.00    +0.000 A 
ATOM      4  C   UNL     1       6.374   5.191  16.218  0.00  0.00    +0.000 A 
ATOM      5  C   UNL     1       6.486   5.796  17.471  0.00  0.00    +0.000 A 
ATOM      6  C   UNL     1       5.562   5.526  18.486  0.00  0.00    +0.000 A 
ATOM      7  C   UNL     1       4.453   4.680  18.283  0.00  0.00    +0.000 A 
ATOM      8  C   UNL     1       4.308   4.131  16.982  0.00  0.00    +0.000 A 
ATOM      9 CL   UNL     1       2.848   3.260  16.556  0.00  0.00    +0.000 Cl
ATOM     10  C   UNL     1       5.286   4.332  15.956  0.00  0.00    +0.000 A 
ATOM     11  C   UNL     1       5.235   3.713  14.679  0.00  0.00    +0.000 A 
ENDROOT
BRANCH   7  12
ATOM     12  C   UNL     1       3.529   4.416  19.423  0.00  0.00    +0.000 A 
ATOM     13  C   UNL     1       2.497   5.293  19.789  0.00  0.00    +0.000 A 
ATOM     14  N   UNL     1       1.626   5.109  20.817  0.00  0.00    +0.000 NA
ATOM     15  C   UNL     1       1.757   3.962  21.515  0.00  0.00    +0.000 A 
ATOM     16  C   UNL     1       2.705   3.005  21.218  0.00  0.00    +0.000 A 
ATOM     17  F   UNL     1       2.761   1.863  21.913  0.00  0.00    +0.000 F 
ATOM     18  C   UNL     1       3.600   3.233  20.178  0.00  0.00    +0.000 A 
ENDBRANCH   7  12
BRANCH   1  20
ATOM     19  C   UNL     1       4.967   3.209  11.810  0.00  0.00    +0.000 C 
ATOM     20  O   UNL     1       6.228   3.369  12.459  0.00  0.00    +0.000 OA
ENDBRANCH   1  20
TORSDOF 2
ENDMDL
