MODEL 1
REMARK VINA RESULT:      -6.7      0.000      0.000
REMARK  Name = 
REMARK  4 active torsions:
REMARK  status: ('A' for Active; 'I' for Inactive)
REMARK    1  A    between atoms: C_1  and  C_2
REMARK    2  A    between atoms: C_2  and  C_3
REMARK    3  A    between atoms: C_15  and  C_16
REMARK    4  A    between atoms: C_17  and  C_18
REMARK                            x       y       z     vdW  Elec       q    Type
REMARK                         _______ _______ _______ _____ _____    ______ ____
ROOT
ATOM      1  C   UNL     1      -2.718  15.596  25.020  0.00  0.00    +0.000 C 
ATOM      2  O   UNL     1      -3.741  16.243  25.249  0.00  0.00    +0.000 OA
ATOM      3  N   UNL     1      -2.546  14.903  23.829  0.00  0.00    +0.000 N 
ATOM      4  C   UNL     1      -3.458  15.203  22.737  0.00  0.00    +0.000 C 
ATOM      5  C   UNL     1      -2.935  14.589  21.431  0.00  0.00    +0.000 C 
ATOM      6  C   UNL     1      -3.016  13.024  21.520  0.00  0.00    +0.000 C 
ATOM      7  C   UNL     1      -2.702  12.592  22.993  0.00  0.00    +0.000 C 
ATOM      8  C   UNL     1      -1.808  13.648  23.694  0.00  0.00    +0.000 C 
ATOM      9  N   UNL     1      -1.958  12.425  20.688  0.00  0.00    +0.000 N 
ATOM     10  C   UNL     1      -2.283  11.690  19.539  0.00  0.00    +0.000 A 
ATOM     11  C   UNL     1      -1.274  10.903  18.967  0.00  0.00    +0.000 A 
ATOM     12  C   UNL     1      -1.443  10.310  17.723  0.00  0.00    +0.000 A 
ATOM     13  C   UNL     1      -2.598  10.550  16.972  0.00  0.00    +0.000 A 
ATOM     14  C   UNL     1      -2.639   9.991  15.568  0.00  0.00    +0.000 C 
ATOM     15  C   UNL     1      -3.659  11.321  17.527  0.00  0.00    +0.000 A 
ATOM     16  C   UNL     1      -4.874  11.572  16.672  0.00  0.00    +0.000 C 
ATOM     17  C   UNL     1      -3.509  11.835  18.853  0.00  0.00    +0.000 A 
ATOM     18  N   UNL     1      -4.555  12.409  19.640  0.00  0.00    +0.000 N 
ATOM     19  C   UNL     1      -5.840  12.766  19.306  0.00  0.00    +0.000 A 
ATOM     20  C   UNL     1      -6.545  13.081  20.444  0.00  0.00    +0.000 A 
ATOM     21  C   UNL     1      -5.658  12.941  21.530  0.00  0.00    +0.000 A 
ATOM     22  C   UNL     1      -4.400  12.711  20.994  0.00  0.00    +0.000 A 
ATOM     23  H   UNL     1      -1.209  11.979  21.209  0.00  0.00    +0.000 HD
ENDROOT
BRANCH   1  25
ATOM     24  C   UNL     1      -0.952  16.980  26.153  0.00  0.00    +0.000 C 
ATOM     25  C   UNL     1      -1.548  15.586  25.991  0.00  0.00    +0.000 C 
ENDBRANCH   1  25
TORSDOF 1
ENDMDL
MODEL 2
REMARK VINA RESULT:      -6.4     10.748     12.248
REMARK  Name = 
REMARK  4 active torsions:
REMARK  status: ('A' for Active; 'I' for Inactive)
REMARK    1  A    between atoms: C_1  and  C_2
REMARK    2  A    between atoms: C_2  and  C_3
REMARK    3  A    between atoms: C_15  and  C_16
REMARK    4  A    between atoms: C_17  and  C_18
REMARK                            x       y       z     vdW  Elec       q    Type
REMARK                         _______ _______ _______ _____ _____    ______ ____
ROOT
ATOM      1  C   UNL     1       6.736  12.835  26.547  0.00  0.00    +0.000 C 
ATOM      2  O   UNL     1       5.988  13.784  26.792  0.00  0.00    +0.000 OA
ATOM      3  N   UNL     1       7.528  12.807  25.407  0.00  0.00    +0.000 N 
ATOM      4  C   UNL     1       7.689  14.049  24.668  0.00  0.00    +0.000 C 
ATOM      5  C   UNL     1       8.822  13.908  23.642  0.00  0.00    +0.000 C 
ATOM      6  C   UNL     1       8.392  12.898  22.522  0.00  0.00    +0.000 C 
ATOM      7  C   UNL     1       7.524  11.769  23.174  0.00  0.00    +0.000 C 
ATOM      8  C   UNL     1       7.889  11.596  24.672  0.00  0.00    +0.000 C 
ATOM      9  N   UNL     1       9.584  12.228  21.973  0.00  0.00    +0.000 N 
ATOM     10  C   UNL     1       9.989  12.460  20.651  0.00  0.00    +0.000 A 
ATOM     11  C   UNL     1      10.932  11.581  20.100  0.00  0.00    +0.000 A 
ATOM     12  C   UNL     1      11.540  11.851  18.881  0.00  0.00    +0.000 A 
ATOM     13  C   UNL     1      11.285  13.052  18.210  0.00  0.00    +0.000 A 
ATOM     14  C   UNL     1      12.099  13.337  16.969  0.00  0.00    +0.000 C 
ATOM     15  C   UNL     1      10.314  13.959  18.722  0.00  0.00    +0.000 A 
ATOM     16  C   UNL     1      10.090  15.249  17.976  0.00  0.00    +0.000 C 
ATOM     17  C   UNL     1       9.621  13.612  19.923  0.00  0.00    +0.000 A 
ATOM     18  N   UNL     1       8.463  14.279  20.430  0.00  0.00    +0.000 N 
ATOM     19  C   UNL     1       7.856  15.450  20.042  0.00  0.00    +0.000 A 
ATOM     20  C   UNL     1       6.647  15.582  20.686  0.00  0.00    +0.000 A 
ATOM     21  C   UNL     1       6.506  14.464  21.530  0.00  0.00    +0.000 A 
ATOM     22  C   UNL     1       7.711  13.779  21.496  0.00  0.00    +0.000 A 
ATOM     23  H   UNL     1       9.668  11.246  22.216  0.00  0.00    +0.000 HD
ENDROOT
BRANCH   1  25
ATOM     24  C   UNL     1       5.654  10.795  27.539  0.00  0.00    +0.000 C 
ATOM     25  C   UNL     1       6.897  11.678  27.519  0.00  0.00    +0.000 C 
ENDBRANCH   1  25
TORSDOF 1
ENDMDL
MODEL 3
REMARK VINA RESULT:      -6.2      4.128      5.717
REMARK  Name = 
REMARK  4 active torsions:
REMARK  status: ('A' for Active; 'I' for Inactive)
REMARK    1  A    between atoms: C_1  and  C_2
REMARK    2  A    between atoms: C_2  and  C_3
REMARK    3  A    between atoms: C_15  and  C_16
REMARK    4  A    between atoms: C_17  and  C_18
REMARK                            x       y       z     vdW  Elec       q    Type
REMARK                         _______ _______ _______ _____ _____    ______ ____
ROOT
ATOM      1  C   UNL     1       4.035  14.887  19.038  0.00  0.00    +0.000 C 
ATOM      2  O   UNL     1       4.284  15.508  20.073  0.00  0.00    +0.000 OA
ATOM      3  N   UNL     1       2.760  14.409  18.764  0.00  0.00    +0.000 N 
ATOM      4  C   UNL     1       1.662  14.917  19.571  0.00  0.00    +0.000 C 
ATOM      5  C   UNL     1       0.319  14.529  18.937  0.00  0.00    +0.000 C 
ATOM      6  C   UNL     1       0.124  12.975  19.036  0.00  0.00    +0.000 C 
ATOM      7  C   UNL     1       1.519  12.285  18.861  0.00  0.00    +0.000 C 
ATOM      8  C   UNL     1       2.471  13.180  18.026  0.00  0.00    +0.000 C 
ATOM      9  N   UNL     1      -0.705  12.507  17.911  0.00  0.00    +0.000 N 
ATOM     10  C   UNL     1      -1.990  11.992  18.137  0.00  0.00    +0.000 A 
ATOM     11  C   UNL     1      -2.600  11.294  17.086  0.00  0.00    +0.000 A 
ATOM     12  C   UNL     1      -3.940  10.931  17.146  0.00  0.00    +0.000 A 
ATOM     13  C   UNL     1      -4.735  11.326  18.226  0.00  0.00    +0.000 A 
ATOM     14  C   UNL     1      -6.213  11.023  18.144  0.00  0.00    +0.000 C 
ATOM     15  C   UNL     1      -4.148  12.013  19.327  0.00  0.00    +0.000 A 
ATOM     16  C   UNL     1      -5.049  12.437  20.458  0.00  0.00    +0.000 C 
ATOM     17  C   UNL     1      -2.744  12.283  19.294  0.00  0.00    +0.000 A 
ATOM     18  N   UNL     1      -1.964  12.734  20.403  0.00  0.00    +0.000 N 
ATOM     19  C   UNL     1      -2.341  13.175  21.650  0.00  0.00    +0.000 A 
ATOM     20  C   UNL     1      -1.232  13.301  22.453  0.00  0.00    +0.000 A 
ATOM     21  C   UNL     1      -0.114  12.953  21.669  0.00  0.00    +0.000 A 
ATOM     22  C   UNL     1      -0.569  12.792  20.369  0.00  0.00    +0.000 A 
ATOM     23  H   UNL     1      -0.207  11.959  17.217  0.00  0.00    +0.000 HD
ENDROOT
BRANCH   1  25
ATOM     24  C   UNL     1       6.494  14.866  18.521  0.00  0.00    +0.000 C 
ATOM     25  C   UNL     1       5.087  14.680  17.961  0.00  0.00    +0.000 C 
ENDBRANCH   1  25
TORSDOF 1
ENDMDL
MODEL 4
REMARK VINA RESULT:      -6.2      4.463      6.623
REMARK  Name = 
REMARK  4 active torsions:
REMARK  status: ('A' for Active; 'I' for Inactive)
REMARK    1  A    between atoms: C_1  and  C_2
REMARK    2  A    between atoms: C_2  and  C_3
REMARK    3  A    between atoms: C_15  and  C_16
REMARK    4  A    between atoms: C_17  and  C_18
REMARK                            x       y       z     vdW  Elec       q    Type
REMARK                         _______ _______ _______ _____ _____    ______ ____
ROOT
ATOM      1  C   UNL     1      -0.792  14.750  19.334  0.00  0.00    +0.000 C 
ATOM      2  O   UNL     1      -1.588  14.926  20.259  0.00  0.00    +0.000 OA
ATOM      3  N   UNL     1      -0.264  13.497  19.056  0.00  0.00    +0.000 N 
ATOM      4  C   UNL     1      -0.898  12.345  19.677  0.00  0.00    +0.000 C 
ATOM      5  C   UNL     1      -0.394  11.051  19.024  0.00  0.00    +0.000 C 
ATOM      6  C   UNL     1       1.119  10.839  19.382  0.00  0.00    +0.000 C 
ATOM      7  C   UNL     1       1.819  12.240  19.435  0.00  0.00    +0.000 C 
ATOM      8  C   UNL     1       1.078  13.256  18.528  0.00  0.00    +0.000 C 
ATOM      9  N   UNL     1       1.785  10.093  18.299  0.00  0.00    +0.000 N 
ATOM     10  C   UNL     1       2.262   8.793  18.517  0.00  0.00    +0.000 A 
ATOM     11  C   UNL     1       3.139   8.258  17.564  0.00  0.00    +0.000 A 
ATOM     12  C   UNL     1       3.495   6.915  17.587  0.00  0.00    +0.000 A 
ATOM     13  C   UNL     1       2.922   6.044  18.519  0.00  0.00    +0.000 A 
ATOM     14  C   UNL     1       3.246   4.575  18.383  0.00  0.00    +0.000 C 
ATOM     15  C   UNL     1       2.047   6.552  19.522  0.00  0.00    +0.000 A 
ATOM     16  C   UNL     1       1.436   5.572  20.490  0.00  0.00    +0.000 C 
ATOM     17  C   UNL     1       1.777   7.956  19.545  0.00  0.00    +0.000 A 
ATOM     18  N   UNL     1       1.131   8.655  20.612  0.00  0.00    +0.000 N 
ATOM     19  C   UNL     1       0.480   8.189  21.730  0.00  0.00    +0.000 A 
ATOM     20  C   UNL     1       0.205   9.237  22.578  0.00  0.00    +0.000 A 
ATOM     21  C   UNL     1       0.677  10.407  21.952  0.00  0.00    +0.000 A 
ATOM     22  C   UNL     1       1.070  10.049  20.672  0.00  0.00    +0.000 A 
ATOM     23  H   UNL     1       2.443  10.638  17.751  0.00  0.00    +0.000 HD
ENDROOT
BRANCH   1  25
ATOM     24  C   UNL     1      -0.718  17.241  19.004  0.00  0.00    +0.000 C 
ATOM     25  C   UNL     1      -0.406  15.879  18.392  0.00  0.00    +0.000 C 
ENDBRANCH   1  25
TORSDOF 1
ENDMDL
MODEL 5
REMARK VINA RESULT:      -6.2     10.642     12.086
REMARK  Name = 
REMARK  4 active torsions:
REMARK  status: ('A' for Active; 'I' for Inactive)
REMARK    1  A    between atoms: C_1  and  C_2
REMARK    2  A    between atoms: C_2  and  C_3
REMARK    3  A    between atoms: C_15  and  C_16
REMARK    4  A    between atoms: C_17  and  C_18
REMARK                            x       y       z     vdW  Elec       q    Type
REMARK                         _______ _______ _______ _____ _____    ______ ____
ROOT
ATOM      1  C   UNL     1       5.875  12.481  27.047  0.00  0.00    +0.000 C 
ATOM      2  O   UNL     1       5.705  13.590  27.555  0.00  0.00    +0.000 OA
ATOM      3  N   UNL     1       6.658  12.312  25.912  0.00  0.00    +0.000 N 
ATOM      4  C   UNL     1       7.517  13.415  25.515  0.00  0.00    +0.000 C 
ATOM      5  C   UNL     1       8.519  12.946  24.450  0.00  0.00    +0.000 C 
ATOM      6  C   UNL     1       7.753  12.618  23.121  0.00  0.00    +0.000 C 
ATOM      7  C   UNL     1       6.360  12.000  23.487  0.00  0.00    +0.000 C 
ATOM      8  C   UNL     1       6.417  11.310  24.875  0.00  0.00    +0.000 C 
ATOM      9  N   UNL     1       8.478  11.573  22.377  0.00  0.00    +0.000 N 
ATOM     10  C   UNL     1       9.085  11.863  21.147  0.00  0.00    +0.000 A 
ATOM     11  C   UNL     1       9.491  10.781  20.354  0.00  0.00    +0.000 A 
ATOM     12  C   UNL     1      10.280  10.970  19.227  0.00  0.00    +0.000 A 
ATOM     13  C   UNL     1      10.759  12.243  18.901  0.00  0.00    +0.000 A 
ATOM     14  C   UNL     1      11.732  12.342  17.750  0.00  0.00    +0.000 C 
ATOM     15  C   UNL     1      10.349  13.374  19.664  0.00  0.00    +0.000 A 
ATOM     16  C   UNL     1      10.908  14.722  19.288  0.00  0.00    +0.000 C 
ATOM     17  C   UNL     1       9.449  13.170  20.757  0.00  0.00    +0.000 A 
ATOM     18  N   UNL     1       8.757  14.204  21.460  0.00  0.00    +0.000 N 
ATOM     19  C   UNL     1       8.890  15.572  21.411  0.00  0.00    +0.000 A 
ATOM     20  C   UNL     1       7.863  16.165  22.108  0.00  0.00    +0.000 A 
ATOM     21  C   UNL     1       7.072  15.126  22.637  0.00  0.00    +0.000 A 
ATOM     22  C   UNL     1       7.744  13.940  22.384  0.00  0.00    +0.000 A 
ATOM     23  H   UNL     1       8.013  10.671  22.352  0.00  0.00    +0.000 HD
ENDROOT
BRANCH   1  25
ATOM     24  C   UNL     1       6.378  10.459  28.453  0.00  0.00    +0.000 C 
ATOM     25  C   UNL     1       5.307  11.221  27.678  0.00  0.00    +0.000 C 
ENDBRANCH   1  25
TORSDOF 1
ENDMDL
MODEL 6
REMARK VINA RESULT:      -6.2      4.219      7.744
REMARK  Name = 
REMARK  4 active torsions:
REMARK  status: ('A' for Active; 'I' for Inactive)
REMARK    1  A    between atoms: C_1  and  C_2
REMARK    2  A    between atoms: C_2  and  C_3
REMARK    3  A    between atoms: C_15  and  C_16
REMARK    4  A    between atoms: C_17  and  C_18
REMARK                            x       y       z     vdW  Elec       q    Type
REMARK                         _______ _______ _______ _____ _____    ______ ____
ROOT
ATOM      1  C   UNL     1       2.481   7.536  18.799  0.00  0.00    +0.000 C 
ATOM      2  O   UNL     1       3.120   7.903  17.812  0.00  0.00    +0.000 OA
ATOM      3  N   UNL     1       1.554   8.366  19.416  0.00  0.00    +0.000 N 
ATOM      4  C   UNL     1       1.131   9.556  18.696  0.00  0.00    +0.000 C 
ATOM      5  C   UNL     1      -0.101  10.172  19.375  0.00  0.00    +0.000 C 
ATOM      6  C   UNL     1       0.307  10.749  20.775  0.00  0.00    +0.000 C 
ATOM      7  C   UNL     1       1.399   9.815  21.401  0.00  0.00    +0.000 C 
ATOM      8  C   UNL     1       1.264   8.372  20.849  0.00  0.00    +0.000 C 
ATOM      9  N   UNL     1      -0.847  10.694  21.690  0.00  0.00    +0.000 N 
ATOM     10  C   UNL     1      -1.453  11.873  22.147  0.00  0.00    +0.000 A 
ATOM     11  C   UNL     1      -2.334  11.769  23.232  0.00  0.00    +0.000 A 
ATOM     12  C   UNL     1      -3.131  12.839  23.617  0.00  0.00    +0.000 A 
ATOM     13  C   UNL     1      -3.132  14.026  22.877  0.00  0.00    +0.000 A 
ATOM     14  C   UNL     1      -4.135  15.085  23.270  0.00  0.00    +0.000 C 
ATOM     15  C   UNL     1      -2.232  14.184  21.785  0.00  0.00    +0.000 A 
ATOM     16  C   UNL     1      -2.285  15.471  21.004  0.00  0.00    +0.000 C 
ATOM     17  C   UNL     1      -1.343  13.107  21.471  0.00  0.00    +0.000 A 
ATOM     18  N   UNL     1      -0.228  13.190  20.581  0.00  0.00    +0.000 N 
ATOM     19  C   UNL     1       0.158  14.183  19.711  0.00  0.00    +0.000 A 
ATOM     20  C   UNL     1       1.413  13.908  19.220  0.00  0.00    +0.000 A 
ATOM     21  C   UNL     1       1.815  12.681  19.784  0.00  0.00    +0.000 A 
ATOM     22  C   UNL     1       0.719  12.172  20.464  0.00  0.00    +0.000 A 
ATOM     23  H   UNL     1      -0.764  10.011  22.436  0.00  0.00    +0.000 HD
ENDROOT
BRANCH   1  25
ATOM     24  C   UNL     1       2.211   5.086  18.307  0.00  0.00    +0.000 C 
ATOM     25  C   UNL     1       2.608   6.126  19.350  0.00  0.00    +0.000 C 
ENDBRANCH   1  25
TORSDOF 1
ENDMDL
MODEL 7
REMARK VINA RESULT:      -6.2      5.701      7.889
REMARK  Name = 
REMARK  4 active torsions:
REMARK  status: ('A' for Active; 'I' for Inactive)
REMARK    1  A    between atoms: C_1  and  C_2
REMARK    2  A    between atoms: C_2  and  C_3
REMARK    3  A    between atoms: C_15  and  C_16
REMARK    4  A    between atoms: C_17  and  C_18
REMARK                            x       y       z     vdW  Elec       q    Type
REMARK                         _______ _______ _______ _____ _____    ______ ____
ROOT
ATOM      1  C   UNL     1      -0.721  11.749  22.375  0.00  0.00    +0.000 C 
ATOM      2  O   UNL     1      -0.442  12.767  21.739  0.00  0.00    +0.000 OA
ATOM      3  N   UNL     1      -0.078  10.542  22.135  0.00  0.00    +0.000 N 
ATOM      4  C   UNL     1       1.138  10.572  21.339  0.00  0.00    +0.000 C 
ATOM      5  C   UNL     1       1.867   9.225  21.439  0.00  0.00    +0.000 C 
ATOM      6  C   UNL     1       1.019   8.117  20.722  0.00  0.00    +0.000 C 
ATOM      7  C   UNL     1      -0.500   8.422  20.956  0.00  0.00    +0.000 C 
ATOM      8  C   UNL     1      -0.700   9.225  22.267  0.00  0.00    +0.000 C 
ATOM      9  N   UNL     1       1.273   6.811  21.355  0.00  0.00    +0.000 N 
ATOM     10  C   UNL     1       1.933   5.792  20.652  0.00  0.00    +0.000 A 
ATOM     11  C   UNL     1       1.877   4.498  21.186  0.00  0.00    +0.000 A 
ATOM     12  C   UNL     1       2.666   3.475  20.675  0.00  0.00    +0.000 A 
ATOM     13  C   UNL     1       3.597   3.733  19.664  0.00  0.00    +0.000 A 
ATOM     14  C   UNL     1       4.520   2.604  19.269  0.00  0.00    +0.000 C 
ATOM     15  C   UNL     1       3.666   5.028  19.075  0.00  0.00    +0.000 A 
ATOM     16  C   UNL     1       4.700   5.264  18.005  0.00  0.00    +0.000 C 
ATOM     17  C   UNL     1       2.770   6.040  19.543  0.00  0.00    +0.000 A 
ATOM     18  N   UNL     1       2.541   7.298  18.906  0.00  0.00    +0.000 N 
ATOM     19  C   UNL     1       3.194   7.912  17.863  0.00  0.00    +0.000 A 
ATOM     20  C   UNL     1       2.485   9.018  17.457  0.00  0.00    +0.000 A 
ATOM     21  C   UNL     1       1.358   9.116  18.298  0.00  0.00    +0.000 A 
ATOM     22  C   UNL     1       1.515   8.163  19.293  0.00  0.00    +0.000 A 
ATOM     23  H   UNL     1       0.495   6.441  21.893  0.00  0.00    +0.000 HD
ENDROOT
BRANCH   1  25
ATOM     24  C   UNL     1      -3.050  12.388  23.071  0.00  0.00    +0.000 C 
ATOM     25  C   UNL     1      -1.727  11.773  23.514  0.00  0.00    +0.000 C 
ENDBRANCH   1  25
TORSDOF 1
ENDMDL
MODEL 8
REMARK VINA RESULT:      -6.1      3.809      7.267
REMARK  Name = 
REMARK  4 active torsions:
REMARK  status: ('A' for Active; 'I' for Inactive)
REMARK    1  A    between atoms: C_1  and  C_2
REMARK    2  A    between atoms: C_2  and  C_3
REMARK    3  A    between atoms: C_15  and  C_16
REMARK    4  A    between atoms: C_17  and  C_18
REMARK                            x       y       z     vdW  Elec       q    Type
REMARK                         _______ _______ _______ _____ _____    ______ ____
ROOT
ATOM      1  C   UNL     1       1.882   8.883  18.378  0.00  0.00    +0.000 C 
ATOM      2  O   UNL     1       2.344   9.371  17.345  0.00  0.00    +0.000 OA
ATOM      3  N   UNL     1       0.931   9.551  19.137  0.00  0.00    +0.000 N 
ATOM      4  C   UNL     1       0.267  10.694  18.532  0.00  0.00    +0.000 C 
ATOM      5  C   UNL     1      -0.948  11.105  19.376  0.00  0.00    +0.000 C 
ATOM      6  C   UNL     1      -0.459  11.685  20.749  0.00  0.00    +0.000 C 
ATOM      7  C   UNL     1       0.817  10.893  21.199  0.00  0.00    +0.000 C 
ATOM      8  C   UNL     1       0.815   9.466  20.593  0.00  0.00    +0.000 C 
ATOM      9  N   UNL     1      -1.477  11.435  21.785  0.00  0.00    +0.000 N 
ATOM     10  C   UNL     1      -2.179  12.500  22.367  0.00  0.00    +0.000 A 
ATOM     11  C   UNL     1      -2.903  12.234  23.537  0.00  0.00    +0.000 A 
ATOM     12  C   UNL     1      -3.787  13.166  24.064  0.00  0.00    +0.000 A 
ATOM     13  C   UNL     1      -4.038  14.366  23.392  0.00  0.00    +0.000 A 
ATOM     14  C   UNL     1      -5.122  15.259  23.949  0.00  0.00    +0.000 C 
ATOM     15  C   UNL     1      -3.304  14.688  22.214  0.00  0.00    +0.000 A 
ATOM     16  C   UNL     1      -3.624  15.982  21.512  0.00  0.00    +0.000 C 
ATOM     17  C   UNL     1      -2.321  13.760  21.747  0.00  0.00    +0.000 A 
ATOM     18  N   UNL     1      -1.341  14.031  20.743  0.00  0.00    +0.000 N 
ATOM     19  C   UNL     1      -1.199  15.098  19.887  0.00  0.00    +0.000 A 
ATOM     20  C   UNL     1       0.014  15.021  19.245  0.00  0.00    +0.000 A 
ATOM     21  C   UNL     1       0.644  13.844  19.695  0.00  0.00    +0.000 A 
ATOM     22  C   UNL     1      -0.284  13.161  20.467  0.00  0.00    +0.000 A 
ATOM     23  H   UNL     1      -1.215  10.744  22.480  0.00  0.00    +0.000 HD
ENDROOT
BRANCH   1  25
ATOM     24  C   UNL     1       3.329   6.877  17.931  0.00  0.00    +0.000 C 
ATOM     25  C   UNL     1       2.265   7.486  18.838  0.00  0.00    +0.000 C 
ENDBRANCH   1  25
TORSDOF 1
ENDMDL
MODEL 9
REMARK VINA RESULT:      -6.0     10.267     11.945
REMARK  Name = 
REMARK  4 active torsions:
REMARK  status: ('A' for Active; 'I' for Inactive)
REMARK    1  A    between atoms: C_1  and  C_2
REMARK    2  A    between atoms: C_2  and  C_3
REMARK    3  A    between atoms: C_15  and  C_16
REMARK    4  A    between atoms: C_17  and  C_18
REMARK                            x       y       z     vdW  Elec       q    Type
REMARK                         _______ _______ _______ _____ _____    ______ ____
ROOT
ATOM      1  C   UNL     1       5.216  12.275  26.845  0.00  0.00    +0.000 C 
ATOM      2  O   UNL     1       4.533  13.248  27.172  0.00  0.00    +0.000 OA
ATOM      3  N   UNL     1       6.205  12.373  25.875  0.00  0.00    +0.000 N 
ATOM      4  C   UNL     1       6.626  13.704  25.473  0.00  0.00    +0.000 C 
ATOM      5  C   UNL     1       7.915  13.622  24.644  0.00  0.00    +0.000 C 
ATOM      6  C   UNL     1       7.609  12.933  23.268  0.00  0.00    +0.000 C 
ATOM      7  C   UNL     1       6.524  11.825  23.496  0.00  0.00    +0.000 C 
ATOM      8  C   UNL     1       6.578  11.300  24.954  0.00  0.00    +0.000 C 
ATOM      9  N   UNL     1       8.811  12.231  22.786  0.00  0.00    +0.000 N 
ATOM     10  C   UNL     1       9.482  12.671  21.636  0.00  0.00    +0.000 A 
ATOM     11  C   UNL     1      10.421  11.802  21.064  0.00  0.00    +0.000 A 
ATOM     12  C   UNL     1      11.275  12.229  20.055  0.00  0.00    +0.000 A 
ATOM     13  C   UNL     1      11.273  13.565  19.641  0.00  0.00    +0.000 A 
ATOM     14  C   UNL     1      12.333  13.983  18.649  0.00  0.00    +0.000 C 
ATOM     15  C   UNL     1      10.317  14.474  20.178  0.00  0.00    +0.000 A 
ATOM     16  C   UNL     1      10.368  15.908  19.718  0.00  0.00    +0.000 C 
ATOM     17  C   UNL     1       9.376  13.987  21.139  0.00  0.00    +0.000 A 
ATOM     18  N   UNL     1       8.215  14.690  21.586  0.00  0.00    +0.000 N 
ATOM     19  C   UNL     1       7.812  15.988  21.379  0.00  0.00    +0.000 A 
ATOM     20  C   UNL     1       6.522  16.152  21.827  0.00  0.00    +0.000 A 
ATOM     21  C   UNL     1       6.112  14.914  22.361  0.00  0.00    +0.000 A 
ATOM     22  C   UNL     1       7.227  14.091  22.371  0.00  0.00    +0.000 A 
ATOM     23  H   UNL     1       8.749  11.218  22.810  0.00  0.00    +0.000 HD
ENDROOT
BRANCH   1  25
ATOM     24  C   UNL     1       3.833  10.188  27.060  0.00  0.00    +0.000 C 
ATOM     25  C   UNL     1       5.073  10.932  27.543  0.00  0.00    +0.000 C 
ENDBRANCH   1  25
TORSDOF 1
ENDMDL
