MODEL 1
REMARK VINA RESULT:      -7.5      0.000      0.000
REMARK  Name = 
REMARK  5 active torsions:
REMARK  status: ('A' for Active; 'I' for Inactive)
REMARK    1  A    between atoms: C_1  and  N_2
REMARK    2  A    between atoms: N_2  and  C_3
REMARK    3  A    between atoms: N_2  and  C_4
REMARK    4  A    between atoms: C_4  and  C_5
REMARK    5  A    between atoms: C_5  and  N_6
REMARK                            x       y       z     vdW  Elec       q    Type
REMARK                         _______ _______ _______ _____ _____    ______ ____
ROOT
ATOM      1  N   UNL     1       3.471   7.242  17.437  0.00  0.00    +0.000 NA
ATOM      2  C   UNL     1       3.835   6.001  17.529  0.00  0.00    +0.000 C 
ATOM      3  C   UNL     1       3.129   4.960  18.316  0.00  0.00    +0.000 A 
ATOM      4  C   UNL     1       1.824   4.581  17.985  0.00  0.00    +0.000 A 
ATOM      5  C   UNL     1       1.165   3.634  18.764  0.00  0.00    +0.000 A 
ATOM      6  C   UNL     1       1.822   3.051  19.850  0.00  0.00    +0.000 A 
ATOM      7  C   UNL     1       3.140   3.403  20.151  0.00  0.00    +0.000 A 
ATOM      8  C   UNL     1       3.805   4.364  19.382  0.00  0.00    +0.000 A 
ATOM      9  C   UNL     1       5.238   4.742  19.621  0.00  0.00    +0.000 C 
ATOM     10  O   UNL     1       6.074   4.169  18.615  0.00  0.00    +0.000 OA
ATOM     11  C   UNL     1       6.024   4.698  17.351  0.00  0.00    +0.000 A 
ATOM     12  C   UNL     1       7.092   4.284  16.543  0.00  0.00    +0.000 A 
ATOM     13  C   UNL     1       7.213   4.725  15.224  0.00  0.00    +0.000 A 
ATOM     14  C   UNL     1       6.263   5.592  14.693  0.00  0.00    +0.000 A 
ATOM     15  C   UNL     1       5.193   6.011  15.481  0.00  0.00    +0.000 A 
ATOM     16  C   UNL     1       5.058   5.557  16.805  0.00  0.00    +0.000 A 
ENDROOT
BRANCH   1  17
ATOM     17  C   UNL     1       2.321   7.692  18.233  0.00  0.00    +0.000 C 
BRANCH  17  18
ATOM     18  C   UNL     1       1.935   9.133  17.858  0.00  0.00    +0.000 C 
BRANCH  18  20
ATOM     19  C   UNL     1      -0.123  10.230  18.473  0.00  0.00    +0.000 C 
ATOM     20  N   UNL     1       1.213   9.848  18.938  0.00  0.00    +0.000 NA
ATOM     21  C   UNL     1       1.095   9.043  20.155  0.00  0.00    +0.000 C 
ENDBRANCH  18  20
ENDBRANCH  17  18
ENDBRANCH   1  17
TORSDOF 3
ENDMDL
MODEL 2
REMARK VINA RESULT:      -7.3      2.126      5.525
REMARK  Name = 
REMARK  5 active torsions:
REMARK  status: ('A' for Active; 'I' for Inactive)
REMARK    1  A    between atoms: C_1  and  N_2
REMARK    2  A    between atoms: N_2  and  C_3
REMARK    3  A    between atoms: N_2  and  C_4
REMARK    4  A    between atoms: C_4  and  C_5
REMARK    5  A    between atoms: C_5  and  N_6
REMARK                            x       y       z     vdW  Elec       q    Type
REMARK                         _______ _______ _______ _____ _____    ______ ____
ROOT
ATOM      1  N   UNL     1       4.284   5.736  17.788  0.00  0.00    +0.000 NA
ATOM      2  C   UNL     1       3.088   5.850  18.274  0.00  0.00    +0.000 C 
ATOM      3  C   UNL     1       2.397   7.134  18.551  0.00  0.00    +0.000 A 
ATOM      4  C   UNL     1       2.085   8.013  17.509  0.00  0.00    +0.000 A 
ATOM      5  C   UNL     1       1.476   9.231  17.797  0.00  0.00    +0.000 A 
ATOM      6  C   UNL     1       1.156   9.551  19.118  0.00  0.00    +0.000 A 
ATOM      7  C   UNL     1       1.432   8.650  20.150  0.00  0.00    +0.000 A 
ATOM      8  C   UNL     1       2.056   7.430  19.871  0.00  0.00    +0.000 A 
ATOM      9  C   UNL     1       2.326   6.399  20.930  0.00  0.00    +0.000 C 
ATOM     10  O   UNL     1       1.403   5.317  20.809  0.00  0.00    +0.000 OA
ATOM     11  C   UNL     1       1.555   4.448  19.759  0.00  0.00    +0.000 A 
ATOM     12  C   UNL     1       0.814   3.268  19.915  0.00  0.00    +0.000 A 
ATOM     13  C   UNL     1       0.848   2.262  18.948  0.00  0.00    +0.000 A 
ATOM     14  C   UNL     1       1.628   2.421  17.808  0.00  0.00    +0.000 A 
ATOM     15  C   UNL     1       2.368   3.589  17.635  0.00  0.00    +0.000 A 
ATOM     16  C   UNL     1       2.326   4.613  18.597  0.00  0.00    +0.000 A 
ENDROOT
BRANCH   1  17
ATOM     17  C   UNL     1       5.065   6.961  17.564  0.00  0.00    +0.000 C 
BRANCH  17  18
ATOM     18  C   UNL     1       6.479   6.617  17.066  0.00  0.00    +0.000 C 
BRANCH  18  20
ATOM     19  C   UNL     1       7.034   4.959  15.405  0.00  0.00    +0.000 C 
ATOM     20  N   UNL     1       6.676   5.170  16.810  0.00  0.00    +0.000 NA
ATOM     21  C   UNL     1       7.709   4.589  17.670  0.00  0.00    +0.000 C 
ENDBRANCH  18  20
ENDBRANCH  17  18
ENDBRANCH   1  17
TORSDOF 3
ENDMDL
MODEL 3
REMARK VINA RESULT:      -7.3      2.290      5.341
REMARK  Name = 
REMARK  5 active torsions:
REMARK  status: ('A' for Active; 'I' for Inactive)
REMARK    1  A    between atoms: C_1  and  N_2
REMARK    2  A    between atoms: N_2  and  C_3
REMARK    3  A    between atoms: N_2  and  C_4
REMARK    4  A    between atoms: C_4  and  C_5
REMARK    5  A    between atoms: C_5  and  N_6
REMARK                            x       y       z     vdW  Elec       q    Type
REMARK                         _______ _______ _______ _____ _____    ______ ____
ROOT
ATOM      1  N   UNL     1       4.402   5.630  17.887  0.00  0.00    +0.000 NA
ATOM      2  C   UNL     1       3.186   5.756  18.319  0.00  0.00    +0.000 C 
ATOM      3  C   UNL     1       2.494   7.048  18.556  0.00  0.00    +0.000 A 
ATOM      4  C   UNL     1       2.237   7.923  17.496  0.00  0.00    +0.000 A 
ATOM      5  C   UNL     1       1.626   9.148  17.750  0.00  0.00    +0.000 A 
ATOM      6  C   UNL     1       1.249   9.479  19.053  0.00  0.00    +0.000 A 
ATOM      7  C   UNL     1       1.471   8.582  20.101  0.00  0.00    +0.000 A 
ATOM      8  C   UNL     1       2.098   7.356  19.858  0.00  0.00    +0.000 A 
ATOM      9  C   UNL     1       2.311   6.329  20.934  0.00  0.00    +0.000 C 
ATOM     10  O   UNL     1       1.385   5.253  20.778  0.00  0.00    +0.000 OA
ATOM     11  C   UNL     1       1.576   4.377  19.741  0.00  0.00    +0.000 A 
ATOM     12  C   UNL     1       0.819   3.204  19.872  0.00  0.00    +0.000 A 
ATOM     13  C   UNL     1       0.887   2.191  18.913  0.00  0.00    +0.000 A 
ATOM     14  C   UNL     1       1.719   2.337  17.808  0.00  0.00    +0.000 A 
ATOM     15  C   UNL     1       2.476   3.498  17.661  0.00  0.00    +0.000 A 
ATOM     16  C   UNL     1       2.399   4.528  18.614  0.00  0.00    +0.000 A 
ENDROOT
BRANCH   1  17
ATOM     17  C   UNL     1       5.202   6.847  17.691  0.00  0.00    +0.000 C 
BRANCH  17  18
ATOM     18  C   UNL     1       6.443   6.545  16.834  0.00  0.00    +0.000 C 
BRANCH  18  20
ATOM     19  C   UNL     1       7.842   8.313  17.690  0.00  0.00    +0.000 C 
ATOM     20  N   UNL     1       7.720   6.863  17.517  0.00  0.00    +0.000 NA
ATOM     21  C   UNL     1       7.833   6.204  18.819  0.00  0.00    +0.000 C 
ENDBRANCH  18  20
ENDBRANCH  17  18
ENDBRANCH   1  17
TORSDOF 3
ENDMDL
MODEL 4
REMARK VINA RESULT:      -7.1      1.540      4.449
REMARK  Name = 
REMARK  5 active torsions:
REMARK  status: ('A' for Active; 'I' for Inactive)
REMARK    1  A    between atoms: C_1  and  N_2
REMARK    2  A    between atoms: N_2  and  C_3
REMARK    3  A    between atoms: N_2  and  C_4
REMARK    4  A    between atoms: C_4  and  C_5
REMARK    5  A    between atoms: C_5  and  N_6
REMARK                            x       y       z     vdW  Elec       q    Type
REMARK                         _______ _______ _______ _____ _____    ______ ____
ROOT
ATOM      1  N   UNL     1       2.505   6.773  18.778  0.00  0.00    +0.000 NA
ATOM      2  C   UNL     1       3.132   5.643  18.689  0.00  0.00    +0.000 C 
ATOM      3  C   UNL     1       4.301   5.381  17.813  0.00  0.00    +0.000 A 
ATOM      4  C   UNL     1       5.506   6.064  18.010  0.00  0.00    +0.000 A 
ATOM      5  C   UNL     1       6.575   5.834  17.149  0.00  0.00    +0.000 A 
ATOM      6  C   UNL     1       6.446   4.904  16.115  0.00  0.00    +0.000 A 
ATOM      7  C   UNL     1       5.254   4.195  15.949  0.00  0.00    +0.000 A 
ATOM      8  C   UNL     1       4.170   4.430  16.801  0.00  0.00    +0.000 A 
ATOM      9  C   UNL     1       2.885   3.658  16.706  0.00  0.00    +0.000 C 
ATOM     10  O   UNL     1       2.799   2.711  17.772  0.00  0.00    +0.000 OA
ATOM     11  C   UNL     1       2.561   3.178  19.038  0.00  0.00    +0.000 A 
ATOM     12  C   UNL     1       2.183   2.166  19.932  0.00  0.00    +0.000 A 
ATOM     13  C   UNL     1       1.895   2.454  21.267  0.00  0.00    +0.000 A 
ATOM     14  C   UNL     1       1.978   3.763  21.729  0.00  0.00    +0.000 A 
ATOM     15  C   UNL     1       2.355   4.781  20.855  0.00  0.00    +0.000 A 
ATOM     16  C   UNL     1       2.662   4.496  19.513  0.00  0.00    +0.000 A 
ENDROOT
BRANCH   1  17
ATOM     17  C   UNL     1       2.915   7.870  17.889  0.00  0.00    +0.000 C 
BRANCH  17  18
ATOM     18  C   UNL     1       1.758   8.863  17.687  0.00  0.00    +0.000 C 
BRANCH  18  20
ATOM     19  C   UNL     1       1.997  11.192  18.265  0.00  0.00    +0.000 C 
ATOM     20  N   UNL     1       1.645   9.864  18.775  0.00  0.00    +0.000 NA
ATOM     21  C   UNL     1       0.303   9.903  19.357  0.00  0.00    +0.000 C 
ENDBRANCH  18  20
ENDBRANCH  17  18
ENDBRANCH   1  17
TORSDOF 3
ENDMDL
MODEL 5
REMARK VINA RESULT:      -7.0      2.395      5.460
REMARK  Name = 
REMARK  5 active torsions:
REMARK  status: ('A' for Active; 'I' for Inactive)
REMARK    1  A    between atoms: C_1  and  N_2
REMARK    2  A    between atoms: N_2  and  C_3
REMARK    3  A    between atoms: N_2  and  C_4
REMARK    4  A    between atoms: C_4  and  C_5
REMARK    5  A    between atoms: C_5  and  N_6
REMARK                            x       y       z     vdW  Elec       q    Type
REMARK                         _______ _______ _______ _____ _____    ______ ____
ROOT
ATOM      1  N   UNL     1       5.086   4.642  19.147  0.00  0.00    +0.000 NA
ATOM      2  C   UNL     1       3.832   4.920  18.973  0.00  0.00    +0.000 C 
ATOM      3  C   UNL     1       3.281   6.280  18.753  0.00  0.00    +0.000 A 
ATOM      4  C   UNL     1       3.629   7.013  17.613  0.00  0.00    +0.000 A 
ATOM      5  C   UNL     1       3.134   8.304  17.449  0.00  0.00    +0.000 A 
ATOM      6  C   UNL     1       2.274   8.844  18.407  0.00  0.00    +0.000 A 
ATOM      7  C   UNL     1       1.898   8.092  19.523  0.00  0.00    +0.000 A 
ATOM      8  C   UNL     1       2.401   6.799  19.703  0.00  0.00    +0.000 A 
ATOM      9  C   UNL     1       1.988   5.923  20.851  0.00  0.00    +0.000 C 
ATOM     10  O   UNL     1       1.090   4.909  20.398  0.00  0.00    +0.000 OA
ATOM     11  C   UNL     1       1.598   3.882  19.645  0.00  0.00    +0.000 A 
ATOM     12  C   UNL     1       0.714   2.800  19.531  0.00  0.00    +0.000 A 
ATOM     13  C   UNL     1       1.060   1.659  18.804  0.00  0.00    +0.000 A 
ATOM     14  C   UNL     1       2.301   1.583  18.182  0.00  0.00    +0.000 A 
ATOM     15  C   UNL     1       3.191   2.651  18.282  0.00  0.00    +0.000 A 
ATOM     16  C   UNL     1       2.842   3.809  18.998  0.00  0.00    +0.000 A 
ENDROOT
BRANCH   1  17
ATOM     17  C   UNL     1       6.043   5.755  19.218  0.00  0.00    +0.000 C 
BRANCH  17  18
ATOM     18  C   UNL     1       7.371   5.369  18.544  0.00  0.00    +0.000 C 
BRANCH  18  20
ATOM     19  C   UNL     1       6.810   5.552  16.206  0.00  0.00    +0.000 C 
ATOM     20  N   UNL     1       7.629   6.110  17.286  0.00  0.00    +0.000 NA
ATOM     21  C   UNL     1       7.356   7.542  17.417  0.00  0.00    +0.000 C 
ENDBRANCH  18  20
ENDBRANCH  17  18
ENDBRANCH   1  17
TORSDOF 3
ENDMDL
MODEL 6
REMARK VINA RESULT:      -6.8      0.831      1.059
REMARK  Name = 
REMARK  5 active torsions:
REMARK  status: ('A' for Active; 'I' for Inactive)
REMARK    1  A    between atoms: C_1  and  N_2
REMARK    2  A    between atoms: N_2  and  C_3
REMARK    3  A    between atoms: N_2  and  C_4
REMARK    4  A    between atoms: C_4  and  C_5
REMARK    5  A    between atoms: C_5  and  N_6
REMARK                            x       y       z     vdW  Elec       q    Type
REMARK                         _______ _______ _______ _____ _____    ______ ____
ROOT
ATOM      1  N   UNL     1       3.120   6.882  18.423  0.00  0.00    +0.000 NA
ATOM      2  C   UNL     1       3.508   5.677  18.148  0.00  0.00    +0.000 C 
ATOM      3  C   UNL     1       2.825   4.437  18.594  0.00  0.00    +0.000 A 
ATOM      4  C   UNL     1       1.526   4.146  18.164  0.00  0.00    +0.000 A 
ATOM      5  C   UNL     1       0.890   2.999  18.630  0.00  0.00    +0.000 A 
ATOM      6  C   UNL     1       1.562   2.136  19.499  0.00  0.00    +0.000 A 
ATOM      7  C   UNL     1       2.874   2.411  19.891  0.00  0.00    +0.000 A 
ATOM      8  C   UNL     1       3.517   3.569  19.439  0.00  0.00    +0.000 A 
ATOM      9  C   UNL     1       4.944   3.887  19.781  0.00  0.00    +0.000 C 
ATOM     10  O   UNL     1       5.786   3.651  18.652  0.00  0.00    +0.000 OA
ATOM     11  C   UNL     1       5.720   4.526  17.599  0.00  0.00    +0.000 A 
ATOM     12  C   UNL     1       6.793   4.388  16.707  0.00  0.00    +0.000 A 
ATOM     13  C   UNL     1       6.899   5.199  15.575  0.00  0.00    +0.000 A 
ATOM     14  C   UNL     1       5.931   6.164  15.320  0.00  0.00    +0.000 A 
ATOM     15  C   UNL     1       4.856   6.313  16.194  0.00  0.00    +0.000 A 
ATOM     16  C   UNL     1       4.736   5.489  17.327  0.00  0.00    +0.000 A 
ENDROOT
BRANCH   1  17
ATOM     17  C   UNL     1       1.964   7.056  19.313  0.00  0.00    +0.000 C 
BRANCH  17  18
ATOM     18  C   UNL     1       1.808   8.534  19.714  0.00  0.00    +0.000 C 
BRANCH  18  20
ATOM     19  C   UNL     1       0.067  10.165  19.363  0.00  0.00    +0.000 C 
ATOM     20  N   UNL     1       1.085   9.343  18.703  0.00  0.00    +0.000 NA
ATOM     21  C   UNL     1       1.985  10.203  17.933  0.00  0.00    +0.000 C 
ENDBRANCH  18  20
ENDBRANCH  17  18
ENDBRANCH   1  17
TORSDOF 3
ENDMDL
MODEL 7
REMARK VINA RESULT:      -6.5      6.777      8.056
REMARK  Name = 
REMARK  5 active torsions:
REMARK  status: ('A' for Active; 'I' for Inactive)
REMARK    1  A    between atoms: C_1  and  N_2
REMARK    2  A    between atoms: N_2  and  C_3
REMARK    3  A    between atoms: N_2  and  C_4
REMARK    4  A    between atoms: C_4  and  C_5
REMARK    5  A    between atoms: C_5  and  N_6
REMARK                            x       y       z     vdW  Elec       q    Type
REMARK                         _______ _______ _______ _____ _____    ______ ____
ROOT
ATOM      1  N   UNL     1      -0.699  11.559  18.374  0.00  0.00    +0.000 NA
ATOM      2  C   UNL     1       0.033  11.622  19.442  0.00  0.00    +0.000 C 
ATOM      3  C   UNL     1      -0.142  10.775  20.648  0.00  0.00    +0.000 A 
ATOM      4  C   UNL     1       0.034   9.389  20.577  0.00  0.00    +0.000 A 
ATOM      5  C   UNL     1      -0.178   8.610  21.710  0.00  0.00    +0.000 A 
ATOM      6  C   UNL     1      -0.536   9.220  22.915  0.00  0.00    +0.000 A 
ATOM      7  C   UNL     1      -0.670  10.609  22.990  0.00  0.00    +0.000 A 
ATOM      8  C   UNL     1      -0.473  11.398  21.852  0.00  0.00    +0.000 A 
ATOM      9  C   UNL     1      -0.547  12.898  21.885  0.00  0.00    +0.000 C 
ATOM     10  O   UNL     1       0.765  13.457  21.818  0.00  0.00    +0.000 OA
ATOM     11  C   UNL     1       1.434  13.400  20.622  0.00  0.00    +0.000 A 
ATOM     12  C   UNL     1       2.553  14.245  20.581  0.00  0.00    +0.000 A 
ATOM     13  C   UNL     1       3.355  14.325  19.442  0.00  0.00    +0.000 A 
ATOM     14  C   UNL     1       3.048  13.560  18.322  0.00  0.00    +0.000 A 
ATOM     15  C   UNL     1       1.941  12.713  18.346  0.00  0.00    +0.000 A 
ATOM     16  C   UNL     1       1.139  12.616  19.496  0.00  0.00    +0.000 A 
ENDROOT
BRANCH   1  17
ATOM     17  C   UNL     1      -1.848  10.643  18.369  0.00  0.00    +0.000 C 
BRANCH  17  18
ATOM     18  C   UNL     1      -2.031  10.014  16.977  0.00  0.00    +0.000 C 
BRANCH  18  20
ATOM     19  C   UNL     1      -2.936  10.195  14.749  0.00  0.00    +0.000 C 
ATOM     20  N   UNL     1      -2.758  10.889  16.027  0.00  0.00    +0.000 NA
ATOM     21  C   UNL     1      -4.064  11.306  16.543  0.00  0.00    +0.000 C 
ENDBRANCH  18  20
ENDBRANCH  17  18
ENDBRANCH   1  17
TORSDOF 3
ENDMDL
MODEL 8
REMARK VINA RESULT:      -6.5      2.877      6.259
REMARK  Name = 
REMARK  5 active torsions:
REMARK  status: ('A' for Active; 'I' for Inactive)
REMARK    1  A    between atoms: C_1  and  N_2
REMARK    2  A    between atoms: N_2  and  C_3
REMARK    3  A    between atoms: N_2  and  C_4
REMARK    4  A    between atoms: C_4  and  C_5
REMARK    5  A    between atoms: C_5  and  N_6
REMARK                            x       y       z     vdW  Elec       q    Type
REMARK                         _______ _______ _______ _____ _____    ______ ____
ROOT
ATOM      1  N   UNL     1       4.839   4.570  15.723  0.00  0.00    +0.000 NA
ATOM      2  C   UNL     1       4.935   5.016  16.936  0.00  0.00    +0.000 C 
ATOM      3  C   UNL     1       6.025   5.887  17.442  0.00  0.00    +0.000 A 
ATOM      4  C   UNL     1       6.204   7.175  16.925  0.00  0.00    +0.000 A 
ATOM      5  C   UNL     1       7.260   7.958  17.384  0.00  0.00    +0.000 A 
ATOM      6  C   UNL     1       8.112   7.463  18.374  0.00  0.00    +0.000 A 
ATOM      7  C   UNL     1       7.902   6.193  18.915  0.00  0.00    +0.000 A 
ATOM      8  C   UNL     1       6.852   5.394  18.451  0.00  0.00    +0.000 A 
ATOM      9  C   UNL     1       6.544   4.044  19.034  0.00  0.00    +0.000 C 
ATOM     10  O   UNL     1       5.381   4.118  19.859  0.00  0.00    +0.000 OA
ATOM     11  C   UNL     1       4.161   4.264  19.250  0.00  0.00    +0.000 A 
ATOM     12  C   UNL     1       3.086   4.006  20.112  0.00  0.00    +0.000 A 
ATOM     13  C   UNL     1       1.766   4.099  19.668  0.00  0.00    +0.000 A 
ATOM     14  C   UNL     1       1.502   4.450  18.348  0.00  0.00    +0.000 A 
ATOM     15  C   UNL     1       2.558   4.713  17.478  0.00  0.00    +0.000 A 
ATOM     16  C   UNL     1       3.889   4.636  17.924  0.00  0.00    +0.000 A 
ENDROOT
BRANCH   1  17
ATOM     17  C   UNL     1       5.927   4.870  14.782  0.00  0.00    +0.000 C 
BRANCH  17  18
ATOM     18  C   UNL     1       6.289   3.622  13.958  0.00  0.00    +0.000 C 
BRANCH  18  20
ATOM     19  C   UNL     1       7.306   4.350  11.897  0.00  0.00    +0.000 C 
ATOM     20  N   UNL     1       6.089   3.802  12.500  0.00  0.00    +0.000 NA
ATOM     21  C   UNL     1       5.732   2.551  11.829  0.00  0.00    +0.000 C 
ENDBRANCH  18  20
ENDBRANCH  17  18
ENDBRANCH   1  17
TORSDOF 3
ENDMDL
MODEL 9
REMARK VINA RESULT:      -6.4      4.598      7.690
REMARK  Name = 
REMARK  5 active torsions:
REMARK  status: ('A' for Active; 'I' for Inactive)
REMARK    1  A    between atoms: C_1  and  N_2
REMARK    2  A    between atoms: N_2  and  C_3
REMARK    3  A    between atoms: N_2  and  C_4
REMARK    4  A    between atoms: C_4  and  C_5
REMARK    5  A    between atoms: C_5  and  N_6
REMARK                            x       y       z     vdW  Elec       q    Type
REMARK                         _______ _______ _______ _____ _____    ______ ____
ROOT
ATOM      1  N   UNL     1      -1.144  11.180  17.928  0.00  0.00    +0.000 NA
ATOM      2  C   UNL     1      -0.099  11.135  18.694  0.00  0.00    +0.000 C 
ATOM      3  C   UNL     1       0.712   9.921  18.961  0.00  0.00    +0.000 A 
ATOM      4  C   UNL     1       1.411   9.290  17.926  0.00  0.00    +0.000 A 
ATOM      5  C   UNL     1       2.129   8.128  18.191  0.00  0.00    +0.000 A 
ATOM      6  C   UNL     1       2.171   7.619  19.490  0.00  0.00    +0.000 A 
ATOM      7  C   UNL     1       1.505   8.276  20.528  0.00  0.00    +0.000 A 
ATOM      8  C   UNL     1       0.769   9.437  20.268  0.00  0.00    +0.000 A 
ATOM      9  C   UNL     1       0.080  10.217  21.351  0.00  0.00    +0.000 C 
ATOM     10  O   UNL     1       0.808  11.413  21.635  0.00  0.00    +0.000 OA
ATOM     11  C   UNL     1       0.770  12.430  20.716  0.00  0.00    +0.000 A 
ATOM     12  C   UNL     1       1.239  13.647  21.229  0.00  0.00    +0.000 A 
ATOM     13  C   UNL     1       1.270  14.798  20.440  0.00  0.00    +0.000 A 
ATOM     14  C   UNL     1       0.828  14.749  19.123  0.00  0.00    +0.000 A 
ATOM     15  C   UNL     1       0.360  13.546  18.596  0.00  0.00    +0.000 A 
ATOM     16  C   UNL     1       0.342  12.380  19.380  0.00  0.00    +0.000 A 
ENDROOT
BRANCH   1  17
ATOM     17  C   UNL     1      -1.627   9.927  17.334  0.00  0.00    +0.000 C 
BRANCH  17  18
ATOM     18  C   UNL     1      -3.151   9.800  17.505  0.00  0.00    +0.000 C 
BRANCH  18  20
ATOM     19  C   UNL     1      -4.522  11.636  16.753  0.00  0.00    +0.000 C 
ATOM     20  N   UNL     1      -3.919  10.358  16.366  0.00  0.00    +0.000 NA
ATOM     21  C   UNL     1      -3.089  10.549  15.176  0.00  0.00    +0.000 C 
ENDBRANCH  18  20
ENDBRANCH  17  18
ENDBRANCH   1  17
TORSDOF 3
ENDMDL
