MODEL 1
REMARK VINA RESULT:      -8.7      0.000      0.000
REMARK  Name = 
REMARK  3 active torsions:
REMARK  status: ('A' for Active; 'I' for Inactive)
REMARK    1  A    between atoms: C_2  and  C_3
REMARK    2  A    between atoms: C_15  and  C_16
REMARK    3  A    between atoms: C_19  and  N_20
REMARK                            x       y       z     vdW  Elec       q    Type
REMARK                         _______ _______ _______ _____ _____    ______ ____
ROOT
ATOM      1  C   UNL     1       2.550   4.034  18.461  0.00  0.00    +0.000 A 
ATOM      2  C   UNL     1       3.093   2.842  17.964  0.00  0.00    +0.000 A 
ATOM      3  N   UNL     1       2.739   1.594  18.465  0.00  0.00    +0.000 N 
ATOM      4  N   UNL     1       4.074   2.821  17.053  0.00  0.00    +0.000 NA
ATOM      5  C   UNL     1       4.576   4.003  16.645  0.00  0.00    +0.000 A 
ATOM      6  N   UNL     1       5.563   3.900  15.668  0.00  0.00    +0.000 N 
ATOM      7  C   UNL     1       6.154   4.972  15.096  0.00  0.00    +0.000 A 
ATOM      8  S   UNL     1       7.309   4.805  13.910  0.00  0.00    +0.000 S 
ATOM      9  N   UNL     1       5.770   6.193  15.543  0.00  0.00    +0.000 N 
ATOM     10  C   UNL     1       4.978   6.403  16.651  0.00  0.00    +0.000 A 
ATOM     11  O   UNL     1       5.034   7.488  17.215  0.00  0.00    +0.000 OA
ATOM     12  C   UNL     1       4.169   5.243  17.135  0.00  0.00    +0.000 A 
ATOM     13  C   UNL     1       3.090   5.292  18.063  0.00  0.00    +0.000 A 
ATOM     14  H   UNL     1       1.745   1.430  18.591  0.00  0.00    +0.000 HD
ATOM     15  H   UNL     1       3.199   0.863  17.928  0.00  0.00    +0.000 HD
ATOM     16  H   UNL     1       5.813   2.968  15.370  0.00  0.00    +0.000 HD
ATOM     17  H   UNL     1       6.292   6.997  15.217  0.00  0.00    +0.000 HD
ENDROOT
BRANCH  13  18
ATOM     18  C   UNL     1       2.531   6.570  18.597  0.00  0.00    +0.000 A 
ATOM     19  C   UNL     1       2.425   6.806  19.974  0.00  0.00    +0.000 A 
ATOM     20  C   UNL     1       1.760   7.929  20.468  0.00  0.00    +0.000 A 
ATOM     21  C   UNL     1       1.289   8.936  19.622  0.00  0.00    +0.000 A 
ATOM     22  C   UNL     1       1.519   8.786  18.261  0.00  0.00    +0.000 A 
ATOM     23  C   UNL     1       2.072   7.602  17.757  0.00  0.00    +0.000 A 
BRANCH  21  24
ATOM     24  N   UNL     1       0.633  10.018  20.169  0.00  0.00    +0.000 N 
ATOM     25  C   UNL     1       0.745  10.345  21.585  0.00  0.00    +0.000 C 
ATOM     26  C   UNL     1      -0.597  10.940  22.017  0.00  0.00    +0.000 C 
ATOM     27  C   UNL     1      -1.023  12.108  21.119  0.00  0.00    +0.000 C 
ATOM     28  C   UNL     1      -0.953  11.746  19.632  0.00  0.00    +0.000 C 
ATOM     29  C   UNL     1       0.411  11.164  19.284  0.00  0.00    +0.000 C 
ENDBRANCH  21  24
ENDBRANCH  13  18
BRANCH   1  31
ATOM     30  N   UNL     1       0.549   3.772  20.105  0.00  0.00    +0.000 NA
ATOM     31  C   UNL     1       1.428   3.904  19.350  0.00  0.00    +0.000 C 
ENDBRANCH   1  31
TORSDOF 3
ENDMDL
MODEL 2
REMARK VINA RESULT:      -8.5      0.607      1.383
REMARK  Name = 
REMARK  3 active torsions:
REMARK  status: ('A' for Active; 'I' for Inactive)
REMARK    1  A    between atoms: C_2  and  C_3
REMARK    2  A    between atoms: C_15  and  C_16
REMARK    3  A    between atoms: C_19  and  N_20
REMARK                            x       y       z     vdW  Elec       q    Type
REMARK                         _______ _______ _______ _____ _____    ______ ____
ROOT
ATOM      1  C   UNL     1       2.571   3.995  18.467  0.00  0.00    +0.000 A 
ATOM      2  C   UNL     1       3.175   2.817  18.007  0.00  0.00    +0.000 A 
ATOM      3  N   UNL     1       2.871   1.567  18.534  0.00  0.00    +0.000 N 
ATOM      4  N   UNL     1       4.168   2.819  17.109  0.00  0.00    +0.000 NA
ATOM      5  C   UNL     1       4.621   4.012  16.678  0.00  0.00    +0.000 A 
ATOM      6  N   UNL     1       5.626   3.930  15.717  0.00  0.00    +0.000 N 
ATOM      7  C   UNL     1       6.175   5.014  15.125  0.00  0.00    +0.000 A 
ATOM      8  S   UNL     1       7.353   4.870  13.959  0.00  0.00    +0.000 S 
ATOM      9  N   UNL     1       5.730   6.226  15.536  0.00  0.00    +0.000 N 
ATOM     10  C   UNL     1       4.914   6.428  16.629  0.00  0.00    +0.000 A 
ATOM     11  O   UNL     1       4.913   7.527  17.165  0.00  0.00    +0.000 OA
ATOM     12  C   UNL     1       4.152   5.243  17.131  0.00  0.00    +0.000 A 
ATOM     13  C   UNL     1       3.059   5.267  18.044  0.00  0.00    +0.000 A 
ATOM     14  H   UNL     1       1.884   1.361  18.652  0.00  0.00    +0.000 HD
ATOM     15  H   UNL     1       3.371   0.845  18.022  0.00  0.00    +0.000 HD
ATOM     16  H   UNL     1       5.922   3.004  15.445  0.00  0.00    +0.000 HD
ATOM     17  H   UNL     1       6.220   7.046  15.196  0.00  0.00    +0.000 HD
ENDROOT
BRANCH  13  18
ATOM     18  C   UNL     1       2.435   6.530  18.539  0.00  0.00    +0.000 A 
ATOM     19  C   UNL     1       1.932   7.495  17.657  0.00  0.00    +0.000 A 
ATOM     20  C   UNL     1       1.496   8.739  18.114  0.00  0.00    +0.000 A 
ATOM     21  C   UNL     1       1.414   9.033  19.477  0.00  0.00    +0.000 A 
ATOM     22  C   UNL     1       1.771   8.031  20.370  0.00  0.00    +0.000 A 
ATOM     23  C   UNL     1       2.326   6.831  19.909  0.00  0.00    +0.000 A 
BRANCH  21  24
ATOM     24  N   UNL     1       0.982  10.283  19.868  0.00  0.00    +0.000 N 
ATOM     25  C   UNL     1       1.293  11.477  19.092  0.00  0.00    +0.000 C 
ATOM     26  C   UNL     1       1.454  12.631  20.085  0.00  0.00    +0.000 C 
ATOM     27  C   UNL     1       0.239  12.763  21.012  0.00  0.00    +0.000 C 
ATOM     28  C   UNL     1      -0.136  11.429  21.664  0.00  0.00    +0.000 C 
ATOM     29  C   UNL     1      -0.279  10.337  20.611  0.00  0.00    +0.000 C 
ENDBRANCH  21  24
ENDBRANCH  13  18
BRANCH   1  31
ATOM     30  N   UNL     1       0.559   3.674  20.087  0.00  0.00    +0.000 NA
ATOM     31  C   UNL     1       1.444   3.836  19.345  0.00  0.00    +0.000 C 
ENDBRANCH   1  31
TORSDOF 3
ENDMDL
MODEL 3
REMARK VINA RESULT:      -8.5      0.483      1.053
REMARK  Name = 
REMARK  3 active torsions:
REMARK  status: ('A' for Active; 'I' for Inactive)
REMARK    1  A    between atoms: C_2  and  C_3
REMARK    2  A    between atoms: C_15  and  C_16
REMARK    3  A    between atoms: C_19  and  N_20
REMARK                            x       y       z     vdW  Elec       q    Type
REMARK                         _______ _______ _______ _____ _____    ______ ____
ROOT
ATOM      1  C   UNL     1       2.552   4.015  18.483  0.00  0.00    +0.000 A 
ATOM      2  C   UNL     1       3.151   2.831  18.034  0.00  0.00    +0.000 A 
ATOM      3  N   UNL     1       2.845   1.587  18.576  0.00  0.00    +0.000 N 
ATOM      4  N   UNL     1       4.143   2.820  17.134  0.00  0.00    +0.000 NA
ATOM      5  C   UNL     1       4.598   4.007  16.689  0.00  0.00    +0.000 A 
ATOM      6  N   UNL     1       5.600   3.912  15.727  0.00  0.00    +0.000 N 
ATOM      7  C   UNL     1       6.151   4.987  15.122  0.00  0.00    +0.000 A 
ATOM      8  S   UNL     1       7.326   4.828  13.955  0.00  0.00    +0.000 S 
ATOM      9  N   UNL     1       5.710   6.206  15.521  0.00  0.00    +0.000 N 
ATOM     10  C   UNL     1       4.897   6.421  16.612  0.00  0.00    +0.000 A 
ATOM     11  O   UNL     1       4.899   7.527  17.137  0.00  0.00    +0.000 OA
ATOM     12  C   UNL     1       4.133   5.245  17.130  0.00  0.00    +0.000 A 
ATOM     13  C   UNL     1       3.042   5.281  18.044  0.00  0.00    +0.000 A 
ATOM     14  H   UNL     1       1.858   1.385  18.698  0.00  0.00    +0.000 HD
ATOM     15  H   UNL     1       3.342   0.859  18.071  0.00  0.00    +0.000 HD
ATOM     16  H   UNL     1       5.894   2.982  15.465  0.00  0.00    +0.000 HD
ATOM     17  H   UNL     1       6.201   7.020  15.171  0.00  0.00    +0.000 HD
ENDROOT
BRANCH  13  18
ATOM     18  C   UNL     1       2.423   6.552  18.527  0.00  0.00    +0.000 A 
ATOM     19  C   UNL     1       1.902   7.498  17.636  0.00  0.00    +0.000 A 
ATOM     20  C   UNL     1       1.469   8.749  18.078  0.00  0.00    +0.000 A 
ATOM     21  C   UNL     1       1.408   9.068  19.436  0.00  0.00    +0.000 A 
ATOM     22  C   UNL     1       1.783   8.083  20.341  0.00  0.00    +0.000 A 
ATOM     23  C   UNL     1       2.335   6.877  19.893  0.00  0.00    +0.000 A 
BRANCH  21  24
ATOM     24  N   UNL     1       0.979  10.323  19.812  0.00  0.00    +0.000 N 
ATOM     25  C   UNL     1       0.781  10.675  21.213  0.00  0.00    +0.000 C 
ATOM     26  C   UNL     1      -0.387  11.663  21.268  0.00  0.00    +0.000 C 
ATOM     27  C   UNL     1      -0.176  12.855  20.327  0.00  0.00    +0.000 C 
ATOM     28  C   UNL     1       0.197  12.412  18.910  0.00  0.00    +0.000 C 
ATOM     29  C   UNL     1       1.366  11.436  18.942  0.00  0.00    +0.000 C 
ENDBRANCH  21  24
ENDBRANCH  13  18
BRANCH   1  31
ATOM     30  N   UNL     1       0.538   3.708  20.103  0.00  0.00    +0.000 NA
ATOM     31  C   UNL     1       1.426   3.869  19.365  0.00  0.00    +0.000 C 
ENDBRANCH   1  31
TORSDOF 3
ENDMDL
MODEL 4
REMARK VINA RESULT:      -7.7      2.973      7.573
REMARK  Name = 
REMARK  3 active torsions:
REMARK  status: ('A' for Active; 'I' for Inactive)
REMARK    1  A    between atoms: C_2  and  C_3
REMARK    2  A    between atoms: C_15  and  C_16
REMARK    3  A    between atoms: C_19  and  N_20
REMARK                            x       y       z     vdW  Elec       q    Type
REMARK                         _______ _______ _______ _____ _____    ______ ____
ROOT
ATOM      1  C   UNL     1       3.212   4.028  19.923  0.00  0.00    +0.000 A 
ATOM      2  C   UNL     1       2.487   4.102  21.120  0.00  0.00    +0.000 A 
ATOM      3  N   UNL     1       2.251   2.990  21.921  0.00  0.00    +0.000 N 
ATOM      4  N   UNL     1       1.870   5.221  21.521  0.00  0.00    +0.000 NA
ATOM      5  C   UNL     1       1.924   6.293  20.707  0.00  0.00    +0.000 A 
ATOM      6  N   UNL     1       1.294   7.428  21.212  0.00  0.00    +0.000 N 
ATOM      7  C   UNL     1       1.281   8.616  20.569  0.00  0.00    +0.000 A 
ATOM      8  S   UNL     1       0.543   9.956  21.221  0.00  0.00    +0.000 S 
ATOM      9  N   UNL     1       1.888   8.662  19.357  0.00  0.00    +0.000 N 
ATOM     10  C   UNL     1       2.338   7.556  18.668  0.00  0.00    +0.000 A 
ATOM     11  O   UNL     1       2.472   7.635  17.455  0.00  0.00    +0.000 OA
ATOM     12  C   UNL     1       2.545   6.304  19.460  0.00  0.00    +0.000 A 
ATOM     13  C   UNL     1       3.254   5.144  19.036  0.00  0.00    +0.000 A 
ATOM     14  H   UNL     1       3.053   2.395  22.104  0.00  0.00    +0.000 HD
ATOM     15  H   UNL     1       1.761   3.270  22.766  0.00  0.00    +0.000 HD
ATOM     16  H   UNL     1       0.857   7.341  22.118  0.00  0.00    +0.000 HD
ATOM     17  H   UNL     1       1.777   9.506  18.808  0.00  0.00    +0.000 HD
ENDROOT
BRANCH  13  18
ATOM     18  C   UNL     1       4.010   5.073  17.750  0.00  0.00    +0.000 A 
ATOM     19  C   UNL     1       3.627   4.206  16.720  0.00  0.00    +0.000 A 
ATOM     20  C   UNL     1       4.424   4.028  15.588  0.00  0.00    +0.000 A 
ATOM     21  C   UNL     1       5.565   4.800  15.364  0.00  0.00    +0.000 A 
ATOM     22  C   UNL     1       5.876   5.770  16.308  0.00  0.00    +0.000 A 
ATOM     23  C   UNL     1       5.150   5.861  17.502  0.00  0.00    +0.000 A 
BRANCH  21  24
ATOM     24  N   UNL     1       6.317   4.573  14.230  0.00  0.00    +0.000 N 
ATOM     25  C   UNL     1       7.653   5.135  14.074  0.00  0.00    +0.000 C 
ATOM     26  C   UNL     1       7.843   5.438  12.586  0.00  0.00    +0.000 C 
ATOM     27  C   UNL     1       7.551   4.214  11.709  0.00  0.00    +0.000 C 
ATOM     28  C   UNL     1       6.202   3.572  12.045  0.00  0.00    +0.000 C 
ATOM     29  C   UNL     1       6.094   3.300  13.540  0.00  0.00    +0.000 C 
ENDBRANCH  21  24
ENDBRANCH  13  18
BRANCH   1  31
ATOM     30  N   UNL     1       4.487   1.794  19.526  0.00  0.00    +0.000 NA
ATOM     31  C   UNL     1       3.913   2.798  19.675  0.00  0.00    +0.000 C 
ENDBRANCH   1  31
TORSDOF 3
ENDMDL
MODEL 5
REMARK VINA RESULT:      -7.6      4.393      9.014
REMARK  Name = 
REMARK  3 active torsions:
REMARK  status: ('A' for Active; 'I' for Inactive)
REMARK    1  A    between atoms: C_2  and  C_3
REMARK    2  A    between atoms: C_15  and  C_16
REMARK    3  A    between atoms: C_19  and  N_20
REMARK                            x       y       z     vdW  Elec       q    Type
REMARK                         _______ _______ _______ _____ _____    ______ ____
ROOT
ATOM      1  C   UNL     1      -2.146  10.951  18.564  0.00  0.00    +0.000 A 
ATOM      2  C   UNL     1      -3.207  11.849  18.733  0.00  0.00    +0.000 A 
ATOM      3  N   UNL     1      -4.190  12.034  17.767  0.00  0.00    +0.000 N 
ATOM      4  N   UNL     1      -3.291  12.678  19.782  0.00  0.00    +0.000 NA
ATOM      5  C   UNL     1      -2.282  12.662  20.674  0.00  0.00    +0.000 A 
ATOM      6  N   UNL     1      -2.461  13.521  21.757  0.00  0.00    +0.000 N 
ATOM      7  C   UNL     1      -1.586  13.613  22.782  0.00  0.00    +0.000 A 
ATOM      8  S   UNL     1      -1.853  14.630  24.071  0.00  0.00    +0.000 S 
ATOM      9  N   UNL     1      -0.471  12.846  22.705  0.00  0.00    +0.000 N 
ATOM     10  C   UNL     1      -0.086  12.140  21.585  0.00  0.00    +0.000 A 
ATOM     11  O   UNL     1       1.093  11.840  21.457  0.00  0.00    +0.000 OA
ATOM     12  C   UNL     1      -1.141  11.871  20.560  0.00  0.00    +0.000 A 
ATOM     13  C   UNL     1      -1.056  10.943  19.483  0.00  0.00    +0.000 A 
ATOM     14  H   UNL     1      -4.586  11.190  17.366  0.00  0.00    +0.000 HD
ATOM     15  H   UNL     1      -4.895  12.681  18.111  0.00  0.00    +0.000 HD
ATOM     16  H   UNL     1      -3.308  14.071  21.766  0.00  0.00    +0.000 HD
ATOM     17  H   UNL     1       0.252  12.997  23.399  0.00  0.00    +0.000 HD
ENDROOT
BRANCH  13  18
ATOM     18  C   UNL     1       0.090  10.001  19.306  0.00  0.00    +0.000 A 
ATOM     19  C   UNL     1       0.907  10.044  18.169  0.00  0.00    +0.000 A 
ATOM     20  C   UNL     1       1.874   9.066  17.932  0.00  0.00    +0.000 A 
ATOM     21  C   UNL     1       2.166   8.079  18.875  0.00  0.00    +0.000 A 
ATOM     22  C   UNL     1       1.465   8.113  20.074  0.00  0.00    +0.000 A 
ATOM     23  C   UNL     1       0.410   9.015  20.258  0.00  0.00    +0.000 A 
BRANCH  21  24
ATOM     24  N   UNL     1       3.127   7.134  18.582  0.00  0.00    +0.000 N 
ATOM     25  C   UNL     1       3.111   5.812  19.197  0.00  0.00    +0.000 C 
ATOM     26  C   UNL     1       4.569   5.378  19.367  0.00  0.00    +0.000 C 
ATOM     27  C   UNL     1       5.352   5.469  18.051  0.00  0.00    +0.000 C 
ATOM     28  C   UNL     1       5.185   6.831  17.374  0.00  0.00    +0.000 C 
ATOM     29  C   UNL     1       3.710   7.188  17.240  0.00  0.00    +0.000 C 
ENDBRANCH  21  24
ENDBRANCH  13  18
BRANCH   1  31
ATOM     30  N   UNL     1      -2.361   9.345  16.526  0.00  0.00    +0.000 NA
ATOM     31  C   UNL     1      -2.244  10.047  17.450  0.00  0.00    +0.000 C 
ENDBRANCH   1  31
TORSDOF 3
ENDMDL
MODEL 6
REMARK VINA RESULT:      -7.4      4.296      9.001
REMARK  Name = 
REMARK  3 active torsions:
REMARK  status: ('A' for Active; 'I' for Inactive)
REMARK    1  A    between atoms: C_2  and  C_3
REMARK    2  A    between atoms: C_15  and  C_16
REMARK    3  A    between atoms: C_19  and  N_20
REMARK                            x       y       z     vdW  Elec       q    Type
REMARK                         _______ _______ _______ _____ _____    ______ ____
ROOT
ATOM      1  C   UNL     1      -2.098  10.905  18.484  0.00  0.00    +0.000 A 
ATOM      2  C   UNL     1      -3.142  11.820  18.669  0.00  0.00    +0.000 A 
ATOM      3  N   UNL     1      -4.143  12.014  17.723  0.00  0.00    +0.000 N 
ATOM      4  N   UNL     1      -3.192  12.656  19.714  0.00  0.00    +0.000 NA
ATOM      5  C   UNL     1      -2.164  12.631  20.585  0.00  0.00    +0.000 A 
ATOM      6  N   UNL     1      -2.308  13.499  21.666  0.00  0.00    +0.000 N 
ATOM      7  C   UNL     1      -1.410  13.585  22.671  0.00  0.00    +0.000 A 
ATOM      8  S   UNL     1      -1.634  14.614  23.959  0.00  0.00    +0.000 S 
ATOM      9  N   UNL     1      -0.308  12.800  22.576  0.00  0.00    +0.000 N 
ATOM     10  C   UNL     1       0.042  12.082  21.453  0.00  0.00    +0.000 A 
ATOM     11  O   UNL     1       1.214  11.763  21.302  0.00  0.00    +0.000 OA
ATOM     12  C   UNL     1      -1.038  11.822  20.452  0.00  0.00    +0.000 A 
ATOM     13  C   UNL     1      -0.989  10.886  19.379  0.00  0.00    +0.000 A 
ATOM     14  H   UNL     1      -4.560  11.173  17.336  0.00  0.00    +0.000 HD
ATOM     15  H   UNL     1      -4.830  12.673  18.078  0.00  0.00    +0.000 HD
ATOM     16  H   UNL     1      -3.146  14.062  21.690  0.00  0.00    +0.000 HD
ATOM     17  H   UNL     1       0.431  12.945  23.253  0.00  0.00    +0.000 HD
ENDROOT
BRANCH  13  18
ATOM     18  C   UNL     1       0.139   9.926  19.184  0.00  0.00    +0.000 A 
ATOM     19  C   UNL     1       0.927   9.946  18.027  0.00  0.00    +0.000 A 
ATOM     20  C   UNL     1       1.874   8.951  17.778  0.00  0.00    +0.000 A 
ATOM     21  C   UNL     1       2.175   7.970  18.724  0.00  0.00    +0.000 A 
ATOM     22  C   UNL     1       1.505   8.027  19.939  0.00  0.00    +0.000 A 
ATOM     23  C   UNL     1       0.468   8.946  20.139  0.00  0.00    +0.000 A 
BRANCH  21  24
ATOM     24  N   UNL     1       3.115   7.009  18.418  0.00  0.00    +0.000 N 
ATOM     25  C   UNL     1       4.264   7.305  17.570  0.00  0.00    +0.000 C 
ATOM     26  C   UNL     1       4.579   6.033  16.778  0.00  0.00    +0.000 C 
ATOM     27  C   UNL     1       4.751   4.815  17.694  0.00  0.00    +0.000 C 
ATOM     28  C   UNL     1       3.586   4.663  18.676  0.00  0.00    +0.000 C 
ATOM     29  C   UNL     1       3.339   5.967  19.423  0.00  0.00    +0.000 C 
ENDBRANCH  21  24
ENDBRANCH  13  18
BRANCH   1  31
ATOM     30  N   UNL     1      -2.390   9.281  16.470  0.00  0.00    +0.000 NA
ATOM     31  C   UNL     1      -2.234   9.995  17.379  0.00  0.00    +0.000 C 
ENDBRANCH   1  31
TORSDOF 3
ENDMDL
MODEL 7
REMARK VINA RESULT:      -7.3      4.127      9.062
REMARK  Name = 
REMARK  3 active torsions:
REMARK  status: ('A' for Active; 'I' for Inactive)
REMARK    1  A    between atoms: C_2  and  C_3
REMARK    2  A    between atoms: C_15  and  C_16
REMARK    3  A    between atoms: C_19  and  N_20
REMARK                            x       y       z     vdW  Elec       q    Type
REMARK                         _______ _______ _______ _____ _____    ______ ____
ROOT
ATOM      1  C   UNL     1       0.101  12.523  20.366  0.00  0.00    +0.000 A 
ATOM      2  C   UNL     1      -0.796  13.554  20.674  0.00  0.00    +0.000 A 
ATOM      3  N   UNL     1      -0.487  14.568  21.574  0.00  0.00    +0.000 N 
ATOM      4  N   UNL     1      -2.054  13.577  20.216  0.00  0.00    +0.000 NA
ATOM      5  C   UNL     1      -2.467  12.536  19.468  0.00  0.00    +0.000 A 
ATOM      6  N   UNL     1      -3.772  12.652  18.995  0.00  0.00    +0.000 N 
ATOM      7  C   UNL     1      -4.353  11.737  18.189  0.00  0.00    +0.000 A 
ATOM      8  S   UNL     1      -5.905  11.929  17.623  0.00  0.00    +0.000 S 
ATOM      9  N   UNL     1      -3.613  10.645  17.872  0.00  0.00    +0.000 N 
ATOM     10  C   UNL     1      -2.410  10.321  18.460  0.00  0.00    +0.000 A 
ATOM     11  O   UNL     1      -2.038   9.156  18.434  0.00  0.00    +0.000 OA
ATOM     12  C   UNL     1      -1.686  11.420  19.171  0.00  0.00    +0.000 A 
ATOM     13  C   UNL     1      -0.329  11.400  19.600  0.00  0.00    +0.000 A 
ATOM     14  H   UNL     1       0.425  15.000  21.464  0.00  0.00    +0.000 HD
ATOM     15  H   UNL     1      -1.247  15.243  21.608  0.00  0.00    +0.000 HD
ATOM     16  H   UNL     1      -4.280  13.484  19.260  0.00  0.00    +0.000 HD
ATOM     17  H   UNL     1      -4.076   9.893  17.375  0.00  0.00    +0.000 HD
ENDROOT
BRANCH  13  18
ATOM     18  C   UNL     1       0.612  10.286  19.277  0.00  0.00    +0.000 A 
ATOM     19  C   UNL     1       1.276  10.219  18.046  0.00  0.00    +0.000 A 
ATOM     20  C   UNL     1       2.028   9.100  17.687  0.00  0.00    +0.000 A 
ATOM     21  C   UNL     1       2.268   8.057  18.584  0.00  0.00    +0.000 A 
ATOM     22  C   UNL     1       1.738   8.179  19.862  0.00  0.00    +0.000 A 
ATOM     23  C   UNL     1       0.880   9.239  20.180  0.00  0.00    +0.000 A 
BRANCH  21  24
ATOM     24  N   UNL     1       3.013   6.974  18.169  0.00  0.00    +0.000 N 
ATOM     25  C   UNL     1       4.395   7.121  17.726  0.00  0.00    +0.000 C 
ATOM     26  C   UNL     1       4.630   6.075  16.633  0.00  0.00    +0.000 C 
ATOM     27  C   UNL     1       4.249   4.664  17.097  0.00  0.00    +0.000 C 
ATOM     28  C   UNL     1       2.846   4.618  17.709  0.00  0.00    +0.000 C 
ATOM     29  C   UNL     1       2.694   5.684  18.787  0.00  0.00    +0.000 C 
ENDBRANCH  21  24
ENDBRANCH  13  18
BRANCH   1  31
ATOM     30  N   UNL     1       2.528  12.860  21.246  0.00  0.00    +0.000 NA
ATOM     31  C   UNL     1       1.450  12.687  20.835  0.00  0.00    +0.000 C 
ENDBRANCH   1  31
TORSDOF 3
ENDMDL
MODEL 8
REMARK VINA RESULT:      -7.2      4.130      9.036
REMARK  Name = 
REMARK  3 active torsions:
REMARK  status: ('A' for Active; 'I' for Inactive)
REMARK    1  A    between atoms: C_2  and  C_3
REMARK    2  A    between atoms: C_15  and  C_16
REMARK    3  A    between atoms: C_19  and  N_20
REMARK                            x       y       z     vdW  Elec       q    Type
REMARK                         _______ _______ _______ _____ _____    ______ ____
ROOT
ATOM      1  C   UNL     1       0.114  12.516  20.377  0.00  0.00    +0.000 A 
ATOM      2  C   UNL     1      -0.777  13.554  20.679  0.00  0.00    +0.000 A 
ATOM      3  N   UNL     1      -0.464  14.570  21.576  0.00  0.00    +0.000 N 
ATOM      4  N   UNL     1      -2.034  13.583  20.218  0.00  0.00    +0.000 NA
ATOM      5  C   UNL     1      -2.452  12.541  19.473  0.00  0.00    +0.000 A 
ATOM      6  N   UNL     1      -3.755  12.663  18.997  0.00  0.00    +0.000 N 
ATOM      7  C   UNL     1      -4.339  11.748  18.192  0.00  0.00    +0.000 A 
ATOM      8  S   UNL     1      -5.888  11.947  17.621  0.00  0.00    +0.000 S 
ATOM      9  N   UNL     1      -3.606  10.651  17.882  0.00  0.00    +0.000 N 
ATOM     10  C   UNL     1      -2.406  10.322  18.475  0.00  0.00    +0.000 A 
ATOM     11  O   UNL     1      -2.042   9.154  18.454  0.00  0.00    +0.000 OA
ATOM     12  C   UNL     1      -1.677  11.419  19.183  0.00  0.00    +0.000 A 
ATOM     13  C   UNL     1      -0.321  11.392  19.616  0.00  0.00    +0.000 A 
ATOM     14  H   UNL     1       0.450  14.995  21.466  0.00  0.00    +0.000 HD
ATOM     15  H   UNL     1      -1.220  15.249  21.605  0.00  0.00    +0.000 HD
ATOM     16  H   UNL     1      -4.258  13.499  19.257  0.00  0.00    +0.000 HD
ATOM     17  H   UNL     1      -4.072   9.899  17.387  0.00  0.00    +0.000 HD
ENDROOT
BRANCH  13  18
ATOM     18  C   UNL     1       0.614  10.270  19.300  0.00  0.00    +0.000 A 
ATOM     19  C   UNL     1       1.271  10.188  18.066  0.00  0.00    +0.000 A 
ATOM     20  C   UNL     1       2.017   9.062  17.715  0.00  0.00    +0.000 A 
ATOM     21  C   UNL     1       2.257   8.028  18.622  0.00  0.00    +0.000 A 
ATOM     22  C   UNL     1       1.734   8.166  19.901  0.00  0.00    +0.000 A 
ATOM     23  C   UNL     1       0.882   9.232  20.212  0.00  0.00    +0.000 A 
BRANCH  21  24
ATOM     24  N   UNL     1       2.996   6.937  18.216  0.00  0.00    +0.000 N 
ATOM     25  C   UNL     1       2.399   5.612  18.094  0.00  0.00    +0.000 C 
ATOM     26  C   UNL     1       3.484   4.595  18.461  0.00  0.00    +0.000 C 
ATOM     27  C   UNL     1       4.765   4.803  17.644  0.00  0.00    +0.000 C 
ATOM     28  C   UNL     1       5.240   6.258  17.678  0.00  0.00    +0.000 C 
ATOM     29  C   UNL     1       4.107   7.203  17.299  0.00  0.00    +0.000 C 
ENDBRANCH  21  24
ENDBRANCH  13  18
BRANCH   1  31
ATOM     30  N   UNL     1       2.548  12.852  21.238  0.00  0.00    +0.000 NA
ATOM     31  C   UNL     1       1.463  12.673  20.850  0.00  0.00    +0.000 C 
ENDBRANCH   1  31
TORSDOF 3
ENDMDL
MODEL 9
REMARK VINA RESULT:      -7.0      4.263      9.056
REMARK  Name = 
REMARK  3 active torsions:
REMARK  status: ('A' for Active; 'I' for Inactive)
REMARK    1  A    between atoms: C_2  and  C_3
REMARK    2  A    between atoms: C_15  and  C_16
REMARK    3  A    between atoms: C_19  and  N_20
REMARK                            x       y       z     vdW  Elec       q    Type
REMARK                         _______ _______ _______ _____ _____    ______ ____
ROOT
ATOM      1  C   UNL     1      -2.054  11.403  19.062  0.00  0.00    +0.000 A 
ATOM      2  C   UNL     1      -2.979  12.427  19.306  0.00  0.00    +0.000 A 
ATOM      3  N   UNL     1      -4.210  12.492  18.662  0.00  0.00    +0.000 N 
ATOM      4  N   UNL     1      -2.700  13.479  20.086  0.00  0.00    +0.000 NA
ATOM      5  C   UNL     1      -1.462  13.559  20.611  0.00  0.00    +0.000 A 
ATOM      6  N   UNL     1      -1.263  14.659  21.444  0.00  0.00    +0.000 N 
ATOM      7  C   UNL     1      -0.107  14.888  22.103  0.00  0.00    +0.000 A 
ATOM      8  S   UNL     1       0.080  16.199  23.111  0.00  0.00    +0.000 S 
ATOM      9  N   UNL     1       0.902  14.006  21.895  0.00  0.00    +0.000 N 
ATOM     10  C   UNL     1       0.890  13.024  20.929  0.00  0.00    +0.000 A 
ATOM     11  O   UNL     1       1.959  12.575  20.536  0.00  0.00    +0.000 OA
ATOM     12  C   UNL     1      -0.442  12.642  20.367  0.00  0.00    +0.000 A 
ATOM     13  C   UNL     1      -0.731  11.488  19.585  0.00  0.00    +0.000 A 
ATOM     14  H   UNL     1      -4.739  11.626  18.625  0.00  0.00    +0.000 HD
ATOM     15  H   UNL     1      -4.749  13.273  19.025  0.00  0.00    +0.000 HD
ATOM     16  H   UNL     1      -2.045  15.286  21.565  0.00  0.00    +0.000 HD
ATOM     17  H   UNL     1       1.811  14.234  22.280  0.00  0.00    +0.000 HD
ENDROOT
BRANCH  13  18
ATOM     18  C   UNL     1       0.269  10.410  19.320  0.00  0.00    +0.000 A 
ATOM     19  C   UNL     1       0.966  10.338  18.107  0.00  0.00    +0.000 A 
ATOM     20  C   UNL     1       1.778   9.245  17.801  0.00  0.00    +0.000 A 
ATOM     21  C   UNL     1       2.044   8.243  18.736  0.00  0.00    +0.000 A 
ATOM     22  C   UNL     1       1.478   8.379  19.997  0.00  0.00    +0.000 A 
ATOM     23  C   UNL     1       0.563   9.406  20.261  0.00  0.00    +0.000 A 
BRANCH  21  24
ATOM     24  N   UNL     1       2.849   7.184  18.374  0.00  0.00    +0.000 N 
ATOM     25  C   UNL     1       4.165   7.393  17.780  0.00  0.00    +0.000 C 
ATOM     26  C   UNL     1       4.400   6.245  16.794  0.00  0.00    +0.000 C 
ATOM     27  C   UNL     1       4.199   4.874  17.450  0.00  0.00    +0.000 C 
ATOM     28  C   UNL     1       2.868   4.784  18.202  0.00  0.00    +0.000 C 
ATOM     29  C   UNL     1       2.712   5.957  19.162  0.00  0.00    +0.000 C 
ENDBRANCH  21  24
ENDBRANCH  13  18
BRANCH   1  31
ATOM     30  N   UNL     1      -2.962   9.392  17.681  0.00  0.00    +0.000 NA
ATOM     31  C   UNL     1      -2.528  10.283  18.295  0.00  0.00    +0.000 C 
ENDBRANCH   1  31
TORSDOF 3
ENDMDL
