MODEL 1
REMARK VINA RESULT:      -7.6      0.000      0.000
REMARK  Name = 
REMARK  5 active torsions:
REMARK  status: ('A' for Active; 'I' for Inactive)
REMARK    1  A    between atoms: C_2  and  C_3
REMARK    2  A    between atoms: C_2  and  C_14
REMARK    3  A    between atoms: C_3  and  P_4
REMARK    4  A    between atoms: P_4  and  O_7
REMARK    5  A    between atoms: O_7  and  C_8
REMARK                            x       y       z     vdW  Elec       q    Type
REMARK                         _______ _______ _______ _____ _____    ______ ____
ROOT
ATOM      1  P   UNL     1       6.645   5.577  16.742  0.00  0.00    +0.000 P 
ATOM      2  O   UNL     1       6.868   7.100  16.883  0.00  0.00    +0.000 OA
ATOM      3  O   UNL     1       7.772   4.776  17.427  0.00  0.00    +0.000 OA
ENDROOT
BRANCH   1   4
ATOM      4  C   UNL     1       5.690   5.608  18.303  0.00  0.00    +0.000 C 
BRANCH   4   6
ATOM      5  O   UNL     1       3.707   7.016  17.967  0.00  0.00    +0.000 OA
ATOM      6  C   UNL     1       4.193   5.891  18.156  0.00  0.00    +0.000 C 
BRANCH   6   7
ATOM      7  C   UNL     1       3.198   4.781  18.267  0.00  0.00    +0.000 A 
ATOM      8  C   UNL     1       2.088   4.817  19.113  0.00  0.00    +0.000 A 
ATOM      9  C   UNL     1       1.247   3.699  19.204  0.00  0.00    +0.000 A 
ATOM     10  C   UNL     1       1.502   2.552  18.450  0.00  0.00    +0.000 A 
ATOM     11  C   UNL     1       2.599   2.514  17.595  0.00  0.00    +0.000 A 
ATOM     12  C   UNL     1       3.441   3.622  17.505  0.00  0.00    +0.000 A 
ENDBRANCH   6   7
ENDBRANCH   4   6
ENDBRANCH   1   4
BRANCH   1  13
ATOM     13  O   UNL     1       7.549   5.547  15.268  0.00  0.00    +0.000 OA
BRANCH  13  14
ATOM     14  C   UNL     1       7.129   4.922  14.125  0.00  0.00    +0.000 A 
ATOM     15  C   UNL     1       5.992   4.121  14.257  0.00  0.00    +0.000 A 
ATOM     16  C   UNL     1       5.507   3.403  13.164  0.00  0.00    +0.000 A 
ATOM     17  C   UNL     1       6.151   3.502  11.933  0.00  0.00    +0.000 A 
ATOM     18  C   UNL     1       7.277   4.316  11.798  0.00  0.00    +0.000 A 
ATOM     19  C   UNL     1       7.769   5.030  12.896  0.00  0.00    +0.000 A 
ENDBRANCH  13  14
ENDBRANCH   1  13
TORSDOF 5
ENDMDL
MODEL 2
REMARK VINA RESULT:      -7.5      0.481      1.549
REMARK  Name = 
REMARK  5 active torsions:
REMARK  status: ('A' for Active; 'I' for Inactive)
REMARK    1  A    between atoms: C_2  and  C_3
REMARK    2  A    between atoms: C_2  and  C_14
REMARK    3  A    between atoms: C_3  and  P_4
REMARK    4  A    between atoms: P_4  and  O_7
REMARK    5  A    between atoms: O_7  and  C_8
REMARK                            x       y       z     vdW  Elec       q    Type
REMARK                         _______ _______ _______ _____ _____    ______ ____
ROOT
ATOM      1  P   UNL     1       6.741   5.655  16.720  0.00  0.00    +0.000 P 
ATOM      2  O   UNL     1       7.141   7.137  16.895  0.00  0.00    +0.000 OA
ATOM      3  O   UNL     1       7.811   4.708  17.301  0.00  0.00    +0.000 OA
ENDROOT
BRANCH   1   4
ATOM      4  C   UNL     1       5.894   5.728  18.340  0.00  0.00    +0.000 C 
BRANCH   4   6
ATOM      5  O   UNL     1       3.713   6.853  18.253  0.00  0.00    +0.000 OA
ATOM      6  C   UNL     1       4.366   5.798  18.284  0.00  0.00    +0.000 C 
BRANCH   6   7
ATOM      7  C   UNL     1       3.548   4.547  18.294  0.00  0.00    +0.000 A 
ATOM      8  C   UNL     1       4.094   3.264  18.228  0.00  0.00    +0.000 A 
ATOM      9  C   UNL     1       3.245   2.150  18.171  0.00  0.00    +0.000 A 
ATOM     10  C   UNL     1       1.858   2.310  18.189  0.00  0.00    +0.000 A 
ATOM     11  C   UNL     1       1.308   3.584  18.268  0.00  0.00    +0.000 A 
ATOM     12  C   UNL     1       2.148   4.696  18.320  0.00  0.00    +0.000 A 
ENDBRANCH   6   7
ENDBRANCH   4   6
ENDBRANCH   1   4
BRANCH   1  13
ATOM     13  O   UNL     1       7.543   5.585  15.189  0.00  0.00    +0.000 OA
BRANCH  13  14
ATOM     14  C   UNL     1       7.084   4.870  14.115  0.00  0.00    +0.000 A 
ATOM     15  C   UNL     1       7.797   5.042  12.926  0.00  0.00    +0.000 A 
ATOM     16  C   UNL     1       7.386   4.395  11.761  0.00  0.00    +0.000 A 
ATOM     17  C   UNL     1       6.272   3.560  11.791  0.00  0.00    +0.000 A 
ATOM     18  C   UNL     1       5.570   3.377  12.984  0.00  0.00    +0.000 A 
ATOM     19  C   UNL     1       5.977   4.032  14.151  0.00  0.00    +0.000 A 
ENDBRANCH  13  14
ENDBRANCH   1  13
TORSDOF 5
ENDMDL
MODEL 3
REMARK VINA RESULT:      -7.4      1.181      1.992
REMARK  Name = 
REMARK  5 active torsions:
REMARK  status: ('A' for Active; 'I' for Inactive)
REMARK    1  A    between atoms: C_2  and  C_3
REMARK    2  A    between atoms: C_2  and  C_14
REMARK    3  A    between atoms: C_3  and  P_4
REMARK    4  A    between atoms: P_4  and  O_7
REMARK    5  A    between atoms: O_7  and  C_8
REMARK                            x       y       z     vdW  Elec       q    Type
REMARK                         _______ _______ _______ _____ _____    ______ ____
ROOT
ATOM      1  P   UNL     1       6.926   5.752  16.767  0.00  0.00    +0.000 P 
ATOM      2  O   UNL     1       7.576   7.140  16.965  0.00  0.00    +0.000 OA
ATOM      3  O   UNL     1       7.876   4.615  17.196  0.00  0.00    +0.000 OA
ENDROOT
BRANCH   1   4
ATOM      4  C   UNL     1       6.257   5.863  18.467  0.00  0.00    +0.000 C 
BRANCH   4   6
ATOM      5  O   UNL     1       5.916   3.769  19.702  0.00  0.00    +0.000 OA
ATOM      6  C   UNL     1       5.466   4.644  18.947  0.00  0.00    +0.000 C 
BRANCH   6   7
ATOM      7  C   UNL     1       4.062   4.421  18.486  0.00  0.00    +0.000 A 
ATOM      8  C   UNL     1       3.579   3.191  18.036  0.00  0.00    +0.000 A 
ATOM      9  C   UNL     1       2.266   3.093  17.555  0.00  0.00    +0.000 A 
ATOM     10  C   UNL     1       1.431   4.213  17.531  0.00  0.00    +0.000 A 
ATOM     11  C   UNL     1       1.901   5.438  17.991  0.00  0.00    +0.000 A 
ATOM     12  C   UNL     1       3.208   5.541  18.465  0.00  0.00    +0.000 A 
ENDBRANCH   6   7
ENDBRANCH   4   6
ENDBRANCH   1   4
BRANCH   1  13
ATOM     13  O   UNL     1       7.558   5.647  15.161  0.00  0.00    +0.000 OA
BRANCH  13  14
ATOM     14  C   UNL     1       6.998   4.893  14.165  0.00  0.00    +0.000 A 
ATOM     15  C   UNL     1       7.668   4.920  12.939  0.00  0.00    +0.000 A 
ATOM     16  C   UNL     1       7.157   4.223  11.844  0.00  0.00    +0.000 A 
ATOM     17  C   UNL     1       5.984   3.485  11.982  0.00  0.00    +0.000 A 
ATOM     18  C   UNL     1       5.324   3.447  13.212  0.00  0.00    +0.000 A 
ATOM     19  C   UNL     1       5.832   4.152  14.308  0.00  0.00    +0.000 A 
ENDBRANCH  13  14
ENDBRANCH   1  13
TORSDOF 5
ENDMDL
MODEL 4
REMARK VINA RESULT:      -7.4      1.062      1.298
REMARK  Name = 
REMARK  5 active torsions:
REMARK  status: ('A' for Active; 'I' for Inactive)
REMARK    1  A    between atoms: C_2  and  C_3
REMARK    2  A    between atoms: C_2  and  C_14
REMARK    3  A    between atoms: C_3  and  P_4
REMARK    4  A    between atoms: P_4  and  O_7
REMARK    5  A    between atoms: O_7  and  C_8
REMARK                            x       y       z     vdW  Elec       q    Type
REMARK                         _______ _______ _______ _____ _____    ______ ____
ROOT
ATOM      1  P   UNL     1       7.044   5.362  17.063  0.00  0.00    +0.000 P 
ATOM      2  O   UNL     1       7.574   6.746  17.500  0.00  0.00    +0.000 OA
ATOM      3  O   UNL     1       8.129   4.274  17.193  0.00  0.00    +0.000 OA
ENDROOT
BRANCH   1   4
ATOM      4  C   UNL     1       6.505   5.062  18.786  0.00  0.00    +0.000 C 
BRANCH   4   6
ATOM      5  O   UNL     1       4.430   6.115  19.567  0.00  0.00    +0.000 OA
ATOM      6  C   UNL     1       4.998   5.151  19.032  0.00  0.00    +0.000 C 
BRANCH   6   7
ATOM      7  C   UNL     1       4.099   4.018  18.651  0.00  0.00    +0.000 A 
ATOM      8  C   UNL     1       4.224   2.725  19.162  0.00  0.00    +0.000 A 
ATOM      9  C   UNL     1       3.380   1.709  18.692  0.00  0.00    +0.000 A 
ATOM     10  C   UNL     1       2.409   1.979  17.726  0.00  0.00    +0.000 A 
ATOM     11  C   UNL     1       2.272   3.267  17.222  0.00  0.00    +0.000 A 
ATOM     12  C   UNL     1       3.111   4.281  17.682  0.00  0.00    +0.000 A 
ENDBRANCH   6   7
ENDBRANCH   4   6
ENDBRANCH   1   4
BRANCH   1  13
ATOM     13  O   UNL     1       7.553   5.644  15.434  0.00  0.00    +0.000 OA
BRANCH  13  14
ATOM     14  C   UNL     1       7.049   4.981  14.348  0.00  0.00    +0.000 A 
ATOM     15  C   UNL     1       5.825   4.338  14.548  0.00  0.00    +0.000 A 
ATOM     16  C   UNL     1       5.246   3.595  13.519  0.00  0.00    +0.000 A 
ATOM     17  C   UNL     1       5.884   3.512  12.284  0.00  0.00    +0.000 A 
ATOM     18  C   UNL     1       7.099   4.169  12.081  0.00  0.00    +0.000 A 
ATOM     19  C   UNL     1       7.685   4.907  13.115  0.00  0.00    +0.000 A 
ENDBRANCH  13  14
ENDBRANCH   1  13
TORSDOF 5
ENDMDL
MODEL 5
REMARK VINA RESULT:      -7.3      1.542      1.793
REMARK  Name = 
REMARK  5 active torsions:
REMARK  status: ('A' for Active; 'I' for Inactive)
REMARK    1  A    between atoms: C_2  and  C_3
REMARK    2  A    between atoms: C_2  and  C_14
REMARK    3  A    between atoms: C_3  and  P_4
REMARK    4  A    between atoms: P_4  and  O_7
REMARK    5  A    between atoms: O_7  and  C_8
REMARK                            x       y       z     vdW  Elec       q    Type
REMARK                         _______ _______ _______ _____ _____    ______ ____
ROOT
ATOM      1  P   UNL     1       6.610   5.301  16.844  0.00  0.00    +0.000 P 
ATOM      2  O   UNL     1       6.746   6.779  17.276  0.00  0.00    +0.000 OA
ATOM      3  O   UNL     1       7.819   4.463  17.307  0.00  0.00    +0.000 OA
ENDROOT
BRANCH   1   4
ATOM      4  C   UNL     1       5.741   4.958  18.418  0.00  0.00    +0.000 C 
BRANCH   4   6
ATOM      5  O   UNL     1       4.404   3.182  17.377  0.00  0.00    +0.000 OA
ATOM      6  C   UNL     1       4.593   3.950  18.332  0.00  0.00    +0.000 C 
BRANCH   6   7
ATOM      7  C   UNL     1       3.582   3.857  19.429  0.00  0.00    +0.000 A 
ATOM      8  C   UNL     1       2.655   4.860  19.716  0.00  0.00    +0.000 A 
ATOM      9  C   UNL     1       1.792   4.716  20.811  0.00  0.00    +0.000 A 
ATOM     10  C   UNL     1       1.842   3.574  21.613  0.00  0.00    +0.000 A 
ATOM     11  C   UNL     1       2.755   2.565  21.325  0.00  0.00    +0.000 A 
ATOM     12  C   UNL     1       3.619   2.706  20.240  0.00  0.00    +0.000 A 
ENDBRANCH   6   7
ENDBRANCH   4   6
ENDBRANCH   1   4
BRANCH   1  13
ATOM     13  O   UNL     1       7.431   5.626  15.357  0.00  0.00    +0.000 OA
BRANCH  13  14
ATOM     14  C   UNL     1       7.134   5.015  14.168  0.00  0.00    +0.000 A 
ATOM     15  C   UNL     1       6.048   4.137  14.196  0.00  0.00    +0.000 A 
ATOM     16  C   UNL     1       5.688   3.428  13.050  0.00  0.00    +0.000 A 
ATOM     17  C   UNL     1       6.406   3.613  11.871  0.00  0.00    +0.000 A 
ATOM     18  C   UNL     1       7.482   4.502  11.841  0.00  0.00    +0.000 A 
ATOM     19  C   UNL     1       7.848   5.208  12.992  0.00  0.00    +0.000 A 
ENDBRANCH  13  14
ENDBRANCH   1  13
TORSDOF 5
ENDMDL
MODEL 6
REMARK VINA RESULT:      -7.3      1.103      1.792
REMARK  Name = 
REMARK  5 active torsions:
REMARK  status: ('A' for Active; 'I' for Inactive)
REMARK    1  A    between atoms: C_2  and  C_3
REMARK    2  A    between atoms: C_2  and  C_14
REMARK    3  A    between atoms: C_3  and  P_4
REMARK    4  A    between atoms: P_4  and  O_7
REMARK    5  A    between atoms: O_7  and  C_8
REMARK                            x       y       z     vdW  Elec       q    Type
REMARK                         _______ _______ _______ _____ _____    ______ ____
ROOT
ATOM      1  P   UNL     1       6.372   5.735  16.711  0.00  0.00    +0.000 P 
ATOM      2  O   UNL     1       5.617   6.881  16.001  0.00  0.00    +0.000 OA
ATOM      3  O   UNL     1       7.580   6.263  17.511  0.00  0.00    +0.000 OA
ENDROOT
BRANCH   1   4
ATOM      4  C   UNL     1       5.282   5.965  18.163  0.00  0.00    +0.000 C 
BRANCH   4   6
ATOM      5  O   UNL     1       5.786   3.862  19.325  0.00  0.00    +0.000 OA
ATOM      6  C   UNL     1       4.947   4.694  18.947  0.00  0.00    +0.000 C 
BRANCH   6   7
ATOM      7  C   UNL     1       3.529   4.362  19.283  0.00  0.00    +0.000 A 
ATOM      8  C   UNL     1       2.730   5.139  20.124  0.00  0.00    +0.000 A 
ATOM      9  C   UNL     1       1.433   4.711  20.440  0.00  0.00    +0.000 A 
ATOM     10  C   UNL     1       0.928   3.520  19.913  0.00  0.00    +0.000 A 
ATOM     11  C   UNL     1       1.714   2.749  19.065  0.00  0.00    +0.000 A 
ATOM     12  C   UNL     1       3.006   3.167  18.752  0.00  0.00    +0.000 A 
ENDBRANCH   6   7
ENDBRANCH   4   6
ENDBRANCH   1   4
BRANCH   1  13
ATOM     13  O   UNL     1       7.401   5.517  15.339  0.00  0.00    +0.000 OA
BRANCH  13  14
ATOM     14  C   UNL     1       7.040   4.832  14.210  0.00  0.00    +0.000 A 
ATOM     15  C   UNL     1       7.775   5.132  13.061  0.00  0.00    +0.000 A 
ATOM     16  C   UNL     1       7.458   4.525  11.846  0.00  0.00    +0.000 A 
ATOM     17  C   UNL     1       6.416   3.602  11.786  0.00  0.00    +0.000 A 
ATOM     18  C   UNL     1       5.693   3.292  12.939  0.00  0.00    +0.000 A 
ATOM     19  C   UNL     1       6.005   3.907  14.157  0.00  0.00    +0.000 A 
ENDBRANCH  13  14
ENDBRANCH   1  13
TORSDOF 5
ENDMDL
MODEL 7
REMARK VINA RESULT:      -7.2      0.588      1.188
REMARK  Name = 
REMARK  5 active torsions:
REMARK  status: ('A' for Active; 'I' for Inactive)
REMARK    1  A    between atoms: C_2  and  C_3
REMARK    2  A    between atoms: C_2  and  C_14
REMARK    3  A    between atoms: C_3  and  P_4
REMARK    4  A    between atoms: P_4  and  O_7
REMARK    5  A    between atoms: O_7  and  C_8
REMARK                            x       y       z     vdW  Elec       q    Type
REMARK                         _______ _______ _______ _____ _____    ______ ____
ROOT
ATOM      1  P   UNL     1       6.571   5.765  16.785  0.00  0.00    +0.000 P 
ATOM      2  O   UNL     1       5.969   7.039  16.150  0.00  0.00    +0.000 OA
ATOM      3  O   UNL     1       7.832   6.086  17.613  0.00  0.00    +0.000 OA
ENDROOT
BRANCH   1   4
ATOM      4  C   UNL     1       5.512   6.037  18.252  0.00  0.00    +0.000 C 
BRANCH   4   6
ATOM      5  O   UNL     1       3.254   6.870  17.766  0.00  0.00    +0.000 OA
ATOM      6  C   UNL     1       4.005   5.914  18.011  0.00  0.00    +0.000 C 
BRANCH   6   7
ATOM      7  C   UNL     1       3.331   4.582  18.093  0.00  0.00    +0.000 A 
ATOM      8  C   UNL     1       3.975   3.370  17.838  0.00  0.00    +0.000 A 
ATOM      9  C   UNL     1       3.243   2.175  17.870  0.00  0.00    +0.000 A 
ATOM     10  C   UNL     1       1.878   2.183  18.164  0.00  0.00    +0.000 A 
ATOM     11  C   UNL     1       1.233   3.385  18.432  0.00  0.00    +0.000 A 
ATOM     12  C   UNL     1       1.955   4.577  18.397  0.00  0.00    +0.000 A 
ENDBRANCH   6   7
ENDBRANCH   4   6
ENDBRANCH   1   4
BRANCH   1  13
ATOM     13  O   UNL     1       7.572   5.507  15.398  0.00  0.00    +0.000 OA
BRANCH  13  14
ATOM     14  C   UNL     1       7.142   4.914  14.242  0.00  0.00    +0.000 A 
ATOM     15  C   UNL     1       6.005   4.112  14.361  0.00  0.00    +0.000 A 
ATOM     16  C   UNL     1       5.510   3.425  13.253  0.00  0.00    +0.000 A 
ATOM     17  C   UNL     1       6.144   3.557  12.020  0.00  0.00    +0.000 A 
ATOM     18  C   UNL     1       7.271   4.372  11.898  0.00  0.00    +0.000 A 
ATOM     19  C   UNL     1       7.773   5.055  13.012  0.00  0.00    +0.000 A 
ENDBRANCH  13  14
ENDBRANCH   1  13
TORSDOF 5
ENDMDL
MODEL 8
REMARK VINA RESULT:      -7.2      1.446      6.281
REMARK  Name = 
REMARK  5 active torsions:
REMARK  status: ('A' for Active; 'I' for Inactive)
REMARK    1  A    between atoms: C_2  and  C_3
REMARK    2  A    between atoms: C_2  and  C_14
REMARK    3  A    between atoms: C_3  and  P_4
REMARK    4  A    between atoms: P_4  and  O_7
REMARK    5  A    between atoms: O_7  and  C_8
REMARK                            x       y       z     vdW  Elec       q    Type
REMARK                         _______ _______ _______ _____ _____    ______ ____
ROOT
ATOM      1  P   UNL     1       5.647   4.797  18.536  0.00  0.00    +0.000 P 
ATOM      2  O   UNL     1       6.614   5.256  19.652  0.00  0.00    +0.000 OA
ATOM      3  O   UNL     1       5.202   5.979  17.652  0.00  0.00    +0.000 OA
ENDROOT
BRANCH   1   4
ATOM      4  C   UNL     1       7.093   4.503  17.453  0.00  0.00    +0.000 C 
BRANCH   4   6
ATOM      5  O   UNL     1       7.522   6.604  16.258  0.00  0.00    +0.000 OA
ATOM      6  C   UNL     1       7.192   5.408  16.223  0.00  0.00    +0.000 C 
BRANCH   6   7
ATOM      7  C   UNL     1       6.853   4.883  14.866  0.00  0.00    +0.000 A 
ATOM      8  C   UNL     1       5.773   4.037  14.609  0.00  0.00    +0.000 A 
ATOM      9  C   UNL     1       5.574   3.537  13.315  0.00  0.00    +0.000 A 
ATOM     10  C   UNL     1       6.441   3.883  12.276  0.00  0.00    +0.000 A 
ATOM     11  C   UNL     1       7.512   4.735  12.522  0.00  0.00    +0.000 A 
ATOM     12  C   UNL     1       7.717   5.232  13.809  0.00  0.00    +0.000 A 
ENDBRANCH   6   7
ENDBRANCH   4   6
ENDBRANCH   1   4
BRANCH   1  13
ATOM     13  O   UNL     1       4.281   5.075  19.559  0.00  0.00    +0.000 OA
BRANCH  13  14
ATOM     14  C   UNL     1       3.127   4.341  19.513  0.00  0.00    +0.000 A 
ATOM     15  C   UNL     1       3.069   3.370  18.509  0.00  0.00    +0.000 A 
ATOM     16  C   UNL     1       1.919   2.597  18.345  0.00  0.00    +0.000 A 
ATOM     17  C   UNL     1       0.834   2.784  19.198  0.00  0.00    +0.000 A 
ATOM     18  C   UNL     1       0.900   3.744  20.210  0.00  0.00    +0.000 A 
ATOM     19  C   UNL     1       2.049   4.525  20.371  0.00  0.00    +0.000 A 
ENDBRANCH  13  14
ENDBRANCH   1  13
TORSDOF 5
ENDMDL
MODEL 9
REMARK VINA RESULT:      -7.2      1.594      2.161
REMARK  Name = 
REMARK  5 active torsions:
REMARK  status: ('A' for Active; 'I' for Inactive)
REMARK    1  A    between atoms: C_2  and  C_3
REMARK    2  A    between atoms: C_2  and  C_14
REMARK    3  A    between atoms: C_3  and  P_4
REMARK    4  A    between atoms: P_4  and  O_7
REMARK    5  A    between atoms: O_7  and  C_8
REMARK                            x       y       z     vdW  Elec       q    Type
REMARK                         _______ _______ _______ _____ _____    ______ ____
ROOT
ATOM      1  P   UNL     1       6.355   5.082  17.042  0.00  0.00    +0.000 P 
ATOM      2  O   UNL     1       6.255   6.562  17.476  0.00  0.00    +0.000 OA
ATOM      3  O   UNL     1       7.624   4.411  17.606  0.00  0.00    +0.000 OA
ENDROOT
BRANCH   1   4
ATOM      4  C   UNL     1       5.415   4.615  18.541  0.00  0.00    +0.000 C 
BRANCH   4   6
ATOM      5  O   UNL     1       4.154   2.899  17.319  0.00  0.00    +0.000 OA
ATOM      6  C   UNL     1       4.273   3.620  18.322  0.00  0.00    +0.000 C 
BRANCH   6   7
ATOM      7  C   UNL     1       3.183   3.483  19.335  0.00  0.00    +0.000 A 
ATOM      8  C   UNL     1       1.937   4.103  19.222  0.00  0.00    +0.000 A 
ATOM      9  C   UNL     1       1.001   3.975  20.257  0.00  0.00    +0.000 A 
ATOM     10  C   UNL     1       1.297   3.224  21.397  0.00  0.00    +0.000 A 
ATOM     11  C   UNL     1       2.531   2.592  21.510  0.00  0.00    +0.000 A 
ATOM     12  C   UNL     1       3.467   2.721  20.485  0.00  0.00    +0.000 A 
ENDBRANCH   6   7
ENDBRANCH   4   6
ENDBRANCH   1   4
BRANCH   1  13
ATOM     13  O   UNL     1       7.244   5.522  15.625  0.00  0.00    +0.000 OA
BRANCH  13  14
ATOM     14  C   UNL     1       7.063   4.946  14.397  0.00  0.00    +0.000 A 
ATOM     15  C   UNL     1       7.870   5.445  13.371  0.00  0.00    +0.000 A 
ATOM     16  C   UNL     1       7.734   4.958  12.071  0.00  0.00    +0.000 A 
ATOM     17  C   UNL     1       6.804   3.958  11.801  0.00  0.00    +0.000 A 
ATOM     18  C   UNL     1       6.009   3.449  12.831  0.00  0.00    +0.000 A 
ATOM     19  C   UNL     1       6.139   3.942  14.134  0.00  0.00    +0.000 A 
ENDBRANCH  13  14
ENDBRANCH   1  13
TORSDOF 5
ENDMDL
