MODEL 1
REMARK VINA RESULT:      -7.0      0.000      0.000
REMARK  Name = 
REMARK  7 active torsions:
REMARK  status: ('A' for Active; 'I' for Inactive)
REMARK    1  A    between atoms: C_1  and  C_2
REMARK    2  A    between atoms: C_4  and  C_5
REMARK    3  A    between atoms: N_12  and  C_13
REMARK    4  A    between atoms: C_13  and  C_14
REMARK    5  A    between atoms: C_14  and  C_15
REMARK    6  A    between atoms: C_14  and  N_16
REMARK    7  A    between atoms: C_18  and  C_19
REMARK                            x       y       z     vdW  Elec       q    Type
REMARK                         _______ _______ _______ _____ _____    ______ ____
ROOT
ATOM      1  C   UNL     1      -0.623  13.016  19.613  0.00  0.00    +0.000 C 
ATOM      2  C   UNL     1      -0.034  11.635  19.633  0.00  0.00    +0.000 A 
ATOM      3  C   UNL     1      -0.448  10.708  20.582  0.00  0.00    +0.000 A 
ATOM      4  C   UNL     1       0.102   9.416  20.598  0.00  0.00    +0.000 A 
ATOM      5  C   UNL     1      -0.347   8.429  21.638  0.00  0.00    +0.000 C 
ATOM      6  C   UNL     1       1.089   9.119  19.620  0.00  0.00    +0.000 A 
ATOM      7  C   UNL     1       1.417  10.138  18.735  0.00  0.00    +0.000 A 
ATOM      8  N   UNL     1       0.895  11.379  18.695  0.00  0.00    +0.000 NA
ATOM      9  S   UNL     1       2.619   9.700  17.622  0.00  0.00    +0.000 S 
ATOM     10  C   UNL     1       2.768   8.129  18.296  0.00  0.00    +0.000 A 
ATOM     11  C   UNL     1       3.638   7.100  17.925  0.00  0.00    +0.000 A 
ATOM     12  N   UNL     1       4.602   7.304  16.941  0.00  0.00    +0.000 N 
ATOM     13  N   UNL     1       3.547   5.934  18.592  0.00  0.00    +0.000 NA
ATOM     14  C   UNL     1       2.652   5.809  19.593  0.00  0.00    +0.000 A 
ATOM     15  N   UNL     1       1.795   6.756  20.006  0.00  0.00    +0.000 NA
ATOM     16  C   UNL     1       1.871   7.937  19.337  0.00  0.00    +0.000 A 
ATOM     17  H   UNL     1       4.428   8.157  16.415  0.00  0.00    +0.000 HD
ENDROOT
BRANCH  14  18
ATOM     18  C   UNL     1       2.603   4.510  20.302  0.00  0.00    +0.000 A 
ATOM     19  C   UNL     1       1.482   4.134  21.058  0.00  0.00    +0.000 A 
ATOM     20  C   UNL     1       1.477   2.908  21.704  0.00  0.00    +0.000 A 
ATOM     21  N   UNL     1       2.499   2.032  21.659  0.00  0.00    +0.000 NA
ATOM     22  C   UNL     1       3.574   2.394  20.934  0.00  0.00    +0.000 A 
ATOM     23  C   UNL     1       3.671   3.599  20.249  0.00  0.00    +0.000 A 
ENDBRANCH  14  18
BRANCH  12  24
ATOM     24  C   UNL     1       5.003   6.166  16.119  0.00  0.00    +0.000 C 
BRANCH  24  25
ATOM     25  C   UNL     1       6.466   5.788  16.487  0.00  0.00    +0.000 C 
ATOM     26  C   UNL     1       7.152   6.899  17.271  0.00  0.00    +0.000 C 
BRANCH  25  27
ATOM     27  N   UNL     1       7.265   5.469  15.291  0.00  0.00    +0.000 NA
ATOM     28  H   UNL     1       7.919   6.234  15.121  0.00  0.00    +0.000 HD
ATOM     29  H   UNL     1       6.639   5.501  14.482  0.00  0.00    +0.000 HD
ENDBRANCH  25  27
ENDBRANCH  24  25
ENDBRANCH  12  24
TORSDOF 4
ENDMDL
MODEL 2
REMARK VINA RESULT:      -6.9      0.686      1.221
REMARK  Name = 
REMARK  7 active torsions:
REMARK  status: ('A' for Active; 'I' for Inactive)
REMARK    1  A    between atoms: C_1  and  C_2
REMARK    2  A    between atoms: C_4  and  C_5
REMARK    3  A    between atoms: N_12  and  C_13
REMARK    4  A    between atoms: C_13  and  C_14
REMARK    5  A    between atoms: C_14  and  C_15
REMARK    6  A    between atoms: C_14  and  N_16
REMARK    7  A    between atoms: C_18  and  C_19
REMARK                            x       y       z     vdW  Elec       q    Type
REMARK                         _______ _______ _______ _____ _____    ______ ____
ROOT
ATOM      1  C   UNL     1      -0.546  12.829  19.503  0.00  0.00    +0.000 C 
ATOM      2  C   UNL     1       0.066  11.458  19.541  0.00  0.00    +0.000 A 
ATOM      3  C   UNL     1      -0.274  10.564  20.550  0.00  0.00    +0.000 A 
ATOM      4  C   UNL     1       0.298   9.282  20.583  0.00  0.00    +0.000 A 
ATOM      5  C   UNL     1      -0.070   8.331  21.687  0.00  0.00    +0.000 C 
ATOM      6  C   UNL     1       1.226   8.959  19.557  0.00  0.00    +0.000 A 
ATOM      7  C   UNL     1       1.482   9.945  18.613  0.00  0.00    +0.000 A 
ATOM      8  N   UNL     1       0.938  11.176  18.557  0.00  0.00    +0.000 NA
ATOM      9  S   UNL     1       2.619   9.478  17.446  0.00  0.00    +0.000 S 
ATOM     10  C   UNL     1       2.835   7.938  18.170  0.00  0.00    +0.000 A 
ATOM     11  C   UNL     1       3.697   6.907  17.786  0.00  0.00    +0.000 A 
ATOM     12  N   UNL     1       4.594   7.084  16.736  0.00  0.00    +0.000 N 
ATOM     13  N   UNL     1       3.666   5.768  18.504  0.00  0.00    +0.000 NA
ATOM     14  C   UNL     1       2.838   5.672  19.563  0.00  0.00    +0.000 A 
ATOM     15  N   UNL     1       1.993   6.623  19.991  0.00  0.00    +0.000 NA
ATOM     16  C   UNL     1       2.008   7.776  19.273  0.00  0.00    +0.000 A 
ATOM     17  H   UNL     1       4.374   7.912  16.189  0.00  0.00    +0.000 HD
ENDROOT
BRANCH  14  18
ATOM     18  C   UNL     1       2.854   4.402  20.325  0.00  0.00    +0.000 A 
ATOM     19  C   UNL     1       3.845   3.432  20.104  0.00  0.00    +0.000 A 
ATOM     20  C   UNL     1       3.824   2.258  20.840  0.00  0.00    +0.000 A 
ATOM     21  N   UNL     1       2.895   1.974  21.773  0.00  0.00    +0.000 NA
ATOM     22  C   UNL     1       1.945   2.905  21.984  0.00  0.00    +0.000 A 
ATOM     23  C   UNL     1       1.885   4.112  21.298  0.00  0.00    +0.000 A 
ENDBRANCH  14  18
BRANCH  12  24
ATOM     24  C   UNL     1       4.962   5.919  15.937  0.00  0.00    +0.000 C 
BRANCH  24  25
ATOM     25  C   UNL     1       6.383   5.458  16.368  0.00  0.00    +0.000 C 
ATOM     26  C   UNL     1       7.153   4.849  15.203  0.00  0.00    +0.000 C 
BRANCH  25  27
ATOM     27  N   UNL     1       6.330   4.491  17.479  0.00  0.00    +0.000 NA
ATOM     28  H   UNL     1       5.903   4.945  18.287  0.00  0.00    +0.000 HD
ATOM     29  H   UNL     1       7.291   4.314  17.780  0.00  0.00    +0.000 HD
ENDBRANCH  25  27
ENDBRANCH  24  25
ENDBRANCH  12  24
TORSDOF 4
ENDMDL
MODEL 3
REMARK VINA RESULT:      -6.3      1.792      4.693
REMARK  Name = 
REMARK  7 active torsions:
REMARK  status: ('A' for Active; 'I' for Inactive)
REMARK    1  A    between atoms: C_1  and  C_2
REMARK    2  A    between atoms: C_4  and  C_5
REMARK    3  A    between atoms: N_12  and  C_13
REMARK    4  A    between atoms: C_13  and  C_14
REMARK    5  A    between atoms: C_14  and  C_15
REMARK    6  A    between atoms: C_14  and  N_16
REMARK    7  A    between atoms: C_18  and  C_19
REMARK                            x       y       z     vdW  Elec       q    Type
REMARK                         _______ _______ _______ _____ _____    ______ ____
ROOT
ATOM      1  C   UNL     1      -0.950  12.651  21.232  0.00  0.00    +0.000 C 
ATOM      2  C   UNL     1      -0.163  11.498  20.679  0.00  0.00    +0.000 A 
ATOM      3  C   UNL     1       0.588  11.652  19.519  0.00  0.00    +0.000 A 
ATOM      4  C   UNL     1       1.326  10.573  19.004  0.00  0.00    +0.000 A 
ATOM      5  C   UNL     1       2.123  10.752  17.743  0.00  0.00    +0.000 C 
ATOM      6  C   UNL     1       1.256   9.343  19.712  0.00  0.00    +0.000 A 
ATOM      7  C   UNL     1       0.464   9.322  20.852  0.00  0.00    +0.000 A 
ATOM      8  N   UNL     1      -0.242  10.347  21.369  0.00  0.00    +0.000 NA
ATOM      9  S   UNL     1       0.423   7.809  21.614  0.00  0.00    +0.000 S 
ATOM     10  C   UNL     1       1.450   7.108  20.432  0.00  0.00    +0.000 A 
ATOM     11  C   UNL     1       1.892   5.785  20.334  0.00  0.00    +0.000 A 
ATOM     12  N   UNL     1       1.432   4.815  21.221  0.00  0.00    +0.000 N 
ATOM     13  N   UNL     1       2.725   5.478  19.322  0.00  0.00    +0.000 NA
ATOM     14  C   UNL     1       3.078   6.434  18.440  0.00  0.00    +0.000 A 
ATOM     15  N   UNL     1       2.686   7.718  18.469  0.00  0.00    +0.000 NA
ATOM     16  C   UNL     1       1.849   8.043  19.489  0.00  0.00    +0.000 A 
ATOM     17  H   UNL     1       0.963   5.229  22.022  0.00  0.00    +0.000 HD
ENDROOT
BRANCH  14  18
ATOM     18  C   UNL     1       3.986   6.039  17.338  0.00  0.00    +0.000 A 
ATOM     19  C   UNL     1       4.610   6.999  16.527  0.00  0.00    +0.000 A 
ATOM     20  C   UNL     1       5.453   6.586  15.508  0.00  0.00    +0.000 A 
ATOM     21  N   UNL     1       5.720   5.295  15.233  0.00  0.00    +0.000 NA
ATOM     22  C   UNL     1       5.122   4.374  16.012  0.00  0.00    +0.000 A 
ATOM     23  C   UNL     1       4.264   4.691  17.058  0.00  0.00    +0.000 A 
ENDBRANCH  14  18
BRANCH  12  24
ATOM     24  C   UNL     1       2.323   3.708  21.557  0.00  0.00    +0.000 C 
BRANCH  24  25
ATOM     25  C   UNL     1       1.939   2.487  20.674  0.00  0.00    +0.000 C 
ATOM     26  C   UNL     1       3.043   2.140  19.684  0.00  0.00    +0.000 C 
BRANCH  25  27
ATOM     27  N   UNL     1       0.680   2.715  19.943  0.00  0.00    +0.000 NA
ATOM     28  H   UNL     1       0.051   3.259  20.536  0.00  0.00    +0.000 HD
ATOM     29  H   UNL     1       0.206   1.813  19.852  0.00  0.00    +0.000 HD
ENDBRANCH  25  27
ENDBRANCH  24  25
ENDBRANCH  12  24
TORSDOF 4
ENDMDL
MODEL 4
REMARK VINA RESULT:      -6.3      4.481      7.096
REMARK  Name = 
REMARK  7 active torsions:
REMARK  status: ('A' for Active; 'I' for Inactive)
REMARK    1  A    between atoms: C_1  and  C_2
REMARK    2  A    between atoms: C_4  and  C_5
REMARK    3  A    between atoms: N_12  and  C_13
REMARK    4  A    between atoms: C_13  and  C_14
REMARK    5  A    between atoms: C_14  and  C_15
REMARK    6  A    between atoms: C_14  and  N_16
REMARK    7  A    between atoms: C_18  and  C_19
REMARK                            x       y       z     vdW  Elec       q    Type
REMARK                         _______ _______ _______ _____ _____    ______ ____
ROOT
ATOM      1  C   UNL     1       1.246   2.824  21.517  0.00  0.00    +0.000 C 
ATOM      2  C   UNL     1       2.133   3.188  20.361  0.00  0.00    +0.000 A 
ATOM      3  C   UNL     1       2.040   2.498  19.158  0.00  0.00    +0.000 A 
ATOM      4  C   UNL     1       2.869   2.842  18.078  0.00  0.00    +0.000 A 
ATOM      5  C   UNL     1       2.765   2.078  16.788  0.00  0.00    +0.000 C 
ATOM      6  C   UNL     1       3.792   3.902  18.280  0.00  0.00    +0.000 A 
ATOM      7  C   UNL     1       3.788   4.504  19.532  0.00  0.00    +0.000 A 
ATOM      8  N   UNL     1       2.995   4.198  20.578  0.00  0.00    +0.000 NA
ATOM      9  S   UNL     1       4.938   5.739  19.688  0.00  0.00    +0.000 S 
ATOM     10  C   UNL     1       5.508   5.506  18.087  0.00  0.00    +0.000 A 
ATOM     11  C   UNL     1       6.547   6.167  17.426  0.00  0.00    +0.000 A 
ATOM     12  N   UNL     1       7.334   7.102  18.094  0.00  0.00    +0.000 N 
ATOM     13  N   UNL     1       6.793   5.823  16.147  0.00  0.00    +0.000 NA
ATOM     14  C   UNL     1       6.057   4.855  15.567  0.00  0.00    +0.000 A 
ATOM     15  N   UNL     1       5.053   4.175  16.144  0.00  0.00    +0.000 NA
ATOM     16  C   UNL     1       4.790   4.515  17.432  0.00  0.00    +0.000 A 
ATOM     17  H   UNL     1       6.918   7.379  18.980  0.00  0.00    +0.000 HD
ENDROOT
BRANCH  14  18
ATOM     18  C   UNL     1       6.378   4.508  14.163  0.00  0.00    +0.000 A 
ATOM     19  C   UNL     1       7.436   5.130  13.482  0.00  0.00    +0.000 A 
ATOM     20  C   UNL     1       7.703   4.775  12.169  0.00  0.00    +0.000 A 
ATOM     21  N   UNL     1       6.999   3.853  11.484  0.00  0.00    +0.000 NA
ATOM     22  C   UNL     1       5.985   3.256  12.139  0.00  0.00    +0.000 A 
ATOM     23  C   UNL     1       5.643   3.544  13.454  0.00  0.00    +0.000 A 
ENDBRANCH  14  18
BRANCH  12  24
ATOM     24  C   UNL     1       7.898   8.207  17.325  0.00  0.00    +0.000 C 
BRANCH  24  25
ATOM     25  C   UNL     1       8.192   9.382  18.300  0.00  0.00    +0.000 C 
ATOM     26  C   UNL     1       8.834  10.561  17.581  0.00  0.00    +0.000 C 
BRANCH  25  27
ATOM     27  N   UNL     1       9.056   8.961  19.418  0.00  0.00    +0.000 NA
ATOM     28  H   UNL     1       9.490   9.791  19.826  0.00  0.00    +0.000 HD
ATOM     29  H   UNL     1       9.845   8.445  19.022  0.00  0.00    +0.000 HD
ENDBRANCH  25  27
ENDBRANCH  24  25
ENDBRANCH  12  24
TORSDOF 4
ENDMDL
MODEL 5
REMARK VINA RESULT:      -6.2      0.975      1.003
REMARK  Name = 
REMARK  7 active torsions:
REMARK  status: ('A' for Active; 'I' for Inactive)
REMARK    1  A    between atoms: C_1  and  C_2
REMARK    2  A    between atoms: C_4  and  C_5
REMARK    3  A    between atoms: N_12  and  C_13
REMARK    4  A    between atoms: C_13  and  C_14
REMARK    5  A    between atoms: C_14  and  C_15
REMARK    6  A    between atoms: C_14  and  N_16
REMARK    7  A    between atoms: C_18  and  C_19
REMARK                            x       y       z     vdW  Elec       q    Type
REMARK                         _______ _______ _______ _____ _____    ______ ____
ROOT
ATOM      1  C   UNL     1       0.377  12.617  18.805  0.00  0.00    +0.000 C 
ATOM      2  C   UNL     1       0.818  11.191  18.968  0.00  0.00    +0.000 A 
ATOM      3  C   UNL     1       0.334  10.421  20.019  0.00  0.00    +0.000 A 
ATOM      4  C   UNL     1       0.746   9.086  20.168  0.00  0.00    +0.000 A 
ATOM      5  C   UNL     1       0.223   8.271  21.317  0.00  0.00    +0.000 C 
ATOM      6  C   UNL     1       1.669   8.582  19.213  0.00  0.00    +0.000 A 
ATOM      7  C   UNL     1       2.078   9.458  18.217  0.00  0.00    +0.000 A 
ATOM      8  N   UNL     1       1.688  10.737  18.049  0.00  0.00    +0.000 NA
ATOM      9  S   UNL     1       3.197   8.776  17.141  0.00  0.00    +0.000 S 
ATOM     10  C   UNL     1       3.198   7.280  17.980  0.00  0.00    +0.000 A 
ATOM     11  C   UNL     1       3.944   6.129  17.711  0.00  0.00    +0.000 A 
ATOM     12  N   UNL     1       4.897   6.122  16.696  0.00  0.00    +0.000 N 
ATOM     13  N   UNL     1       3.749   5.059  18.504  0.00  0.00    +0.000 NA
ATOM     14  C   UNL     1       2.874   5.139  19.525  0.00  0.00    +0.000 A 
ATOM     15  N   UNL     1       2.132   6.212  19.845  0.00  0.00    +0.000 NA
ATOM     16  C   UNL     1       2.315   7.298  19.050  0.00  0.00    +0.000 A 
ATOM     17  H   UNL     1       4.800   6.927  16.082  0.00  0.00    +0.000 HD
ENDROOT
BRANCH  14  18
ATOM     18  C   UNL     1       2.708   3.936  20.373  0.00  0.00    +0.000 A 
ATOM     19  C   UNL     1       1.559   3.751  21.158  0.00  0.00    +0.000 A 
ATOM     20  C   UNL     1       1.443   2.610  21.936  0.00  0.00    +0.000 A 
ATOM     21  N   UNL     1       2.381   1.645  21.996  0.00  0.00    +0.000 NA
ATOM     22  C   UNL     1       3.482   1.824  21.243  0.00  0.00    +0.000 A 
ATOM     23  C   UNL     1       3.687   2.932  20.430  0.00  0.00    +0.000 A 
ENDBRANCH  14  18
BRANCH  12  24
ATOM     24  C   UNL     1       5.155   4.866  15.998  0.00  0.00    +0.000 C 
BRANCH  24  25
ATOM     25  C   UNL     1       6.688   4.612  15.996  0.00  0.00    +0.000 C 
ATOM     26  C   UNL     1       7.285   4.766  17.390  0.00  0.00    +0.000 C 
BRANCH  25  27
ATOM     27  N   UNL     1       7.390   5.510  15.062  0.00  0.00    +0.000 NA
ATOM     28  H   UNL     1       7.351   6.461  15.432  0.00  0.00    +0.000 HD
ATOM     29  H   UNL     1       6.834   5.560  14.205  0.00  0.00    +0.000 HD
ENDBRANCH  25  27
ENDBRANCH  24  25
ENDBRANCH  12  24
TORSDOF 4
ENDMDL
MODEL 6
REMARK VINA RESULT:      -6.0      4.892      8.701
REMARK  Name = 
REMARK  7 active torsions:
REMARK  status: ('A' for Active; 'I' for Inactive)
REMARK    1  A    between atoms: C_1  and  C_2
REMARK    2  A    between atoms: C_4  and  C_5
REMARK    3  A    between atoms: N_12  and  C_13
REMARK    4  A    between atoms: C_13  and  C_14
REMARK    5  A    between atoms: C_14  and  C_15
REMARK    6  A    between atoms: C_14  and  N_16
REMARK    7  A    between atoms: C_18  and  C_19
REMARK                            x       y       z     vdW  Elec       q    Type
REMARK                         _______ _______ _______ _____ _____    ______ ____
ROOT
ATOM      1  C   UNL     1      -3.598   9.819  13.762  0.00  0.00    +0.000 C 
ATOM      2  C   UNL     1      -3.433  10.341  15.160  0.00  0.00    +0.000 A 
ATOM      3  C   UNL     1      -4.427  11.121  15.740  0.00  0.00    +0.000 A 
ATOM      4  C   UNL     1      -4.272  11.606  17.049  0.00  0.00    +0.000 A 
ATOM      5  C   UNL     1      -5.349  12.459  17.658  0.00  0.00    +0.000 C 
ATOM      6  C   UNL     1      -3.070  11.271  17.728  0.00  0.00    +0.000 A 
ATOM      7  C   UNL     1      -2.157  10.490  17.032  0.00  0.00    +0.000 A 
ATOM      8  N   UNL     1      -2.289  10.005  15.781  0.00  0.00    +0.000 NA
ATOM      9  S   UNL     1      -0.745  10.162  17.911  0.00  0.00    +0.000 S 
ATOM     10  C   UNL     1      -1.289  11.074  19.259  0.00  0.00    +0.000 A 
ATOM     11  C   UNL     1      -0.627  11.331  20.463  0.00  0.00    +0.000 A 
ATOM     12  N   UNL     1       0.681  10.897  20.661  0.00  0.00    +0.000 N 
ATOM     13  N   UNL     1      -1.278  12.059  21.390  0.00  0.00    +0.000 NA
ATOM     14  C   UNL     1      -2.513  12.526  21.122  0.00  0.00    +0.000 A 
ATOM     15  N   UNL     1      -3.202  12.325  19.987  0.00  0.00    +0.000 NA
ATOM     16  C   UNL     1      -2.560  11.588  19.044  0.00  0.00    +0.000 A 
ATOM     17  H   UNL     1       0.964  10.220  19.958  0.00  0.00    +0.000 HD
ENDROOT
BRANCH  14  18
ATOM     18  C   UNL     1      -3.178  13.332  22.172  0.00  0.00    +0.000 A 
ATOM     19  C   UNL     1      -3.333  14.720  22.036  0.00  0.00    +0.000 A 
ATOM     20  C   UNL     1      -3.962  15.436  23.042  0.00  0.00    +0.000 A 
ATOM     21  N   UNL     1      -4.444  14.879  24.170  0.00  0.00    +0.000 NA
ATOM     22  C   UNL     1      -4.295  13.547  24.299  0.00  0.00    +0.000 A 
ATOM     23  C   UNL     1      -3.681  12.746  23.344  0.00  0.00    +0.000 A 
ENDBRANCH  14  18
BRANCH  12  24
ATOM     24  C   UNL     1       1.099  10.561  22.019  0.00  0.00    +0.000 C 
BRANCH  24  25
ATOM     25  C   UNL     1       0.756   9.067  22.281  0.00  0.00    +0.000 C 
ATOM     26  C   UNL     1       1.019   8.207  21.052  0.00  0.00    +0.000 C 
BRANCH  25  27
ATOM     27  N   UNL     1      -0.644   8.894  22.708  0.00  0.00    +0.000 NA
ATOM     28  H   UNL     1      -1.254   9.302  21.998  0.00  0.00    +0.000 HD
ATOM     29  H   UNL     1      -0.794   9.489  23.526  0.00  0.00    +0.000 HD
ENDBRANCH  25  27
ENDBRANCH  24  25
ENDBRANCH  12  24
TORSDOF 4
ENDMDL
MODEL 7
REMARK VINA RESULT:      -5.9      3.835      9.091
REMARK  Name = 
REMARK  7 active torsions:
REMARK  status: ('A' for Active; 'I' for Inactive)
REMARK    1  A    between atoms: C_1  and  C_2
REMARK    2  A    between atoms: C_4  and  C_5
REMARK    3  A    between atoms: N_12  and  C_13
REMARK    4  A    between atoms: C_13  and  C_14
REMARK    5  A    between atoms: C_14  and  C_15
REMARK    6  A    between atoms: C_14  and  N_16
REMARK    7  A    between atoms: C_18  and  C_19
REMARK                            x       y       z     vdW  Elec       q    Type
REMARK                         _______ _______ _______ _____ _____    ______ ____
ROOT
ATOM      1  C   UNL     1       2.322   6.928  19.449  0.00  0.00    +0.000 C 
ATOM      2  C   UNL     1       1.701   8.179  20.000  0.00  0.00    +0.000 A 
ATOM      3  C   UNL     1       1.255   8.222  21.316  0.00  0.00    +0.000 A 
ATOM      4  C   UNL     1       0.677   9.395  21.830  0.00  0.00    +0.000 A 
ATOM      5  C   UNL     1       0.189   9.421  23.251  0.00  0.00    +0.000 C 
ATOM      6  C   UNL     1       0.568  10.505  20.950  0.00  0.00    +0.000 A 
ATOM      7  C   UNL     1       1.046  10.327  19.659  0.00  0.00    +0.000 A 
ATOM      8  N   UNL     1       1.614   9.216  19.148  0.00  0.00    +0.000 NA
ATOM      9  S   UNL     1       0.851  11.694  18.676  0.00  0.00    +0.000 S 
ATOM     10  C   UNL     1       0.094  12.578  19.936  0.00  0.00    +0.000 A 
ATOM     11  C   UNL     1      -0.427  13.874  19.901  0.00  0.00    +0.000 A 
ATOM     12  N   UNL     1      -0.453  14.598  18.711  0.00  0.00    +0.000 N 
ATOM     13  N   UNL     1      -0.953  14.367  21.038  0.00  0.00    +0.000 NA
ATOM     14  C   UNL     1      -0.979  13.599  22.145  0.00  0.00    +0.000 A 
ATOM     15  N   UNL     1      -0.506  12.347  22.247  0.00  0.00    +0.000 NA
ATOM     16  C   UNL     1       0.033  11.838  21.108  0.00  0.00    +0.000 A 
ATOM     17  H   UNL     1       0.133  14.171  17.998  0.00  0.00    +0.000 HD
ENDROOT
BRANCH  14  18
ATOM     18  C   UNL     1      -1.581  14.186  23.365  0.00  0.00    +0.000 A 
ATOM     19  C   UNL     1      -0.908  15.167  24.110  0.00  0.00    +0.000 A 
ATOM     20  C   UNL     1      -1.507  15.691  25.244  0.00  0.00    +0.000 A 
ATOM     21  N   UNL     1      -2.720  15.314  25.694  0.00  0.00    +0.000 NA
ATOM     22  C   UNL     1      -3.364  14.373  24.978  0.00  0.00    +0.000 A 
ATOM     23  C   UNL     1      -2.846  13.791  23.828  0.00  0.00    +0.000 A 
ENDBRANCH  14  18
BRANCH  12  24
ATOM     24  C   UNL     1      -0.343  16.052  18.784  0.00  0.00    +0.000 C 
BRANCH  24  25
ATOM     25  C   UNL     1       1.125  16.415  19.147  0.00  0.00    +0.000 C 
ATOM     26  C   UNL     1       1.189  17.394  20.312  0.00  0.00    +0.000 C 
BRANCH  25  27
ATOM     27  N   UNL     1       1.850  16.977  17.994  0.00  0.00    +0.000 NA
ATOM     28  H   UNL     1       2.730  17.376  18.325  0.00  0.00    +0.000 HD
ATOM     29  H   UNL     1       1.324  17.790  17.664  0.00  0.00    +0.000 HD
ENDBRANCH  25  27
ENDBRANCH  24  25
ENDBRANCH  12  24
TORSDOF 4
ENDMDL
MODEL 8
REMARK VINA RESULT:      -5.9      4.658     10.014
REMARK  Name = 
REMARK  7 active torsions:
REMARK  status: ('A' for Active; 'I' for Inactive)
REMARK    1  A    between atoms: C_1  and  C_2
REMARK    2  A    between atoms: C_4  and  C_5
REMARK    3  A    between atoms: N_12  and  C_13
REMARK    4  A    between atoms: C_13  and  C_14
REMARK    5  A    between atoms: C_14  and  C_15
REMARK    6  A    between atoms: C_14  and  N_16
REMARK    7  A    between atoms: C_18  and  C_19
REMARK                            x       y       z     vdW  Elec       q    Type
REMARK                         _______ _______ _______ _____ _____    ______ ____
ROOT
ATOM      1  C   UNL     1       2.438   8.394  17.720  0.00  0.00    +0.000 C 
ATOM      2  C   UNL     1       1.334   9.238  18.289  0.00  0.00    +0.000 A 
ATOM      3  C   UNL     1       1.471   9.823  19.543  0.00  0.00    +0.000 A 
ATOM      4  C   UNL     1       0.438  10.614  20.072  0.00  0.00    +0.000 A 
ATOM      5  C   UNL     1       0.596  11.229  21.433  0.00  0.00    +0.000 C 
ATOM      6  C   UNL     1      -0.730  10.773  19.278  0.00  0.00    +0.000 A 
ATOM      7  C   UNL     1      -0.740  10.130  18.048  0.00  0.00    +0.000 A 
ATOM      8  N   UNL     1       0.242   9.376  17.516  0.00  0.00    +0.000 NA
ATOM      9  S   UNL     1      -2.182  10.356  17.184  0.00  0.00    +0.000 S 
ATOM     10  C   UNL     1      -2.864  11.310  18.436  0.00  0.00    +0.000 A 
ATOM     11  C   UNL     1      -4.135  11.888  18.499  0.00  0.00    +0.000 A 
ATOM     12  N   UNL     1      -5.072  11.653  17.496  0.00  0.00    +0.000 N 
ATOM     13  N   UNL     1      -4.434  12.624  19.586  0.00  0.00    +0.000 NA
ATOM     14  C   UNL     1      -3.522  12.757  20.569  0.00  0.00    +0.000 A 
ATOM     15  N   UNL     1      -2.290  12.224  20.579  0.00  0.00    +0.000 NA
ATOM     16  C   UNL     1      -1.972  11.482  19.485  0.00  0.00    +0.000 A 
ATOM     17  H   UNL     1      -4.646  11.237  16.672  0.00  0.00    +0.000 HD
ENDROOT
BRANCH  14  18
ATOM     18  C   UNL     1      -3.908  13.567  21.748  0.00  0.00    +0.000 A 
ATOM     19  C   UNL     1      -3.047  14.542  22.275  0.00  0.00    +0.000 A 
ATOM     20  C   UNL     1      -3.448  15.278  23.379  0.00  0.00    +0.000 A 
ATOM     21  N   UNL     1      -4.634  15.118  23.997  0.00  0.00    +0.000 NA
ATOM     22  C   UNL     1      -5.459  14.183  23.490  0.00  0.00    +0.000 A 
ATOM     23  C   UNL     1      -5.147  13.398  22.387  0.00  0.00    +0.000 A 
ENDBRANCH  14  18
BRANCH  12  24
ATOM     24  C   UNL     1      -6.047  12.700  17.201  0.00  0.00    +0.000 C 
BRANCH  24  25
ATOM     25  C   UNL     1      -7.385  12.334  17.903  0.00  0.00    +0.000 C 
ATOM     26  C   UNL     1      -7.845  13.438  18.847  0.00  0.00    +0.000 C 
BRANCH  25  27
ATOM     27  N   UNL     1      -7.284  11.065  18.647  0.00  0.00    +0.000 NA
ATOM     28  H   UNL     1      -8.103  10.973  19.248  0.00  0.00    +0.000 HD
ATOM     29  H   UNL     1      -6.507  11.155  19.307  0.00  0.00    +0.000 HD
ENDBRANCH  25  27
ENDBRANCH  24  25
ENDBRANCH  12  24
TORSDOF 4
ENDMDL
MODEL 9
REMARK VINA RESULT:      -5.9      3.939      9.041
REMARK  Name = 
REMARK  7 active torsions:
REMARK  status: ('A' for Active; 'I' for Inactive)
REMARK    1  A    between atoms: C_1  and  C_2
REMARK    2  A    between atoms: C_4  and  C_5
REMARK    3  A    between atoms: N_12  and  C_13
REMARK    4  A    between atoms: C_13  and  C_14
REMARK    5  A    between atoms: C_14  and  C_15
REMARK    6  A    between atoms: C_14  and  N_16
REMARK    7  A    between atoms: C_18  and  C_19
REMARK                            x       y       z     vdW  Elec       q    Type
REMARK                         _______ _______ _______ _____ _____    ______ ____
ROOT
ATOM      1  C   UNL     1       2.266   6.973  19.412  0.00  0.00    +0.000 C 
ATOM      2  C   UNL     1       1.681   8.233  19.981  0.00  0.00    +0.000 A 
ATOM      3  C   UNL     1       1.160   8.246  21.270  0.00  0.00    +0.000 A 
ATOM      4  C   UNL     1       0.615   9.426  21.802  0.00  0.00    +0.000 A 
ATOM      5  C   UNL     1       0.045   9.421  23.192  0.00  0.00    +0.000 C 
ATOM      6  C   UNL     1       0.618  10.576  20.967  0.00  0.00    +0.000 A 
ATOM      7  C   UNL     1       1.162  10.425  19.699  0.00  0.00    +0.000 A 
ATOM      8  N   UNL     1       1.699   9.307  19.172  0.00  0.00    +0.000 NA
ATOM      9  S   UNL     1       1.098  11.840  18.768  0.00  0.00    +0.000 S 
ATOM     10  C   UNL     1       0.316  12.713  20.020  0.00  0.00    +0.000 A 
ATOM     11  C   UNL     1      -0.133  14.036  20.013  0.00  0.00    +0.000 A 
ATOM     12  N   UNL     1      -0.049  14.809  18.857  0.00  0.00    +0.000 N 
ATOM     13  N   UNL     1      -0.699  14.510  21.139  0.00  0.00    +0.000 NA
ATOM     14  C   UNL     1      -0.832  13.700  22.208  0.00  0.00    +0.000 A 
ATOM     15  N   UNL     1      -0.433  12.420  22.281  0.00  0.00    +0.000 NA
ATOM     16  C   UNL     1       0.146  11.930  21.153  0.00  0.00    +0.000 A 
ATOM     17  H   UNL     1       0.555  14.380  18.161  0.00  0.00    +0.000 HD
ENDROOT
BRANCH  14  18
ATOM     18  C   UNL     1      -1.473  14.269  23.416  0.00  0.00    +0.000 A 
ATOM     19  C   UNL     1      -2.743  13.842  23.837  0.00  0.00    +0.000 A 
ATOM     20  C   UNL     1      -3.306  14.400  24.973  0.00  0.00    +0.000 A 
ATOM     21  N   UNL     1      -2.706  15.347  25.720  0.00  0.00    +0.000 NA
ATOM     22  C   UNL     1      -1.489  15.756  25.315  0.00  0.00    +0.000 A 
ATOM     23  C   UNL     1      -0.843  15.255  24.191  0.00  0.00    +0.000 A 
ENDBRANCH  14  18
BRANCH  12  24
ATOM     24  C   UNL     1       0.133  16.250  19.001  0.00  0.00    +0.000 C 
BRANCH  24  25
ATOM     25  C   UNL     1       1.482  16.642  18.336  0.00  0.00    +0.000 C 
ATOM     26  C   UNL     1       2.671  16.087  19.110  0.00  0.00    +0.000 C 
BRANCH  25  27
ATOM     27  N   UNL     1       1.623  18.103  18.204  0.00  0.00    +0.000 NA
ATOM     28  H   UNL     1       1.580  18.521  19.135  0.00  0.00    +0.000 HD
ATOM     29  H   UNL     1       0.782  18.455  17.741  0.00  0.00    +0.000 HD
ENDBRANCH  25  27
ENDBRANCH  24  25
ENDBRANCH  12  24
TORSDOF 4
ENDMDL
