MODEL 1
REMARK VINA RESULT:      -7.5      0.000      0.000
REMARK  Name = 
REMARK  4 active torsions:
REMARK  status: ('A' for Active; 'I' for Inactive)
REMARK    1  A    between atoms: C_1  and  C_2
REMARK    2  A    between atoms: C_9  and  C_10
REMARK    3  A    between atoms: C_10  and  C_11
REMARK    4  A    between atoms: C_19  and  C_20
REMARK                            x       y       z     vdW  Elec       q    Type
REMARK                         _______ _______ _______ _____ _____    ______ ____
ROOT
ATOM      1  C   UNL     1       3.880   1.678  18.003  0.00  0.00    +0.000 C 
ATOM      2  C   UNL     1       4.722   2.533  18.962  0.00  0.00    +0.000 C 
ATOM      3  C   UNL     1       4.127   2.436  20.375  0.00  0.00    +0.000 C 
ATOM      4  C   UNL     1       2.814   3.207  20.468  0.00  0.00    +0.000 C 
ATOM      5  C   UNL     1       3.010   4.667  20.048  0.00  0.00    +0.000 C 
ATOM      6  C   UNL     1       1.682   5.438  20.168  0.00  0.00    +0.000 C 
ATOM      7  O   UNL     1       0.716   5.036  20.810  0.00  0.00    +0.000 OA
ATOM      8  O   UNL     1       1.714   6.707  19.676  0.00  0.00    +0.000 OA
ATOM      9  C   UNL     1       2.398   6.917  18.424  0.00  0.00    +0.000 C 
ATOM     10  C   UNL     1       3.767   6.224  18.410  0.00  0.00    +0.000 C 
ATOM     11  N   UNL     1       3.589   4.783  18.681  0.00  0.00    +0.000 NA
ATOM     12  C   UNL     1       4.872   4.039  18.568  0.00  0.00    +0.000 C 
ENDROOT
BRANCH  12  13
ATOM     13  C   UNL     1       5.527   4.222  17.195  0.00  0.00    +0.000 A 
ATOM     14  C   UNL     1       6.885   4.569  17.100  0.00  0.00    +0.000 A 
ATOM     15  C   UNL     1       7.474   4.820  15.857  0.00  0.00    +0.000 A 
ATOM     16  C   UNL     1       6.714   4.708  14.694  0.00  0.00    +0.000 A 
ATOM     17 BR   UNL     1       7.507   5.048  13.012  0.00  0.00    +0.000 Br
ATOM     18  C   UNL     1       5.369   4.366  14.763  0.00  0.00    +0.000 A 
ATOM     19  C   UNL     1       4.777   4.142  16.007  0.00  0.00    +0.000 A 
ENDBRANCH  12  13
BRANCH   9  20
ATOM     20  C   UNL     1       2.598   8.426  18.205  0.00  0.00    +0.000 C 
BRANCH  20  21
ATOM     21  C   UNL     1       1.391   9.259  18.561  0.00  0.00    +0.000 A 
ATOM     22  C   UNL     1       1.328   9.903  19.807  0.00  0.00    +0.000 A 
ATOM     23  C   UNL     1       0.227  10.691  20.139  0.00  0.00    +0.000 A 
ATOM     24  C   UNL     1      -0.821  10.840  19.233  0.00  0.00    +0.000 A 
ATOM     25  C   UNL     1      -0.775  10.191  18.000  0.00  0.00    +0.000 A 
ATOM     26  C   UNL     1       0.327   9.402  17.665  0.00  0.00    +0.000 A 
ENDBRANCH  20  21
ENDBRANCH   9  20
TORSDOF 3
ENDMDL
MODEL 2
REMARK VINA RESULT:      -7.5      0.177      1.346
REMARK  Name = 
REMARK  4 active torsions:
REMARK  status: ('A' for Active; 'I' for Inactive)
REMARK    1  A    between atoms: C_1  and  C_2
REMARK    2  A    between atoms: C_9  and  C_10
REMARK    3  A    between atoms: C_10  and  C_11
REMARK    4  A    between atoms: C_19  and  C_20
REMARK                            x       y       z     vdW  Elec       q    Type
REMARK                         _______ _______ _______ _____ _____    ______ ____
ROOT
ATOM      1  C   UNL     1       3.908   1.745  17.848  0.00  0.00    +0.000 C 
ATOM      2  C   UNL     1       4.748   2.561  18.842  0.00  0.00    +0.000 C 
ATOM      3  C   UNL     1       4.165   2.385  20.253  0.00  0.00    +0.000 C 
ATOM      4  C   UNL     1       2.844   3.133  20.395  0.00  0.00    +0.000 C 
ATOM      5  C   UNL     1       3.018   4.615  20.048  0.00  0.00    +0.000 C 
ATOM      6  C   UNL     1       1.681   5.362  20.216  0.00  0.00    +0.000 C 
ATOM      7  O   UNL     1       0.726   4.915  20.844  0.00  0.00    +0.000 OA
ATOM      8  O   UNL     1       1.694   6.654  19.789  0.00  0.00    +0.000 OA
ATOM      9  C   UNL     1       2.365   6.936  18.544  0.00  0.00    +0.000 C 
ATOM     10  C   UNL     1       3.743   6.262  18.486  0.00  0.00    +0.000 C 
ATOM     11  N   UNL     1       3.585   4.807  18.684  0.00  0.00    +0.000 NA
ATOM     12  C   UNL     1       4.876   4.086  18.524  0.00  0.00    +0.000 C 
ENDROOT
BRANCH  12  13
ATOM     13  C   UNL     1       5.517   4.346  17.157  0.00  0.00    +0.000 A 
ATOM     14  C   UNL     1       4.756   4.213  15.983  0.00  0.00    +0.000 A 
ATOM     15  C   UNL     1       5.349   4.366  14.726  0.00  0.00    +0.000 A 
ATOM     16  C   UNL     1       6.705   4.673  14.630  0.00  0.00    +0.000 A 
ATOM     17 BR   UNL     1       7.509   4.879  12.932  0.00  0.00    +0.000 Br
ATOM     18  C   UNL     1       7.477   4.809  15.778  0.00  0.00    +0.000 A 
ATOM     19  C   UNL     1       6.889   4.630  17.031  0.00  0.00    +0.000 A 
ENDBRANCH  12  13
BRANCH   9  20
ATOM     20  C   UNL     1       2.545   8.457  18.400  0.00  0.00    +0.000 C 
BRANCH  20  21
ATOM     21  C   UNL     1       1.317   9.253  18.769  0.00  0.00    +0.000 A 
ATOM     22  C   UNL     1       0.348   9.536  17.795  0.00  0.00    +0.000 A 
ATOM     23  C   UNL     1      -0.800  10.254  18.129  0.00  0.00    +0.000 A 
ATOM     24  C   UNL     1      -0.988  10.697  19.436  0.00  0.00    +0.000 A 
ATOM     25  C   UNL     1      -0.023  10.435  20.407  0.00  0.00    +0.000 A 
ATOM     26  C   UNL     1       1.127   9.716  20.075  0.00  0.00    +0.000 A 
ENDBRANCH  20  21
ENDBRANCH   9  20
TORSDOF 3
ENDMDL
MODEL 3
REMARK VINA RESULT:      -7.4      2.656      3.452
REMARK  Name = 
REMARK  4 active torsions:
REMARK  status: ('A' for Active; 'I' for Inactive)
REMARK    1  A    between atoms: C_1  and  C_2
REMARK    2  A    between atoms: C_9  and  C_10
REMARK    3  A    between atoms: C_10  and  C_11
REMARK    4  A    between atoms: C_19  and  C_20
REMARK                            x       y       z     vdW  Elec       q    Type
REMARK                         _______ _______ _______ _____ _____    ______ ____
ROOT
ATOM      1  C   UNL     1       6.064   5.092  15.038  0.00  0.00    +0.000 C 
ATOM      2  C   UNL     1       6.260   4.291  16.334  0.00  0.00    +0.000 C 
ATOM      3  C   UNL     1       5.424   3.003  16.257  0.00  0.00    +0.000 C 
ATOM      4  C   UNL     1       3.937   3.309  16.394  0.00  0.00    +0.000 C 
ATOM      5  C   UNL     1       3.656   4.075  17.690  0.00  0.00    +0.000 C 
ATOM      6  C   UNL     1       2.148   4.358  17.826  0.00  0.00    +0.000 C 
ATOM      7  O   UNL     1       1.285   3.776  17.177  0.00  0.00    +0.000 OA
ATOM      8  O   UNL     1       1.812   5.165  18.870  0.00  0.00    +0.000 OA
ATOM      9  C   UNL     1       2.645   6.317  19.115  0.00  0.00    +0.000 C 
ATOM     10  C   UNL     1       4.134   5.948  19.085  0.00  0.00    +0.000 C 
ATOM     11  N   UNL     1       4.459   5.327  17.785  0.00  0.00    +0.000 NA
ATOM     12  C   UNL     1       5.915   5.051  17.655  0.00  0.00    +0.000 C 
ENDROOT
BRANCH  12  13
ATOM     13  C   UNL     1       6.760   6.315  17.840  0.00  0.00    +0.000 A 
ATOM     14  C   UNL     1       7.820   6.327  18.764  0.00  0.00    +0.000 A 
ATOM     15  C   UNL     1       8.546   7.498  19.003  0.00  0.00    +0.000 A 
ATOM     16  C   UNL     1       8.232   8.664  18.307  0.00  0.00    +0.000 A 
ATOM     17 BR   UNL     1       9.212  10.248  18.629  0.00  0.00    +0.000 Br
ATOM     18  C   UNL     1       7.188   8.675  17.389  0.00  0.00    +0.000 A 
ATOM     19  C   UNL     1       6.448   7.513  17.172  0.00  0.00    +0.000 A 
ENDBRANCH  12  13
BRANCH   9  20
ATOM     20  C   UNL     1       2.301   6.904  20.494  0.00  0.00    +0.000 C 
BRANCH  20  21
ATOM     21  C   UNL     1       1.509   8.188  20.430  0.00  0.00    +0.000 A 
ATOM     22  C   UNL     1       0.823   8.644  21.566  0.00  0.00    +0.000 A 
ATOM     23  C   UNL     1       0.105   9.838  21.524  0.00  0.00    +0.000 A 
ATOM     24  C   UNL     1       0.063  10.584  20.348  0.00  0.00    +0.000 A 
ATOM     25  C   UNL     1       0.728  10.131  19.210  0.00  0.00    +0.000 A 
ATOM     26  C   UNL     1       1.448   8.936  19.250  0.00  0.00    +0.000 A 
ENDBRANCH  20  21
ENDBRANCH   9  20
TORSDOF 3
ENDMDL
MODEL 4
REMARK VINA RESULT:      -7.3      0.696      1.173
REMARK  Name = 
REMARK  4 active torsions:
REMARK  status: ('A' for Active; 'I' for Inactive)
REMARK    1  A    between atoms: C_1  and  C_2
REMARK    2  A    between atoms: C_9  and  C_10
REMARK    3  A    between atoms: C_10  and  C_11
REMARK    4  A    between atoms: C_19  and  C_20
REMARK                            x       y       z     vdW  Elec       q    Type
REMARK                         _______ _______ _______ _____ _____    ______ ____
ROOT
ATOM      1  C   UNL     1       3.726   2.019  17.889  0.00  0.00    +0.000 C 
ATOM      2  C   UNL     1       4.682   2.867  18.741  0.00  0.00    +0.000 C 
ATOM      3  C   UNL     1       4.194   2.860  20.199  0.00  0.00    +0.000 C 
ATOM      4  C   UNL     1       2.933   3.703  20.355  0.00  0.00    +0.000 C 
ATOM      5  C   UNL     1       3.168   5.132  19.856  0.00  0.00    +0.000 C 
ATOM      6  C   UNL     1       1.893   5.977  20.040  0.00  0.00    +0.000 C 
ATOM      7  O   UNL     1       0.961   5.654  20.770  0.00  0.00    +0.000 OA
ATOM      8  O   UNL     1       1.951   7.221  19.490  0.00  0.00    +0.000 OA
ATOM      9  C   UNL     1       2.546   7.343  18.182  0.00  0.00    +0.000 C 
ATOM     10  C   UNL     1       3.873   6.577  18.097  0.00  0.00    +0.000 C 
ATOM     11  N   UNL     1       3.645   5.160  18.445  0.00  0.00    +0.000 NA
ATOM     12  C   UNL     1       4.876   4.344  18.270  0.00  0.00    +0.000 C 
ENDROOT
BRANCH  12  13
ATOM     13  C   UNL     1       5.430   4.435  16.844  0.00  0.00    +0.000 A 
ATOM     14  C   UNL     1       4.582   4.234  15.742  0.00  0.00    +0.000 A 
ATOM     15  C   UNL     1       5.090   4.232  14.440  0.00  0.00    +0.000 A 
ATOM     16  C   UNL     1       6.450   4.448  14.225  0.00  0.00    +0.000 A 
ATOM     17 BR   UNL     1       7.140   4.444  12.465  0.00  0.00    +0.000 Br
ATOM     18  C   UNL     1       7.308   4.649  15.300  0.00  0.00    +0.000 A 
ATOM     19  C   UNL     1       6.803   4.625  16.600  0.00  0.00    +0.000 A 
ENDBRANCH  12  13
BRANCH   9  20
ATOM     20  C   UNL     1       2.804   8.828  17.880  0.00  0.00    +0.000 C 
BRANCH  20  21
ATOM     21  C   UNL     1       1.608   9.717  18.125  0.00  0.00    +0.000 A 
ATOM     22  C   UNL     1       1.784  10.985  18.699  0.00  0.00    +0.000 A 
ATOM     23  C   UNL     1       0.689  11.822  18.911  0.00  0.00    +0.000 A 
ATOM     24  C   UNL     1      -0.589  11.398  18.556  0.00  0.00    +0.000 A 
ATOM     25  C   UNL     1      -0.777  10.133  18.001  0.00  0.00    +0.000 A 
ATOM     26  C   UNL     1       0.318   9.294  17.787  0.00  0.00    +0.000 A 
ENDBRANCH  20  21
ENDBRANCH   9  20
TORSDOF 3
ENDMDL
MODEL 5
REMARK VINA RESULT:      -7.3      2.709      3.715
REMARK  Name = 
REMARK  4 active torsions:
REMARK  status: ('A' for Active; 'I' for Inactive)
REMARK    1  A    between atoms: C_1  and  C_2
REMARK    2  A    between atoms: C_9  and  C_10
REMARK    3  A    between atoms: C_10  and  C_11
REMARK    4  A    between atoms: C_19  and  C_20
REMARK                            x       y       z     vdW  Elec       q    Type
REMARK                         _______ _______ _______ _____ _____    ______ ____
ROOT
ATOM      1  C   UNL     1       6.110   5.334  15.043  0.00  0.00    +0.000 C 
ATOM      2  C   UNL     1       6.340   4.497  16.310  0.00  0.00    +0.000 C 
ATOM      3  C   UNL     1       5.569   3.173  16.183  0.00  0.00    +0.000 C 
ATOM      4  C   UNL     1       4.068   3.400  16.323  0.00  0.00    +0.000 C 
ATOM      5  C   UNL     1       3.745   4.104  17.644  0.00  0.00    +0.000 C 
ATOM      6  C   UNL     1       2.225   4.307  17.782  0.00  0.00    +0.000 C 
ATOM      7  O   UNL     1       1.393   3.707  17.108  0.00  0.00    +0.000 OA
ATOM      8  O   UNL     1       1.845   5.058  18.852  0.00  0.00    +0.000 OA
ATOM      9  C   UNL     1       2.619   6.240  19.144  0.00  0.00    +0.000 C 
ATOM     10  C   UNL     1       4.125   5.946  19.109  0.00  0.00    +0.000 C 
ATOM     11  N   UNL     1       4.485   5.389  17.789  0.00  0.00    +0.000 NA
ATOM     12  C   UNL     1       5.953   5.191  17.657  0.00  0.00    +0.000 C 
ENDROOT
BRANCH  12  13
ATOM     13  C   UNL     1       6.734   6.487  17.892  0.00  0.00    +0.000 A 
ATOM     14  C   UNL     1       6.379   7.661  17.205  0.00  0.00    +0.000 A 
ATOM     15  C   UNL     1       7.134   8.829  17.347  0.00  0.00    +0.000 A 
ATOM     16  C   UNL     1       8.243   8.840  18.192  0.00  0.00    +0.000 A 
ATOM     17 BR   UNL     1       9.266  10.417  18.386  0.00  0.00    +0.000 Br
ATOM     18  C   UNL     1       8.613   7.691  18.881  0.00  0.00    +0.000 A 
ATOM     19  C   UNL     1       7.873   6.520  18.718  0.00  0.00    +0.000 A 
ENDBRANCH  12  13
BRANCH   9  20
ATOM     20  C   UNL     1       2.242   6.759  20.541  0.00  0.00    +0.000 C 
BRANCH  20  21
ATOM     21  C   UNL     1       1.490   8.068  20.523  0.00  0.00    +0.000 A 
ATOM     22  C   UNL     1       1.432   8.825  19.343  0.00  0.00    +0.000 A 
ATOM     23  C   UNL     1       0.724  10.026  19.309  0.00  0.00    +0.000 A 
ATOM     24  C   UNL     1       0.073  10.482  20.452  0.00  0.00    +0.000 A 
ATOM     25  C   UNL     1       0.139   9.746  21.634  0.00  0.00    +0.000 A 
ATOM     26  C   UNL     1       0.846   8.543  21.670  0.00  0.00    +0.000 A 
ENDBRANCH  20  21
ENDBRANCH   9  20
TORSDOF 3
ENDMDL
MODEL 6
REMARK VINA RESULT:      -7.3      4.543      6.588
REMARK  Name = 
REMARK  4 active torsions:
REMARK  status: ('A' for Active; 'I' for Inactive)
REMARK    1  A    between atoms: C_1  and  C_2
REMARK    2  A    between atoms: C_9  and  C_10
REMARK    3  A    between atoms: C_10  and  C_11
REMARK    4  A    between atoms: C_19  and  C_20
REMARK                            x       y       z     vdW  Elec       q    Type
REMARK                         _______ _______ _______ _____ _____    ______ ____
ROOT
ATOM      1  C   UNL     1       3.013   4.641  20.116  0.00  0.00    +0.000 C 
ATOM      2  C   UNL     1       3.012   4.703  18.582  0.00  0.00    +0.000 C 
ATOM      3  C   UNL     1       3.799   3.503  18.031  0.00  0.00    +0.000 C 
ATOM      4  C   UNL     1       5.295   3.675  18.271  0.00  0.00    +0.000 C 
ATOM      5  C   UNL     1       5.794   4.990  17.665  0.00  0.00    +0.000 C 
ATOM      6  C   UNL     1       7.310   5.141  17.895  0.00  0.00    +0.000 C 
ATOM      7  O   UNL     1       8.047   4.211  18.210  0.00  0.00    +0.000 OA
ATOM      8  O   UNL     1       7.825   6.346  17.526  0.00  0.00    +0.000 OA
ATOM      9  C   UNL     1       7.065   7.525  17.863  0.00  0.00    +0.000 C 
ATOM     10  C   UNL     1       5.583   7.359  17.500  0.00  0.00    +0.000 C 
ATOM     11  N   UNL     1       5.042   6.167  18.184  0.00  0.00    +0.000 NA
ATOM     12  C   UNL     1       3.579   6.020  17.960  0.00  0.00    +0.000 C 
ENDROOT
BRANCH  12  13
ATOM     13  C   UNL     1       2.799   7.261  18.407  0.00  0.00    +0.000 A 
ATOM     14  C   UNL     1       2.314   7.354  19.722  0.00  0.00    +0.000 A 
ATOM     15  C   UNL     1       1.531   8.442  20.120  0.00  0.00    +0.000 A 
ATOM     16  C   UNL     1       1.239   9.457  19.210  0.00  0.00    +0.000 A 
ATOM     17 BR   UNL     1       0.180  10.928  19.744  0.00  0.00    +0.000 Br
ATOM     18  C   UNL     1       1.708   9.385  17.903  0.00  0.00    +0.000 A 
ATOM     19  C   UNL     1       2.468   8.286  17.502  0.00  0.00    +0.000 A 
ENDBRANCH  12  13
BRANCH   9  20
ATOM     20  C   UNL     1       7.637   8.730  17.097  0.00  0.00    +0.000 C 
BRANCH  20  21
ATOM     21  C   UNL     1       8.315   9.748  17.982  0.00  0.00    +0.000 A 
ATOM     22  C   UNL     1       8.954   9.335  19.161  0.00  0.00    +0.000 A 
ATOM     23  C   UNL     1       9.600  10.264  19.975  0.00  0.00    +0.000 A 
ATOM     24  C   UNL     1       9.612  11.611  19.621  0.00  0.00    +0.000 A 
ATOM     25  C   UNL     1       8.966  12.033  18.460  0.00  0.00    +0.000 A 
ATOM     26  C   UNL     1       8.319  11.105  17.643  0.00  0.00    +0.000 A 
ENDBRANCH  20  21
ENDBRANCH   9  20
TORSDOF 3
ENDMDL
MODEL 7
REMARK VINA RESULT:      -7.2      4.534      6.595
REMARK  Name = 
REMARK  4 active torsions:
REMARK  status: ('A' for Active; 'I' for Inactive)
REMARK    1  A    between atoms: C_1  and  C_2
REMARK    2  A    between atoms: C_9  and  C_10
REMARK    3  A    between atoms: C_10  and  C_11
REMARK    4  A    between atoms: C_19  and  C_20
REMARK                            x       y       z     vdW  Elec       q    Type
REMARK                         _______ _______ _______ _____ _____    ______ ____
ROOT
ATOM      1  C   UNL     1       3.109   4.401  20.029  0.00  0.00    +0.000 C 
ATOM      2  C   UNL     1       3.111   4.490  18.496  0.00  0.00    +0.000 C 
ATOM      3  C   UNL     1       3.951   3.336  17.928  0.00  0.00    +0.000 C 
ATOM      4  C   UNL     1       5.437   3.568  18.177  0.00  0.00    +0.000 C 
ATOM      5  C   UNL     1       5.882   4.915  17.597  0.00  0.00    +0.000 C 
ATOM      6  C   UNL     1       7.389   5.127  17.836  0.00  0.00    +0.000 C 
ATOM      7  O   UNL     1       8.164   4.225  18.138  0.00  0.00    +0.000 OA
ATOM      8  O   UNL     1       7.852   6.360  17.491  0.00  0.00    +0.000 OA
ATOM      9  C   UNL     1       7.040   7.498  17.846  0.00  0.00    +0.000 C 
ATOM     10  C   UNL     1       5.568   7.274  17.473  0.00  0.00    +0.000 C 
ATOM     11  N   UNL     1       5.077   6.048  18.133  0.00  0.00    +0.000 NA
ATOM     12  C   UNL     1       3.623   5.842  17.900  0.00  0.00    +0.000 C 
ENDROOT
BRANCH  12  13
ATOM     13  C   UNL     1       2.788   7.039  18.365  0.00  0.00    +0.000 A 
ATOM     14  C   UNL     1       2.512   8.095  17.479  0.00  0.00    +0.000 A 
ATOM     15  C   UNL     1       1.823   9.231  17.914  0.00  0.00    +0.000 A 
ATOM     16  C   UNL     1       1.386   9.315  19.235  0.00  0.00    +0.000 A 
ATOM     17 BR   UNL     1       0.456  10.851  19.826  0.00  0.00    +0.000 Br
ATOM     18  C   UNL     1       1.648   8.283  20.129  0.00  0.00    +0.000 A 
ATOM     19  C   UNL     1       2.359   7.162  19.699  0.00  0.00    +0.000 A 
ENDBRANCH  12  13
BRANCH   9  20
ATOM     20  C   UNL     1       7.562   8.741  17.104  0.00  0.00    +0.000 C 
BRANCH  20  21
ATOM     21  C   UNL     1       8.290   9.720  17.992  0.00  0.00    +0.000 A 
ATOM     22  C   UNL     1       8.358  11.074  17.632  0.00  0.00    +0.000 A 
ATOM     23  C   UNL     1       9.012  11.991  18.455  0.00  0.00    +0.000 A 
ATOM     24  C   UNL     1       9.604  11.563  19.641  0.00  0.00    +0.000 A 
ATOM     25  C   UNL     1       9.556  10.217  19.998  0.00  0.00    +0.000 A 
ATOM     26  C   UNL     1       8.902   9.297  19.177  0.00  0.00    +0.000 A 
ENDBRANCH  20  21
ENDBRANCH   9  20
TORSDOF 3
ENDMDL
MODEL 8
REMARK VINA RESULT:      -7.0      1.997      2.651
REMARK  Name = 
REMARK  4 active torsions:
REMARK  status: ('A' for Active; 'I' for Inactive)
REMARK    1  A    between atoms: C_1  and  C_2
REMARK    2  A    between atoms: C_9  and  C_10
REMARK    3  A    between atoms: C_10  and  C_11
REMARK    4  A    between atoms: C_19  and  C_20
REMARK                            x       y       z     vdW  Elec       q    Type
REMARK                         _______ _______ _______ _____ _____    ______ ____
ROOT
ATOM      1  C   UNL     1       4.468   3.161  16.160  0.00  0.00    +0.000 C 
ATOM      2  C   UNL     1       4.841   2.764  17.596  0.00  0.00    +0.000 C 
ATOM      3  C   UNL     1       3.976   1.568  18.026  0.00  0.00    +0.000 C 
ATOM      4  C   UNL     1       2.534   1.999  18.271  0.00  0.00    +0.000 C 
ATOM      5  C   UNL     1       2.472   3.128  19.304  0.00  0.00    +0.000 C 
ATOM      6  C   UNL     1       1.009   3.538  19.558  0.00  0.00    +0.000 C 
ATOM      7  O   UNL     1       0.044   2.849  19.241  0.00  0.00    +0.000 OA
ATOM      8  O   UNL     1       0.854   4.635  20.348  0.00  0.00    +0.000 OA
ATOM      9  C   UNL     1       1.739   5.751  20.119  0.00  0.00    +0.000 C 
ATOM     10  C   UNL     1       3.198   5.291  19.993  0.00  0.00    +0.000 C 
ATOM     11  N   UNL     1       3.307   4.296  18.907  0.00  0.00    +0.000 NA
ATOM     12  C   UNL     1       4.719   3.899  18.664  0.00  0.00    +0.000 C 
ENDROOT
BRANCH  12  13
ATOM     13  C   UNL     1       5.610   5.103  18.342  0.00  0.00    +0.000 A 
ATOM     14  C   UNL     1       6.876   5.225  18.941  0.00  0.00    +0.000 A 
ATOM     15  C   UNL     1       7.664   6.359  18.721  0.00  0.00    +0.000 A 
ATOM     16  C   UNL     1       7.203   7.373  17.884  0.00  0.00    +0.000 A 
ATOM     17 BR   UNL     1       8.266   8.907  17.586  0.00  0.00    +0.000 Br
ATOM     18  C   UNL     1       5.954   7.274  17.281  0.00  0.00    +0.000 A 
ATOM     19  C   UNL     1       5.158   6.154  17.523  0.00  0.00    +0.000 A 
ENDBRANCH  12  13
BRANCH   9  20
ATOM     20  C   UNL     1       1.623   6.737  21.292  0.00  0.00    +0.000 C 
BRANCH  20  21
ATOM     21  C   UNL     1       1.160   8.116  20.886  0.00  0.00    +0.000 A 
ATOM     22  C   UNL     1       0.442   8.908  21.795  0.00  0.00    +0.000 A 
ATOM     23  C   UNL     1       0.026  10.190  21.438  0.00  0.00    +0.000 A 
ATOM     24  C   UNL     1       0.320  10.689  20.172  0.00  0.00    +0.000 A 
ATOM     25  C   UNL     1       1.018   9.903  19.256  0.00  0.00    +0.000 A 
ATOM     26  C   UNL     1       1.436   8.620  19.612  0.00  0.00    +0.000 A 
ENDBRANCH  20  21
ENDBRANCH   9  20
TORSDOF 3
ENDMDL
MODEL 9
REMARK VINA RESULT:      -7.0      5.797     11.123
REMARK  Name = 
REMARK  4 active torsions:
REMARK  status: ('A' for Active; 'I' for Inactive)
REMARK    1  A    between atoms: C_1  and  C_2
REMARK    2  A    between atoms: C_9  and  C_10
REMARK    3  A    between atoms: C_10  and  C_11
REMARK    4  A    between atoms: C_19  and  C_20
REMARK                            x       y       z     vdW  Elec       q    Type
REMARK                         _______ _______ _______ _____ _____    ______ ____
ROOT
ATOM      1  C   UNL     1      -6.496  11.915  20.618  0.00  0.00    +0.000 C 
ATOM      2  C   UNL     1      -5.811  12.930  19.690  0.00  0.00    +0.000 C 
ATOM      3  C   UNL     1      -6.096  12.545  18.229  0.00  0.00    +0.000 C 
ATOM      4  C   UNL     1      -5.312  11.299  17.831  0.00  0.00    +0.000 C 
ATOM      5  C   UNL     1      -3.812  11.501  18.069  0.00  0.00    +0.000 C 
ATOM      6  C   UNL     1      -3.031  10.244  17.643  0.00  0.00    +0.000 C 
ATOM      7  O   UNL     1      -3.496   9.364  16.924  0.00  0.00    +0.000 OA
ATOM      8  O   UNL     1      -1.706  10.264  17.953  0.00  0.00    +0.000 OA
ATOM      9  C   UNL     1      -1.335  10.766  19.254  0.00  0.00    +0.000 C 
ATOM     10  C   UNL     1      -2.056  12.083  19.571  0.00  0.00    +0.000 C 
ATOM     11  N   UNL     1      -3.516  11.878  19.480  0.00  0.00    +0.000 NA
ATOM     12  C   UNL     1      -4.270  13.093  19.889  0.00  0.00    +0.000 C 
ENDROOT
BRANCH  12  13
ATOM     13  C   UNL     1      -3.908  13.546  21.307  0.00  0.00    +0.000 A 
ATOM     14  C   UNL     1      -3.673  14.906  21.576  0.00  0.00    +0.000 A 
ATOM     15  C   UNL     1      -3.262  15.323  22.846  0.00  0.00    +0.000 A 
ATOM     16  C   UNL     1      -3.098  14.386  23.865  0.00  0.00    +0.000 A 
ATOM     17 BR   UNL     1      -2.541  14.947  25.581  0.00  0.00    +0.000 Br
ATOM     18  C   UNL     1      -3.324  13.036  23.622  0.00  0.00    +0.000 A 
ATOM     19  C   UNL     1      -3.709  12.620  22.347  0.00  0.00    +0.000 A 
ENDBRANCH  12  13
BRANCH   9  20
ATOM     20  C   UNL     1       0.184  11.005  19.289  0.00  0.00    +0.000 C 
BRANCH  20  21
ATOM     21  C   UNL     1       1.002   9.742  19.160  0.00  0.00    +0.000 A 
ATOM     22  C   UNL     1       1.655   9.452  17.953  0.00  0.00    +0.000 A 
ATOM     23  C   UNL     1       2.430   8.299  17.829  0.00  0.00    +0.000 A 
ATOM     24  C   UNL     1       2.555   7.427  18.907  0.00  0.00    +0.000 A 
ATOM     25  C   UNL     1       1.897   7.698  20.105  0.00  0.00    +0.000 A 
ATOM     26  C   UNL     1       1.121   8.852  20.232  0.00  0.00    +0.000 A 
ENDBRANCH  20  21
ENDBRANCH   9  20
TORSDOF 3
ENDMDL
