MODEL 1
REMARK VINA RESULT:      -6.7      0.000      0.000
REMARK  Name = 
REMARK  17 active torsions:
REMARK  status: ('A' for Active; 'I' for Inactive)
REMARK    1  A    between atoms: C_1  and  C_2
REMARK    2  A    between atoms: C_2  and  C_3
REMARK    3  A    between atoms: C_3  and  O_4
REMARK    4  A    between atoms: O_4  and  C_5
REMARK    5  A    between atoms: C_5  and  C_6
REMARK    6  A    between atoms: C_6  and  O_7
REMARK    7  A    between atoms: C_6  and  C_8
REMARK    8  A    between atoms: C_9  and  C_10
REMARK    9  A    between atoms: C_11  and  O_12
REMARK   10  A    between atoms: C_14  and  O_15
REMARK   11  A    between atoms: C_16  and  C_17
REMARK   12  A    between atoms: C_17  and  C_18
REMARK   13  A    between atoms: C_19  and  C_20
REMARK   14  A    between atoms: C_20  and  C_21
REMARK   15  A    between atoms: C_21  and  C_22
REMARK   16  A    between atoms: C_22  and  C_23
REMARK   17  A    between atoms: C_23  and  O_25
REMARK                            x       y       z     vdW  Elec       q    Type
REMARK                         _______ _______ _______ _____ _____    ______ ____
ROOT
ATOM      1  C   UNL     1       4.395   5.951  17.312  0.00  0.00    +0.000 C 
ATOM      2  C   UNL     1       5.474   6.793  16.614  0.00  0.00    +0.000 C 
ATOM      3  C   UNL     1       6.775   6.044  16.841  0.00  0.00    +0.000 C 
ATOM      4  C   UNL     1       6.633   5.398  18.211  0.00  0.00    +0.000 C 
ATOM      5  C   UNL     1       5.118   5.234  18.476  0.00  0.00    +0.000 C 
ENDROOT
BRANCH   2   6
ATOM      6  O   UNL     1       5.215   6.907  15.219  0.00  0.00    +0.000 OA
ATOM      7  H   UNL     1       4.256   6.813  15.078  0.00  0.00    +0.000 HD
ENDBRANCH   2   6
BRANCH   4   8
ATOM      8  O   UNL     1       7.410   4.215  18.275  0.00  0.00    +0.000 OA
ATOM      9  H   UNL     1       8.155   4.369  18.883  0.00  0.00    +0.000 HD
ENDBRANCH   4   8
BRANCH   1  11
ATOM     10  C   UNL     1       2.913   6.985  19.077  0.00  0.00    +0.000 C 
ATOM     11  C   UNL     1       3.229   6.787  17.785  0.00  0.00    +0.000 C 
BRANCH  10  12
ATOM     12  C   UNL     1       1.768   7.842  19.561  0.00  0.00    +0.000 C 
BRANCH  12  13
ATOM     13  O   UNL     1       1.809   7.923  20.989  0.00  0.00    +0.000 OA
ATOM     14  H   UNL     1       2.346   7.169  21.293  0.00  0.00    +0.000 HD
ENDBRANCH  12  13
BRANCH  12  15
ATOM     15  C   UNL     1       1.784   9.273  18.996  0.00  0.00    +0.000 C 
BRANCH  15  16
ATOM     16  O   UNL     1       0.610   9.548  18.229  0.00  0.00    +0.000 OA
BRANCH  16  17
ATOM     17  C   UNL     1      -0.385  10.187  19.032  0.00  0.00    +0.000 C 
BRANCH  17  19
ATOM     18  C   UNL     1      -1.944   9.916  17.082  0.00  0.00    +0.000 C 
ATOM     19  C   UNL     1      -1.390  10.876  18.120  0.00  0.00    +0.000 C 
ENDBRANCH  17  19
ENDBRANCH  16  17
ENDBRANCH  15  16
ENDBRANCH  12  15
ENDBRANCH  10  12
ENDBRANCH   1  11
BRANCH   5  20
ATOM     20  C   UNL     1       4.588   3.809  18.706  0.00  0.00    +0.000 C 
BRANCH  20  21
ATOM     21  C   UNL     1       3.974   3.152  17.493  0.00  0.00    +0.000 C 
ATOM     22  C   UNL     1       2.658   3.002  17.273  0.00  0.00    +0.000 C 
BRANCH  22  23
ATOM     23  C   UNL     1       1.565   3.486  18.187  0.00  0.00    +0.000 C 
BRANCH  23  24
ATOM     24  C   UNL     1       1.259   2.464  19.280  0.00  0.00    +0.000 C 
BRANCH  24  25
ATOM     25  C   UNL     1       0.831   3.132  20.584  0.00  0.00    +0.000 C 
BRANCH  25  26
ATOM     26  C   UNL     1       2.005   3.647  21.373  0.00  0.00    +0.000 C 
ATOM     27  O   UNL     1       2.368   4.815  21.432  0.00  0.00    +0.000 OA
BRANCH  26  28
ATOM     28  O   UNL     1       2.639   2.657  22.042  0.00  0.00    +0.000 OA
ATOM     29  H   UNL     1       2.926   2.914  22.938  0.00  0.00    +0.000 HD
ENDBRANCH  26  28
ENDBRANCH  25  26
ENDBRANCH  24  25
ENDBRANCH  23  24
ENDBRANCH  22  23
ENDBRANCH  20  21
ENDBRANCH   5  20
TORSDOF 16
ENDMDL
MODEL 2
REMARK VINA RESULT:      -6.7      3.814      6.151
REMARK  Name = 
REMARK  17 active torsions:
REMARK  status: ('A' for Active; 'I' for Inactive)
REMARK    1  A    between atoms: C_1  and  C_2
REMARK    2  A    between atoms: C_2  and  C_3
REMARK    3  A    between atoms: C_3  and  O_4
REMARK    4  A    between atoms: O_4  and  C_5
REMARK    5  A    between atoms: C_5  and  C_6
REMARK    6  A    between atoms: C_6  and  O_7
REMARK    7  A    between atoms: C_6  and  C_8
REMARK    8  A    between atoms: C_9  and  C_10
REMARK    9  A    between atoms: C_11  and  O_12
REMARK   10  A    between atoms: C_14  and  O_15
REMARK   11  A    between atoms: C_16  and  C_17
REMARK   12  A    between atoms: C_17  and  C_18
REMARK   13  A    between atoms: C_19  and  C_20
REMARK   14  A    between atoms: C_20  and  C_21
REMARK   15  A    between atoms: C_21  and  C_22
REMARK   16  A    between atoms: C_22  and  C_23
REMARK   17  A    between atoms: C_23  and  O_25
REMARK                            x       y       z     vdW  Elec       q    Type
REMARK                         _______ _______ _______ _____ _____    ______ ____
ROOT
ATOM      1  C   UNL     1       5.926   4.098  16.433  0.00  0.00    +0.000 C 
ATOM      2  C   UNL     1       7.076   4.957  16.979  0.00  0.00    +0.000 C 
ATOM      3  C   UNL     1       6.702   5.260  18.419  0.00  0.00    +0.000 C 
ATOM      4  C   UNL     1       5.186   5.364  18.427  0.00  0.00    +0.000 C 
ATOM      5  C   UNL     1       4.671   4.535  17.226  0.00  0.00    +0.000 C 
ENDROOT
BRANCH   2   6
ATOM      6  O   UNL     1       8.312   4.250  16.935  0.00  0.00    +0.000 OA
ATOM      7  H   UNL     1       8.853   4.534  17.693  0.00  0.00    +0.000 HD
ENDBRANCH   2   6
BRANCH   4   8
ATOM      8  O   UNL     1       4.678   5.001  19.698  0.00  0.00    +0.000 OA
ATOM      9  H   UNL     1       3.825   5.452  19.830  0.00  0.00    +0.000 HD
ENDBRANCH   4   8
BRANCH   1  11
ATOM     10  C   UNL     1       6.291   3.431  14.025  0.00  0.00    +0.000 C 
ATOM     11  C   UNL     1       5.749   4.252  14.942  0.00  0.00    +0.000 C 
BRANCH  10  12
ATOM     12  C   UNL     1       6.097   3.559  12.533  0.00  0.00    +0.000 C 
BRANCH  12  13
ATOM     13  O   UNL     1       6.654   2.412  11.884  0.00  0.00    +0.000 OA
ATOM     14  H   UNL     1       6.635   2.600  10.928  0.00  0.00    +0.000 HD
ENDBRANCH  12  13
BRANCH  12  15
ATOM     15  C   UNL     1       4.623   3.686  12.110  0.00  0.00    +0.000 C 
BRANCH  15  16
ATOM     16  O   UNL     1       4.384   3.066  10.844  0.00  0.00    +0.000 OA
BRANCH  16  17
ATOM     17  C   UNL     1       3.074   3.371  10.367  0.00  0.00    +0.000 C 
BRANCH  17  19
ATOM     18  C   UNL     1       1.939   5.112   8.956  0.00  0.00    +0.000 C 
ATOM     19  C   UNL     1       3.189   4.269   9.142  0.00  0.00    +0.000 C 
ENDBRANCH  17  19
ENDBRANCH  16  17
ENDBRANCH  15  16
ENDBRANCH  12  15
ENDBRANCH  10  12
ENDBRANCH   1  11
BRANCH   5  20
ATOM     20  C   UNL     1       3.729   3.358  17.527  0.00  0.00    +0.000 C 
BRANCH  20  21
ATOM     21  C   UNL     1       2.324   3.512  16.998  0.00  0.00    +0.000 C 
ATOM     22  C   UNL     1       1.302   4.077  17.660  0.00  0.00    +0.000 C 
BRANCH  22  23
ATOM     23  C   UNL     1       1.386   4.678  19.036  0.00  0.00    +0.000 C 
BRANCH  23  24
ATOM     24  C   UNL     1       0.649   3.823  20.064  0.00  0.00    +0.000 C 
BRANCH  24  25
ATOM     25  C   UNL     1       1.397   2.529  20.374  0.00  0.00    +0.000 C 
BRANCH  25  26
ATOM     26  C   UNL     1       2.553   2.748  21.313  0.00  0.00    +0.000 C 
ATOM     27  O   UNL     1       2.472   3.198  22.449  0.00  0.00    +0.000 OA
BRANCH  26  28
ATOM     28  O   UNL     1       3.731   2.380  20.761  0.00  0.00    +0.000 OA
ATOM     29  H   UNL     1       4.474   2.383  21.392  0.00  0.00    +0.000 HD
ENDBRANCH  26  28
ENDBRANCH  25  26
ENDBRANCH  24  25
ENDBRANCH  23  24
ENDBRANCH  22  23
ENDBRANCH  20  21
ENDBRANCH   5  20
TORSDOF 16
ENDMDL
MODEL 3
REMARK VINA RESULT:      -6.6      0.758      1.031
REMARK  Name = 
REMARK  17 active torsions:
REMARK  status: ('A' for Active; 'I' for Inactive)
REMARK    1  A    between atoms: C_1  and  C_2
REMARK    2  A    between atoms: C_2  and  C_3
REMARK    3  A    between atoms: C_3  and  O_4
REMARK    4  A    between atoms: O_4  and  C_5
REMARK    5  A    between atoms: C_5  and  C_6
REMARK    6  A    between atoms: C_6  and  O_7
REMARK    7  A    between atoms: C_6  and  C_8
REMARK    8  A    between atoms: C_9  and  C_10
REMARK    9  A    between atoms: C_11  and  O_12
REMARK   10  A    between atoms: C_14  and  O_15
REMARK   11  A    between atoms: C_16  and  C_17
REMARK   12  A    between atoms: C_17  and  C_18
REMARK   13  A    between atoms: C_19  and  C_20
REMARK   14  A    between atoms: C_20  and  C_21
REMARK   15  A    between atoms: C_21  and  C_22
REMARK   16  A    between atoms: C_22  and  C_23
REMARK   17  A    between atoms: C_23  and  O_25
REMARK                            x       y       z     vdW  Elec       q    Type
REMARK                         _______ _______ _______ _____ _____    ______ ____
ROOT
ATOM      1  C   UNL     1       4.347   5.790  17.476  0.00  0.00    +0.000 C 
ATOM      2  C   UNL     1       5.359   6.778  16.877  0.00  0.00    +0.000 C 
ATOM      3  C   UNL     1       6.717   6.130  17.075  0.00  0.00    +0.000 C 
ATOM      4  C   UNL     1       6.610   5.362  18.382  0.00  0.00    +0.000 C 
ATOM      5  C   UNL     1       5.111   5.044  18.596  0.00  0.00    +0.000 C 
ENDROOT
BRANCH   2   6
ATOM      6  O   UNL     1       5.116   6.986  15.489  0.00  0.00    +0.000 OA
ATOM      7  H   UNL     1       4.981   7.939  15.343  0.00  0.00    +0.000 HD
ENDBRANCH   2   6
BRANCH   4   8
ATOM      8  O   UNL     1       7.487   4.250  18.370  0.00  0.00    +0.000 OA
ATOM      9  H   UNL     1       7.045   3.503  18.812  0.00  0.00    +0.000 HD
ENDBRANCH   4   8
BRANCH   1  11
ATOM     10  C   UNL     1       2.943   7.813  18.039  0.00  0.00    +0.000 C 
ATOM     11  C   UNL     1       3.104   6.479  17.986  0.00  0.00    +0.000 C 
BRANCH  10  12
ATOM     12  C   UNL     1       1.693   8.511  18.519  0.00  0.00    +0.000 C 
BRANCH  12  13
ATOM     13  O   UNL     1       1.623   8.427  19.945  0.00  0.00    +0.000 OA
ATOM     14  H   UNL     1       2.444   7.991  20.236  0.00  0.00    +0.000 HD
ENDBRANCH  12  13
BRANCH  12  15
ATOM     15  C   UNL     1       1.621   9.995  18.118  0.00  0.00    +0.000 C 
BRANCH  15  16
ATOM     16  O   UNL     1       0.951  10.776  19.110  0.00  0.00    +0.000 OA
BRANCH  16  17
ATOM     17  C   UNL     1      -0.278  11.298  18.604  0.00  0.00    +0.000 C 
BRANCH  17  19
ATOM     18  C   UNL     1      -2.509  10.331  17.976  0.00  0.00    +0.000 C 
ATOM     19  C   UNL     1      -1.003  10.202  17.834  0.00  0.00    +0.000 C 
ENDBRANCH  17  19
ENDBRANCH  16  17
ENDBRANCH  15  16
ENDBRANCH  12  15
ENDBRANCH  10  12
ENDBRANCH   1  11
BRANCH   5  20
ATOM     20  C   UNL     1       4.706   3.564  18.694  0.00  0.00    +0.000 C 
BRANCH  20  21
ATOM     21  C   UNL     1       4.030   3.003  17.467  0.00  0.00    +0.000 C 
ATOM     22  C   UNL     1       2.829   2.403  17.447  0.00  0.00    +0.000 C 
BRANCH  22  23
ATOM     23  C   UNL     1       1.936   2.209  18.642  0.00  0.00    +0.000 C 
BRANCH  23  24
ATOM     24  C   UNL     1       1.206   3.499  19.008  0.00  0.00    +0.000 C 
BRANCH  24  25
ATOM     25  C   UNL     1       0.858   3.557  20.493  0.00  0.00    +0.000 C 
BRANCH  25  26
ATOM     26  C   UNL     1       2.064   3.829  21.352  0.00  0.00    +0.000 C 
ATOM     27  O   UNL     1       2.582   3.033  22.126  0.00  0.00    +0.000 OA
BRANCH  26  28
ATOM     28  O   UNL     1       2.541   5.081  21.174  0.00  0.00    +0.000 OA
ATOM     29  H   UNL     1       1.908   5.779  21.426  0.00  0.00    +0.000 HD
ENDBRANCH  26  28
ENDBRANCH  25  26
ENDBRANCH  24  25
ENDBRANCH  23  24
ENDBRANCH  22  23
ENDBRANCH  20  21
ENDBRANCH   5  20
TORSDOF 16
ENDMDL
MODEL 4
REMARK VINA RESULT:      -6.6      1.165      1.554
REMARK  Name = 
REMARK  17 active torsions:
REMARK  status: ('A' for Active; 'I' for Inactive)
REMARK    1  A    between atoms: C_1  and  C_2
REMARK    2  A    between atoms: C_2  and  C_3
REMARK    3  A    between atoms: C_3  and  O_4
REMARK    4  A    between atoms: O_4  and  C_5
REMARK    5  A    between atoms: C_5  and  C_6
REMARK    6  A    between atoms: C_6  and  O_7
REMARK    7  A    between atoms: C_6  and  C_8
REMARK    8  A    between atoms: C_9  and  C_10
REMARK    9  A    between atoms: C_11  and  O_12
REMARK   10  A    between atoms: C_14  and  O_15
REMARK   11  A    between atoms: C_16  and  C_17
REMARK   12  A    between atoms: C_17  and  C_18
REMARK   13  A    between atoms: C_19  and  C_20
REMARK   14  A    between atoms: C_20  and  C_21
REMARK   15  A    between atoms: C_21  and  C_22
REMARK   16  A    between atoms: C_22  and  C_23
REMARK   17  A    between atoms: C_23  and  O_25
REMARK                            x       y       z     vdW  Elec       q    Type
REMARK                         _______ _______ _______ _____ _____    ______ ____
ROOT
ATOM      1  C   UNL     1       4.394   5.816  17.469  0.00  0.00    +0.000 C 
ATOM      2  C   UNL     1       5.391   6.759  16.779  0.00  0.00    +0.000 C 
ATOM      3  C   UNL     1       6.744   6.086  16.922  0.00  0.00    +0.000 C 
ATOM      4  C   UNL     1       6.695   5.366  18.261  0.00  0.00    +0.000 C 
ATOM      5  C   UNL     1       5.204   5.091  18.569  0.00  0.00    +0.000 C 
ENDROOT
BRANCH   2   6
ATOM      6  O   UNL     1       5.073   6.925  15.400  0.00  0.00    +0.000 OA
ATOM      7  H   UNL     1       4.740   6.076  15.060  0.00  0.00    +0.000 HD
ENDBRANCH   2   6
BRANCH   4   8
ATOM      8  O   UNL     1       7.547   4.235  18.238  0.00  0.00    +0.000 OA
ATOM      9  H   UNL     1       8.011   4.181  19.093  0.00  0.00    +0.000 HD
ENDBRANCH   4   8
BRANCH   1  11
ATOM     10  C   UNL     1       2.980   7.869  17.874  0.00  0.00    +0.000 C 
ATOM     11  C   UNL     1       3.196   6.550  18.023  0.00  0.00    +0.000 C 
BRANCH  10  12
ATOM     12  C   UNL     1       1.772   8.608  18.399  0.00  0.00    +0.000 C 
BRANCH  12  13
ATOM     13  O   UNL     1       1.633   8.352  19.799  0.00  0.00    +0.000 OA
ATOM     14  H   UNL     1       0.931   8.947  20.120  0.00  0.00    +0.000 HD
ENDBRANCH  12  13
BRANCH  12  15
ATOM     15  C   UNL     1       1.839  10.131  18.190  0.00  0.00    +0.000 C 
BRANCH  15  16
ATOM     16  O   UNL     1       0.566  10.746  18.395  0.00  0.00    +0.000 OA
BRANCH  16  17
ATOM     17  C   UNL     1       0.560  11.517  19.597  0.00  0.00    +0.000 C 
BRANCH  17  19
ATOM     18  C   UNL     1      -0.372  11.339  21.923  0.00  0.00    +0.000 C 
ATOM     19  C   UNL     1      -0.635  11.105  20.445  0.00  0.00    +0.000 C 
ENDBRANCH  17  19
ENDBRANCH  16  17
ENDBRANCH  15  16
ENDBRANCH  12  15
ENDBRANCH  10  12
ENDBRANCH   1  11
BRANCH   5  20
ATOM     20  C   UNL     1       4.774   3.625  18.743  0.00  0.00    +0.000 C 
BRANCH  20  21
ATOM     21  C   UNL     1       4.112   3.005  17.536  0.00  0.00    +0.000 C 
ATOM     22  C   UNL     1       2.918   2.393  17.533  0.00  0.00    +0.000 C 
BRANCH  22  23
ATOM     23  C   UNL     1       2.019   2.239  18.730  0.00  0.00    +0.000 C 
BRANCH  23  24
ATOM     24  C   UNL     1       1.234   3.518  19.005  0.00  0.00    +0.000 C 
BRANCH  24  25
ATOM     25  C   UNL     1       0.839   3.642  20.475  0.00  0.00    +0.000 C 
BRANCH  25  26
ATOM     26  C   UNL     1       2.029   3.871  21.368  0.00  0.00    +0.000 C 
ATOM     27  O   UNL     1       2.481   3.065  22.172  0.00  0.00    +0.000 OA
BRANCH  26  28
ATOM     28  O   UNL     1       2.573   5.094  21.184  0.00  0.00    +0.000 OA
ATOM     29  H   UNL     1       2.765   5.564  22.016  0.00  0.00    +0.000 HD
ENDBRANCH  26  28
ENDBRANCH  25  26
ENDBRANCH  24  25
ENDBRANCH  23  24
ENDBRANCH  22  23
ENDBRANCH  20  21
ENDBRANCH   5  20
TORSDOF 16
ENDMDL
MODEL 5
REMARK VINA RESULT:      -6.5      1.605      4.770
REMARK  Name = 
REMARK  17 active torsions:
REMARK  status: ('A' for Active; 'I' for Inactive)
REMARK    1  A    between atoms: C_1  and  C_2
REMARK    2  A    between atoms: C_2  and  C_3
REMARK    3  A    between atoms: C_3  and  O_4
REMARK    4  A    between atoms: O_4  and  C_5
REMARK    5  A    between atoms: C_5  and  C_6
REMARK    6  A    between atoms: C_6  and  O_7
REMARK    7  A    between atoms: C_6  and  C_8
REMARK    8  A    between atoms: C_9  and  C_10
REMARK    9  A    between atoms: C_11  and  O_12
REMARK   10  A    between atoms: C_14  and  O_15
REMARK   11  A    between atoms: C_16  and  C_17
REMARK   12  A    between atoms: C_17  and  C_18
REMARK   13  A    between atoms: C_19  and  C_20
REMARK   14  A    between atoms: C_20  and  C_21
REMARK   15  A    between atoms: C_21  and  C_22
REMARK   16  A    between atoms: C_22  and  C_23
REMARK   17  A    between atoms: C_23  and  O_25
REMARK                            x       y       z     vdW  Elec       q    Type
REMARK                         _______ _______ _______ _____ _____    ______ ____
ROOT
ATOM      1  C   UNL     1       2.465   5.045  19.012  0.00  0.00    +0.000 C 
ATOM      2  C   UNL     1       1.704   4.908  20.339  0.00  0.00    +0.000 C 
ATOM      3  C   UNL     1       1.106   3.513  20.315  0.00  0.00    +0.000 C 
ATOM      4  C   UNL     1       0.779   3.241  18.855  0.00  0.00    +0.000 C 
ATOM      5  C   UNL     1       1.717   4.134  18.010  0.00  0.00    +0.000 C 
ENDROOT
BRANCH   2   6
ATOM      6  O   UNL     1       2.583   5.042  21.452  0.00  0.00    +0.000 OA
ATOM      7  H   UNL     1       2.127   5.560  22.139  0.00  0.00    +0.000 HD
ENDBRANCH   2   6
BRANCH   4   8
ATOM      8  O   UNL     1       0.838   1.850  18.592  0.00  0.00    +0.000 OA
ATOM      9  H   UNL     1       1.010   1.723  17.642  0.00  0.00    +0.000 HD
ENDBRANCH   4   8
BRANCH   1  11
ATOM     10  C   UNL     1       1.898   7.504  19.120  0.00  0.00    +0.000 C 
ATOM     11  C   UNL     1       2.546   6.477  18.540  0.00  0.00    +0.000 C 
BRANCH  10  12
ATOM     12  C   UNL     1       1.995   8.944  18.675  0.00  0.00    +0.000 C 
BRANCH  12  13
ATOM     13  O   UNL     1       2.096   8.992  17.249  0.00  0.00    +0.000 OA
ATOM     14  H   UNL     1       1.293   9.443  16.931  0.00  0.00    +0.000 HD
ENDBRANCH  12  13
BRANCH  12  15
ATOM     15  C   UNL     1       0.795   9.806  19.104  0.00  0.00    +0.000 C 
BRANCH  15  16
ATOM     16  O   UNL     1      -0.180   9.905  18.064  0.00  0.00    +0.000 OA
BRANCH  16  17
ATOM     17  C   UNL     1      -1.339  10.607  18.516  0.00  0.00    +0.000 C 
BRANCH  17  19
ATOM     18  C   UNL     1      -2.504   9.878  16.415  0.00  0.00    +0.000 C 
ATOM     19  C   UNL     1      -2.151  11.054  17.309  0.00  0.00    +0.000 C 
ENDBRANCH  17  19
ENDBRANCH  16  17
ENDBRANCH  15  16
ENDBRANCH  12  15
ENDBRANCH  10  12
ENDBRANCH   1  11
BRANCH   5  20
ATOM     20  C   UNL     1       2.672   3.434  17.030  0.00  0.00    +0.000 C 
BRANCH  20  21
ATOM     21  C   UNL     1       4.088   3.265  17.527  0.00  0.00    +0.000 C 
ATOM     22  C   UNL     1       5.150   3.963  17.098  0.00  0.00    +0.000 C 
BRANCH  22  23
ATOM     23  C   UNL     1       5.111   5.055  16.063  0.00  0.00    +0.000 C 
BRANCH  23  24
ATOM     24  C   UNL     1       5.639   6.374  16.624  0.00  0.00    +0.000 C 
BRANCH  24  25
ATOM     25  C   UNL     1       6.589   6.156  17.799  0.00  0.00    +0.000 C 
BRANCH  25  26
ATOM     26  C   UNL     1       7.640   7.230  17.889  0.00  0.00    +0.000 C 
ATOM     27  O   UNL     1       7.797   8.143  17.088  0.00  0.00    +0.000 OA
BRANCH  26  28
ATOM     28  O   UNL     1       8.417   7.088  18.986  0.00  0.00    +0.000 OA
ATOM     29  H   UNL     1       8.771   7.931  19.325  0.00  0.00    +0.000 HD
ENDBRANCH  26  28
ENDBRANCH  25  26
ENDBRANCH  24  25
ENDBRANCH  23  24
ENDBRANCH  22  23
ENDBRANCH  20  21
ENDBRANCH   5  20
TORSDOF 16
ENDMDL
MODEL 6
REMARK VINA RESULT:      -6.5      3.285      6.590
REMARK  Name = 
REMARK  17 active torsions:
REMARK  status: ('A' for Active; 'I' for Inactive)
REMARK    1  A    between atoms: C_1  and  C_2
REMARK    2  A    between atoms: C_2  and  C_3
REMARK    3  A    between atoms: C_3  and  O_4
REMARK    4  A    between atoms: O_4  and  C_5
REMARK    5  A    between atoms: C_5  and  C_6
REMARK    6  A    between atoms: C_6  and  O_7
REMARK    7  A    between atoms: C_6  and  C_8
REMARK    8  A    between atoms: C_9  and  C_10
REMARK    9  A    between atoms: C_11  and  O_12
REMARK   10  A    between atoms: C_14  and  O_15
REMARK   11  A    between atoms: C_16  and  C_17
REMARK   12  A    between atoms: C_17  and  C_18
REMARK   13  A    between atoms: C_19  and  C_20
REMARK   14  A    between atoms: C_20  and  C_21
REMARK   15  A    between atoms: C_21  and  C_22
REMARK   16  A    between atoms: C_22  and  C_23
REMARK   17  A    between atoms: C_23  and  O_25
REMARK                            x       y       z     vdW  Elec       q    Type
REMARK                         _______ _______ _______ _____ _____    ______ ____
ROOT
ATOM      1  C   UNL     1       6.088   4.110  16.839  0.00  0.00    +0.000 C 
ATOM      2  C   UNL     1       7.244   4.902  17.469  0.00  0.00    +0.000 C 
ATOM      3  C   UNL     1       6.777   5.244  18.873  0.00  0.00    +0.000 C 
ATOM      4  C   UNL     1       5.274   5.442  18.759  0.00  0.00    +0.000 C 
ATOM      5  C   UNL     1       4.805   4.634  17.527  0.00  0.00    +0.000 C 
ENDROOT
BRANCH   2   6
ATOM      6  O   UNL     1       8.432   4.120  17.528  0.00  0.00    +0.000 OA
ATOM      7  H   UNL     1       8.340   3.480  18.256  0.00  0.00    +0.000 HD
ENDBRANCH   2   6
BRANCH   4   8
ATOM      8  O   UNL     1       4.645   5.126  19.989  0.00  0.00    +0.000 OA
ATOM      9  H   UNL     1       3.913   5.753  20.131  0.00  0.00    +0.000 HD
ENDBRANCH   4   8
BRANCH   1  11
ATOM     10  C   UNL     1       6.999   4.850  14.603  0.00  0.00    +0.000 C 
ATOM     11  C   UNL     1       6.040   4.258  15.337  0.00  0.00    +0.000 C 
BRANCH  10  12
ATOM     12  C   UNL     1       6.975   4.978  13.098  0.00  0.00    +0.000 C 
BRANCH  12  13
ATOM     13  O   UNL     1       8.218   5.524  12.650  0.00  0.00    +0.000 OA
ATOM     14  H   UNL     1       8.379   6.321  13.187  0.00  0.00    +0.000 HD
ENDBRANCH  12  13
BRANCH  12  15
ATOM     15  C   UNL     1       6.742   3.644  12.368  0.00  0.00    +0.000 C 
BRANCH  15  16
ATOM     16  O   UNL     1       5.406   3.542  11.871  0.00  0.00    +0.000 OA
BRANCH  16  17
ATOM     17  C   UNL     1       5.126   2.213  11.431  0.00  0.00    +0.000 C 
BRANCH  17  19
ATOM     18  C   UNL     1       6.246  -0.031  11.292  0.00  0.00    +0.000 C 
ATOM     19  C   UNL     1       6.439   1.474  11.216  0.00  0.00    +0.000 C 
ENDBRANCH  17  19
ENDBRANCH  16  17
ENDBRANCH  15  16
ENDBRANCH  12  15
ENDBRANCH  10  12
ENDBRANCH   1  11
BRANCH   5  20
ATOM     20  C   UNL     1       3.770   3.521  17.759  0.00  0.00    +0.000 C 
BRANCH  20  21
ATOM     21  C   UNL     1       2.395   3.800  17.202  0.00  0.00    +0.000 C 
ATOM     22  C   UNL     1       1.351   4.266  17.906  0.00  0.00    +0.000 C 
BRANCH  22  23
ATOM     23  C   UNL     1       1.378   4.616  19.369  0.00  0.00    +0.000 C 
BRANCH  23  24
ATOM     24  C   UNL     1       0.663   3.561  20.208  0.00  0.00    +0.000 C 
BRANCH  24  25
ATOM     25  C   UNL     1       1.538   2.334  20.452  0.00  0.00    +0.000 C 
BRANCH  25  26
ATOM     26  C   UNL     1       2.710   2.638  21.347  0.00  0.00    +0.000 C 
ATOM     27  O   UNL     1       3.877   2.349  21.116  0.00  0.00    +0.000 OA
BRANCH  26  28
ATOM     28  O   UNL     1       2.334   3.292  22.469  0.00  0.00    +0.000 OA
ATOM     29  H   UNL     1       2.762   4.162  22.575  0.00  0.00    +0.000 HD
ENDBRANCH  26  28
ENDBRANCH  25  26
ENDBRANCH  24  25
ENDBRANCH  23  24
ENDBRANCH  22  23
ENDBRANCH  20  21
ENDBRANCH   5  20
TORSDOF 16
ENDMDL
MODEL 7
REMARK VINA RESULT:      -6.4      2.669      6.470
REMARK  Name = 
REMARK  17 active torsions:
REMARK  status: ('A' for Active; 'I' for Inactive)
REMARK    1  A    between atoms: C_1  and  C_2
REMARK    2  A    between atoms: C_2  and  C_3
REMARK    3  A    between atoms: C_3  and  O_4
REMARK    4  A    between atoms: O_4  and  C_5
REMARK    5  A    between atoms: C_5  and  C_6
REMARK    6  A    between atoms: C_6  and  O_7
REMARK    7  A    between atoms: C_6  and  C_8
REMARK    8  A    between atoms: C_9  and  C_10
REMARK    9  A    between atoms: C_11  and  O_12
REMARK   10  A    between atoms: C_14  and  O_15
REMARK   11  A    between atoms: C_16  and  C_17
REMARK   12  A    between atoms: C_17  and  C_18
REMARK   13  A    between atoms: C_19  and  C_20
REMARK   14  A    between atoms: C_20  and  C_21
REMARK   15  A    between atoms: C_21  and  C_22
REMARK   16  A    between atoms: C_22  and  C_23
REMARK   17  A    between atoms: C_23  and  O_25
REMARK                            x       y       z     vdW  Elec       q    Type
REMARK                         _______ _______ _______ _____ _____    ______ ____
ROOT
ATOM      1  C   UNL     1       3.669   3.451  18.237  0.00  0.00    +0.000 C 
ATOM      2  C   UNL     1       3.707   2.160  19.069  0.00  0.00    +0.000 C 
ATOM      3  C   UNL     1       2.437   2.182  19.901  0.00  0.00    +0.000 C 
ATOM      4  C   UNL     1       2.181   3.650  20.205  0.00  0.00    +0.000 C 
ATOM      5  C   UNL     1       2.871   4.468  19.088  0.00  0.00    +0.000 C 
ENDROOT
BRANCH   2   6
ATOM      6  O   UNL     1       3.720   1.008  18.232  0.00  0.00    +0.000 OA
ATOM      7  H   UNL     1       3.382   0.254  18.746  0.00  0.00    +0.000 HD
ENDBRANCH   2   6
BRANCH   4   8
ATOM      8  O   UNL     1       0.794   3.878  20.379  0.00  0.00    +0.000 OA
ATOM      9  H   UNL     1       0.612   3.959  21.333  0.00  0.00    +0.000 HD
ENDBRANCH   4   8
BRANCH   1  11
ATOM     10  C   UNL     1       5.782   4.766  18.665  0.00  0.00    +0.000 C 
ATOM     11  C   UNL     1       5.049   3.950  17.885  0.00  0.00    +0.000 C 
BRANCH  10  12
ATOM     12  C   UNL     1       7.175   5.248  18.336  0.00  0.00    +0.000 C 
BRANCH  12  13
ATOM     13  O   UNL     1       7.767   4.366  17.379  0.00  0.00    +0.000 OA
ATOM     14  H   UNL     1       7.986   4.910  16.601  0.00  0.00    +0.000 HD
ENDBRANCH  12  13
BRANCH  12  15
ATOM     15  C   UNL     1       7.218   6.677  17.768  0.00  0.00    +0.000 C 
BRANCH  15  16
ATOM     16  O   UNL     1       8.198   7.478  18.431  0.00  0.00    +0.000 OA
BRANCH  16  17
ATOM     17  C   UNL     1       8.194   8.813  17.922  0.00  0.00    +0.000 C 
BRANCH  17  19
ATOM     18  C   UNL     1       9.323  11.036  18.223  0.00  0.00    +0.000 C 
ATOM     19  C   UNL     1       8.975   9.708  18.874  0.00  0.00    +0.000 C 
ENDBRANCH  17  19
ENDBRANCH  16  17
ENDBRANCH  15  16
ENDBRANCH  12  15
ENDBRANCH  10  12
ENDBRANCH   1  11
BRANCH   5  20
ATOM     20  C   UNL     1       1.985   5.383  18.227  0.00  0.00    +0.000 C 
BRANCH  20  21
ATOM     21  C   UNL     1       2.500   6.791  18.052  0.00  0.00    +0.000 C 
ATOM     22  C   UNL     1       2.371   7.783  18.946  0.00  0.00    +0.000 C 
BRANCH  22  23
ATOM     23  C   UNL     1       1.711   7.656  20.293  0.00  0.00    +0.000 C 
BRANCH  23  24
ATOM     24  C   UNL     1       0.947   8.926  20.661  0.00  0.00    +0.000 C 
BRANCH  24  25
ATOM     25  C   UNL     1      -0.124   8.663  21.716  0.00  0.00    +0.000 C 
BRANCH  25  26
ATOM     26  C   UNL     1      -0.282   9.818  22.669  0.00  0.00    +0.000 C 
ATOM     27  O   UNL     1      -0.954  10.822  22.467  0.00  0.00    +0.000 OA
BRANCH  26  28
ATOM     28  O   UNL     1       0.410   9.627  23.815  0.00  0.00    +0.000 OA
ATOM     29  H   UNL     1       0.491   8.689  24.070  0.00  0.00    +0.000 HD
ENDBRANCH  26  28
ENDBRANCH  25  26
ENDBRANCH  24  25
ENDBRANCH  23  24
ENDBRANCH  22  23
ENDBRANCH  20  21
ENDBRANCH   5  20
TORSDOF 16
ENDMDL
MODEL 8
REMARK VINA RESULT:      -6.4      2.405      6.570
REMARK  Name = 
REMARK  17 active torsions:
REMARK  status: ('A' for Active; 'I' for Inactive)
REMARK    1  A    between atoms: C_1  and  C_2
REMARK    2  A    between atoms: C_2  and  C_3
REMARK    3  A    between atoms: C_3  and  O_4
REMARK    4  A    between atoms: O_4  and  C_5
REMARK    5  A    between atoms: C_5  and  C_6
REMARK    6  A    between atoms: C_6  and  O_7
REMARK    7  A    between atoms: C_6  and  C_8
REMARK    8  A    between atoms: C_9  and  C_10
REMARK    9  A    between atoms: C_11  and  O_12
REMARK   10  A    between atoms: C_14  and  O_15
REMARK   11  A    between atoms: C_16  and  C_17
REMARK   12  A    between atoms: C_17  and  C_18
REMARK   13  A    between atoms: C_19  and  C_20
REMARK   14  A    between atoms: C_20  and  C_21
REMARK   15  A    between atoms: C_21  and  C_22
REMARK   16  A    between atoms: C_22  and  C_23
REMARK   17  A    between atoms: C_23  and  O_25
REMARK                            x       y       z     vdW  Elec       q    Type
REMARK                         _______ _______ _______ _____ _____    ______ ____
ROOT
ATOM      1  C   UNL     1       3.553   3.437  18.383  0.00  0.00    +0.000 C 
ATOM      2  C   UNL     1       3.587   2.144  19.211  0.00  0.00    +0.000 C 
ATOM      3  C   UNL     1       2.234   2.070  19.895  0.00  0.00    +0.000 C 
ATOM      4  C   UNL     1       1.843   3.513  20.170  0.00  0.00    +0.000 C 
ATOM      5  C   UNL     1       2.595   4.388  19.139  0.00  0.00    +0.000 C 
ENDROOT
BRANCH   2   6
ATOM      6  O   UNL     1       3.776   1.004  18.379  0.00  0.00    +0.000 OA
ATOM      7  H   UNL     1       4.254   1.286  17.579  0.00  0.00    +0.000 HD
ENDBRANCH   2   6
BRANCH   4   8
ATOM      8  O   UNL     1       0.432   3.643  20.186  0.00  0.00    +0.000 OA
ATOM      9  H   UNL     1       0.080   3.279  19.354  0.00  0.00    +0.000 HD
ENDBRANCH   4   8
BRANCH   1  11
ATOM     10  C   UNL     1       5.514   4.878  19.057  0.00  0.00    +0.000 C 
ATOM     11  C   UNL     1       4.926   4.034  18.190  0.00  0.00    +0.000 C 
BRANCH  10  12
ATOM     12  C   UNL     1       6.898   5.458  18.889  0.00  0.00    +0.000 C 
BRANCH  12  13
ATOM     13  O   UNL     1       7.560   5.477  20.157  0.00  0.00    +0.000 OA
ATOM     14  H   UNL     1       8.386   4.973  20.045  0.00  0.00    +0.000 HD
ENDBRANCH  12  13
BRANCH  12  15
ATOM     15  C   UNL     1       7.779   4.680  17.897  0.00  0.00    +0.000 C 
BRANCH  15  16
ATOM     16  O   UNL     1       7.652   5.191  16.568  0.00  0.00    +0.000 OA
BRANCH  16  17
ATOM     17  C   UNL     1       7.023   4.236  15.712  0.00  0.00    +0.000 C 
BRANCH  17  19
ATOM     18  C   UNL     1       6.263   3.846  13.351  0.00  0.00    +0.000 C 
ATOM     19  C   UNL     1       6.837   4.852  14.333  0.00  0.00    +0.000 C 
ENDBRANCH  17  19
ENDBRANCH  16  17
ENDBRANCH  15  16
ENDBRANCH  12  15
ENDBRANCH  10  12
ENDBRANCH   1  11
BRANCH   5  20
ATOM     20  C   UNL     1       1.750   5.247  18.186  0.00  0.00    +0.000 C 
BRANCH  20  21
ATOM     21  C   UNL     1       2.294   6.630  17.919  0.00  0.00    +0.000 C 
ATOM     22  C   UNL     1       2.366   7.624  18.818  0.00  0.00    +0.000 C 
BRANCH  22  23
ATOM     23  C   UNL     1       1.940   7.524  20.258  0.00  0.00    +0.000 C 
BRANCH  23  24
ATOM     24  C   UNL     1       1.048   8.697  20.658  0.00  0.00    +0.000 C 
BRANCH  24  25
ATOM     25  C   UNL     1       1.299   9.142  22.096  0.00  0.00    +0.000 C 
BRANCH  25  26
ATOM     26  C   UNL     1       0.101   9.825  22.700  0.00  0.00    +0.000 C 
ATOM     27  O   UNL     1      -0.739  10.467  22.082  0.00  0.00    +0.000 OA
BRANCH  26  28
ATOM     28  O   UNL     1       0.037   9.648  24.038  0.00  0.00    +0.000 OA
ATOM     29  H   UNL     1      -0.790   9.226  24.337  0.00  0.00    +0.000 HD
ENDBRANCH  26  28
ENDBRANCH  25  26
ENDBRANCH  24  25
ENDBRANCH  23  24
ENDBRANCH  22  23
ENDBRANCH  20  21
ENDBRANCH   5  20
TORSDOF 16
ENDMDL
MODEL 9
REMARK VINA RESULT:      -6.4      1.824      4.765
REMARK  Name = 
REMARK  17 active torsions:
REMARK  status: ('A' for Active; 'I' for Inactive)
REMARK    1  A    between atoms: C_1  and  C_2
REMARK    2  A    between atoms: C_2  and  C_3
REMARK    3  A    between atoms: C_3  and  O_4
REMARK    4  A    between atoms: O_4  and  C_5
REMARK    5  A    between atoms: C_5  and  C_6
REMARK    6  A    between atoms: C_6  and  O_7
REMARK    7  A    between atoms: C_6  and  C_8
REMARK    8  A    between atoms: C_9  and  C_10
REMARK    9  A    between atoms: C_11  and  O_12
REMARK   10  A    between atoms: C_14  and  O_15
REMARK   11  A    between atoms: C_16  and  C_17
REMARK   12  A    between atoms: C_17  and  C_18
REMARK   13  A    between atoms: C_19  and  C_20
REMARK   14  A    between atoms: C_20  and  C_21
REMARK   15  A    between atoms: C_21  and  C_22
REMARK   16  A    between atoms: C_22  and  C_23
REMARK   17  A    between atoms: C_23  and  O_25
REMARK                            x       y       z     vdW  Elec       q    Type
REMARK                         _______ _______ _______ _____ _____    ______ ____
ROOT
ATOM      1  C   UNL     1       2.539   4.856  18.849  0.00  0.00    +0.000 C 
ATOM      2  C   UNL     1       1.366   4.180  19.576  0.00  0.00    +0.000 C 
ATOM      3  C   UNL     1       1.559   2.692  19.349  0.00  0.00    +0.000 C 
ATOM      4  C   UNL     1       2.178   2.573  17.965  0.00  0.00    +0.000 C 
ATOM      5  C   UNL     1       2.900   3.911  17.679  0.00  0.00    +0.000 C 
ENDROOT
BRANCH   2   6
ATOM      6  O   UNL     1       1.391   4.467  20.970  0.00  0.00    +0.000 OA
ATOM      7  H   UNL     1       2.182   5.003  21.157  0.00  0.00    +0.000 HD
ENDBRANCH   2   6
BRANCH   4   8
ATOM      8  O   UNL     1       2.975   1.405  17.885  0.00  0.00    +0.000 OA
ATOM      9  H   UNL     1       2.435   0.643  18.163  0.00  0.00    +0.000 HD
ENDBRANCH   4   8
BRANCH   1  11
ATOM     10  C   UNL     1       2.489   7.372  19.064  0.00  0.00    +0.000 C 
ATOM     11  C   UNL     1       2.198   6.250  18.380  0.00  0.00    +0.000 C 
BRANCH  10  12
ATOM     12  C   UNL     1       2.180   8.772  18.591  0.00  0.00    +0.000 C 
BRANCH  12  13
ATOM     13  O   UNL     1       2.287   8.825  17.166  0.00  0.00    +0.000 OA
ATOM     14  H   UNL     1       3.009   8.218  16.921  0.00  0.00    +0.000 HD
ENDBRANCH  12  13
BRANCH  12  15
ATOM     15  C   UNL     1       0.777   9.264  18.988  0.00  0.00    +0.000 C 
BRANCH  15  16
ATOM     16  O   UNL     1       0.794  10.636  19.390  0.00  0.00    +0.000 OA
BRANCH  16  17
ATOM     17  C   UNL     1       0.855  10.749  20.812  0.00  0.00    +0.000 C 
BRANCH  17  19
ATOM     18  C   UNL     1       0.211   9.384  22.819  0.00  0.00    +0.000 C 
ATOM     19  C   UNL     1      -0.197   9.838  21.428  0.00  0.00    +0.000 C 
ENDBRANCH  17  19
ENDBRANCH  16  17
ENDBRANCH  15  16
ENDBRANCH  12  15
ENDBRANCH  10  12
ENDBRANCH   1  11
BRANCH   5  20
ATOM     20  C   UNL     1       4.414   3.859  17.415  0.00  0.00    +0.000 C 
BRANCH  20  21
ATOM     21  C   UNL     1       4.829   4.199  16.004  0.00  0.00    +0.000 C 
ATOM     22  C   UNL     1       5.408   5.348  15.621  0.00  0.00    +0.000 C 
BRANCH  22  23
ATOM     23  C   UNL     1       5.766   6.487  16.536  0.00  0.00    +0.000 C 
BRANCH  23  24
ATOM     24  C   UNL     1       7.262   6.506  16.842  0.00  0.00    +0.000 C 
BRANCH  24  25
ATOM     25  C   UNL     1       7.539   6.722  18.327  0.00  0.00    +0.000 C 
BRANCH  25  26
ATOM     26  C   UNL     1       7.696   5.423  19.073  0.00  0.00    +0.000 C 
ATOM     27  O   UNL     1       7.702   5.298  20.291  0.00  0.00    +0.000 OA
BRANCH  26  28
ATOM     28  O   UNL     1       7.826   4.371  18.235  0.00  0.00    +0.000 OA
ATOM     29  H   UNL     1       8.713   3.965  18.254  0.00  0.00    +0.000 HD
ENDBRANCH  26  28
ENDBRANCH  25  26
ENDBRANCH  24  25
ENDBRANCH  23  24
ENDBRANCH  22  23
ENDBRANCH  20  21
ENDBRANCH   5  20
TORSDOF 16
ENDMDL
