MODEL 1
REMARK VINA RESULT:      -7.3      0.000      0.000
REMARK  Name = 
REMARK  6 active torsions:
REMARK  status: ('A' for Active; 'I' for Inactive)
REMARK    1  A    between atoms: C_1  and  C_2
REMARK    2  A    between atoms: C_2  and  C_3
REMARK    3  A    between atoms: C_2  and  C_4
REMARK    4  A    between atoms: C_2  and  N_5
REMARK    5  A    between atoms: N_11  and  C_12
REMARK    6  A    between atoms: C_12  and  C_13
REMARK                            x       y       z     vdW  Elec       q    Type
REMARK                         _______ _______ _______ _____ _____    ______ ____
ROOT
ATOM      1  N   UNL     1       1.193   9.025  19.722  0.00  0.00    +0.000 N 
ATOM      2  N   UNL     1       0.733   8.852  20.993  0.00  0.00    +0.000 NA
ATOM      3  C   UNL     1       1.156   7.632  21.336  0.00  0.00    +0.000 A 
ATOM      4  C   UNL     1       1.877   7.023  20.309  0.00  0.00    +0.000 A 
ATOM      5  C   UNL     1       2.541   5.758  20.161  0.00  0.00    +0.000 A 
ATOM      6  O   UNL     1       2.544   4.907  21.045  0.00  0.00    +0.000 OA
ATOM      7  N   UNL     1       3.144   5.608  18.908  0.00  0.00    +0.000 N 
ATOM      8  C   UNL     1       3.027   6.587  17.924  0.00  0.00    +0.000 A 
ATOM      9  N   UNL     1       2.426   7.733  18.047  0.00  0.00    +0.000 NA
ATOM     10  C   UNL     1       1.872   7.914  19.267  0.00  0.00    +0.000 A 
ENDROOT
BRANCH   1  12
ATOM     11  C   UNL     1      -0.306  10.225  18.119  0.00  0.00    +0.000 C 
ATOM     12  C   UNL     1       0.957  10.296  19.012  0.00  0.00    +0.000 C 
ATOM     13  C   UNL     1       2.150  10.629  18.096  0.00  0.00    +0.000 C 
ATOM     14  C   UNL     1       0.739  11.435  20.025  0.00  0.00    +0.000 C 
ENDBRANCH   1  12
BRANCH   7  15
ATOM     15  C   UNL     1       3.815   4.353  18.608  0.00  0.00    +0.000 C 
BRANCH  15  16
ATOM     16  C   UNL     1       4.905   4.466  17.557  0.00  0.00    +0.000 A 
ATOM     17  C   UNL     1       4.616   4.069  16.235  0.00  0.00    +0.000 A 
ATOM     18  C   UNL     1       5.550   4.249  15.210  0.00  0.00    +0.000 A 
ATOM     19  C   UNL     1       6.782   4.815  15.496  0.00  0.00    +0.000 A 
ATOM     20  F   UNL     1       7.661   5.024  14.509  0.00  0.00    +0.000 F 
ATOM     21  C   UNL     1       7.111   5.178  16.794  0.00  0.00    +0.000 A 
ATOM     22  C   UNL     1       6.181   4.999  17.821  0.00  0.00    +0.000 A 
ATOM     23 CL   UNL     1       6.662   5.494  19.406  0.00  0.00    +0.000 Cl
ENDBRANCH  15  16
ENDBRANCH   7  15
TORSDOF 3
ENDMDL
MODEL 2
REMARK VINA RESULT:      -7.1      1.972      2.554
REMARK  Name = 
REMARK  6 active torsions:
REMARK  status: ('A' for Active; 'I' for Inactive)
REMARK    1  A    between atoms: C_1  and  C_2
REMARK    2  A    between atoms: C_2  and  C_3
REMARK    3  A    between atoms: C_2  and  C_4
REMARK    4  A    between atoms: C_2  and  N_5
REMARK    5  A    between atoms: N_11  and  C_12
REMARK    6  A    between atoms: C_12  and  C_13
REMARK                            x       y       z     vdW  Elec       q    Type
REMARK                         _______ _______ _______ _____ _____    ______ ____
ROOT
ATOM      1  N   UNL     1       0.822  10.773  20.490  0.00  0.00    +0.000 N 
ATOM      2  N   UNL     1       0.645  10.392  21.786  0.00  0.00    +0.000 NA
ATOM      3  C   UNL     1       0.981   9.099  21.801  0.00  0.00    +0.000 A 
ATOM      4  C   UNL     1       1.371   8.647  20.540  0.00  0.00    +0.000 A 
ATOM      5  C   UNL     1       1.823   7.388  20.019  0.00  0.00    +0.000 A 
ATOM      6  O   UNL     1       1.923   6.384  20.716  0.00  0.00    +0.000 OA
ATOM      7  N   UNL     1       2.104   7.439  18.649  0.00  0.00    +0.000 N 
ATOM      8  C   UNL     1       1.887   8.598  17.906  0.00  0.00    +0.000 A 
ATOM      9  N   UNL     1       1.475   9.741  18.367  0.00  0.00    +0.000 NA
ATOM     10  C   UNL     1       1.239   9.723  19.699  0.00  0.00    +0.000 A 
ENDROOT
BRANCH   1  12
ATOM     11  C   UNL     1       1.823  12.774  19.372  0.00  0.00    +0.000 C 
ATOM     12  C   UNL     1       0.589  12.173  20.088  0.00  0.00    +0.000 C 
ATOM     13  C   UNL     1       0.305  13.046  21.325  0.00  0.00    +0.000 C 
ATOM     14  C   UNL     1      -0.596  12.252  19.107  0.00  0.00    +0.000 C 
ENDBRANCH   1  12
BRANCH   7  15
ATOM     15  C   UNL     1       2.530   6.219  17.984  0.00  0.00    +0.000 C 
BRANCH  15  16
ATOM     16  C   UNL     1       4.028   5.977  18.028  0.00  0.00    +0.000 A 
ATOM     17  C   UNL     1       4.876   6.828  17.289  0.00  0.00    +0.000 A 
ATOM     18  C   UNL     1       6.266   6.713  17.379  0.00  0.00    +0.000 A 
ATOM     19  C   UNL     1       6.823   5.742  18.195  0.00  0.00    +0.000 A 
ATOM     20  F   UNL     1       8.153   5.656  18.310  0.00  0.00    +0.000 F 
ATOM     21  C   UNL     1       6.016   4.862  18.902  0.00  0.00    +0.000 A 
ATOM     22  C   UNL     1       4.626   4.974  18.815  0.00  0.00    +0.000 A 
ATOM     23 CL   UNL     1       3.692   3.852  19.741  0.00  0.00    +0.000 Cl
ENDBRANCH  15  16
ENDBRANCH   7  15
TORSDOF 3
ENDMDL
MODEL 3
REMARK VINA RESULT:      -7.0      1.932      2.515
REMARK  Name = 
REMARK  6 active torsions:
REMARK  status: ('A' for Active; 'I' for Inactive)
REMARK    1  A    between atoms: C_1  and  C_2
REMARK    2  A    between atoms: C_2  and  C_3
REMARK    3  A    between atoms: C_2  and  C_4
REMARK    4  A    between atoms: C_2  and  N_5
REMARK    5  A    between atoms: N_11  and  C_12
REMARK    6  A    between atoms: C_12  and  C_13
REMARK                            x       y       z     vdW  Elec       q    Type
REMARK                         _______ _______ _______ _____ _____    ______ ____
ROOT
ATOM      1  N   UNL     1       0.729  10.407  20.287  0.00  0.00    +0.000 N 
ATOM      2  N   UNL     1       0.409   9.979  21.541  0.00  0.00    +0.000 NA
ATOM      3  C   UNL     1       0.802   8.702  21.566  0.00  0.00    +0.000 A 
ATOM      4  C   UNL     1       1.365   8.306  20.354  0.00  0.00    +0.000 A 
ATOM      5  C   UNL     1       1.938   7.084  19.863  0.00  0.00    +0.000 A 
ATOM      6  O   UNL     1       1.996   6.064  20.542  0.00  0.00    +0.000 OA
ATOM      7  N   UNL     1       2.384   7.188  18.541  0.00  0.00    +0.000 N 
ATOM      8  C   UNL     1       2.208   8.359  17.806  0.00  0.00    +0.000 A 
ATOM      9  N   UNL     1       1.689   9.469  18.239  0.00  0.00    +0.000 NA
ATOM     10  C   UNL     1       1.289   9.400  19.530  0.00  0.00    +0.000 A 
ENDROOT
BRANCH   1  12
ATOM     11  C   UNL     1       1.746  12.457  19.280  0.00  0.00    +0.000 C 
ATOM     12  C   UNL     1       0.483  11.807  19.894  0.00  0.00    +0.000 C 
ATOM     13  C   UNL     1       0.083  12.647  21.122  0.00  0.00    +0.000 C 
ATOM     14  C   UNL     1      -0.630  11.870  18.831  0.00  0.00    +0.000 C 
ENDBRANCH   1  12
BRANCH   7  15
ATOM     15  C   UNL     1       2.946   6.009  17.905  0.00  0.00    +0.000 C 
BRANCH  15  16
ATOM     16  C   UNL     1       4.449   5.869  18.071  0.00  0.00    +0.000 A 
ATOM     17  C   UNL     1       4.952   5.327  19.272  0.00  0.00    +0.000 A 
ATOM     18  C   UNL     1       6.319   5.081  19.433  0.00  0.00    +0.000 A 
ATOM     19  C   UNL     1       7.196   5.385  18.405  0.00  0.00    +0.000 A 
ATOM     20  F   UNL     1       8.499   5.115  18.544  0.00  0.00    +0.000 F 
ATOM     21  C   UNL     1       6.737   5.958  17.227  0.00  0.00    +0.000 A 
ATOM     22  C   UNL     1       5.372   6.206  17.063  0.00  0.00    +0.000 A 
ATOM     23 CL   UNL     1       4.881   6.904  15.560  0.00  0.00    +0.000 Cl
ENDBRANCH  15  16
ENDBRANCH   7  15
TORSDOF 3
ENDMDL
MODEL 4
REMARK VINA RESULT:      -6.9      3.848      7.306
REMARK  Name = 
REMARK  6 active torsions:
REMARK  status: ('A' for Active; 'I' for Inactive)
REMARK    1  A    between atoms: C_1  and  C_2
REMARK    2  A    between atoms: C_2  and  C_3
REMARK    3  A    between atoms: C_2  and  C_4
REMARK    4  A    between atoms: C_2  and  N_5
REMARK    5  A    between atoms: N_11  and  C_12
REMARK    6  A    between atoms: C_12  and  C_13
REMARK                            x       y       z     vdW  Elec       q    Type
REMARK                         _______ _______ _______ _____ _____    ______ ____
ROOT
ATOM      1  N   UNL     1       2.888   5.018  19.190  0.00  0.00    +0.000 N 
ATOM      2  N   UNL     1       2.481   4.632  20.432  0.00  0.00    +0.000 NA
ATOM      3  C   UNL     1       1.915   5.726  20.950  0.00  0.00    +0.000 A 
ATOM      4  C   UNL     1       1.952   6.802  20.064  0.00  0.00    +0.000 A 
ATOM      5  C   UNL     1       1.491   8.161  20.113  0.00  0.00    +0.000 A 
ATOM      6  O   UNL     1       0.938   8.634  21.100  0.00  0.00    +0.000 OA
ATOM      7  N   UNL     1       1.768   8.869  18.938  0.00  0.00    +0.000 N 
ATOM      8  C   UNL     1       2.474   8.286  17.889  0.00  0.00    +0.000 A 
ATOM      9  N   UNL     1       2.898   7.058  17.835  0.00  0.00    +0.000 NA
ATOM     10  C   UNL     1       2.603   6.346  18.947  0.00  0.00    +0.000 A 
ENDROOT
BRANCH   1  12
ATOM     11  C   UNL     1       4.731   4.673  17.535  0.00  0.00    +0.000 C 
ATOM     12  C   UNL     1       3.528   4.047  18.282  0.00  0.00    +0.000 C 
ATOM     13  C   UNL     1       2.525   3.566  17.217  0.00  0.00    +0.000 C 
ATOM     14  C   UNL     1       4.060   2.845  19.084  0.00  0.00    +0.000 C 
ENDBRANCH   1  12
BRANCH   7  15
ATOM     15  C   UNL     1       1.393  10.272  18.871  0.00  0.00    +0.000 C 
BRANCH  15  16
ATOM     16  C   UNL     1      -0.078  10.509  18.579  0.00  0.00    +0.000 A 
ATOM     17  C   UNL     1      -0.693   9.774  17.545  0.00  0.00    +0.000 A 
ATOM     18  C   UNL     1      -2.066   9.879  17.305  0.00  0.00    +0.000 A 
ATOM     19  C   UNL     1      -2.835  10.727  18.085  0.00  0.00    +0.000 A 
ATOM     20  F   UNL     1      -4.156  10.800  17.881  0.00  0.00    +0.000 F 
ATOM     21  C   UNL     1      -2.253  11.496  19.083  0.00  0.00    +0.000 A 
ATOM     22  C   UNL     1      -0.880  11.394  19.325  0.00  0.00    +0.000 A 
ATOM     23 CL   UNL     1      -0.237  12.371  20.597  0.00  0.00    +0.000 Cl
ENDBRANCH  15  16
ENDBRANCH   7  15
TORSDOF 3
ENDMDL
MODEL 5
REMARK VINA RESULT:      -6.8      4.235      7.605
REMARK  Name = 
REMARK  6 active torsions:
REMARK  status: ('A' for Active; 'I' for Inactive)
REMARK    1  A    between atoms: C_1  and  C_2
REMARK    2  A    between atoms: C_2  and  C_3
REMARK    3  A    between atoms: C_2  and  C_4
REMARK    4  A    between atoms: C_2  and  N_5
REMARK    5  A    between atoms: N_11  and  C_12
REMARK    6  A    between atoms: C_12  and  C_13
REMARK                            x       y       z     vdW  Elec       q    Type
REMARK                         _______ _______ _______ _____ _____    ______ ____
ROOT
ATOM      1  N   UNL     1       2.880   6.152  19.228  0.00  0.00    +0.000 N 
ATOM      2  N   UNL     1       2.529   5.726  20.474  0.00  0.00    +0.000 NA
ATOM      3  C   UNL     1       1.775   6.715  20.963  0.00  0.00    +0.000 A 
ATOM      4  C   UNL     1       1.637   7.763  20.054  0.00  0.00    +0.000 A 
ATOM      5  C   UNL     1       0.947   9.022  20.069  0.00  0.00    +0.000 A 
ATOM      6  O   UNL     1       0.306   9.411  21.040  0.00  0.00    +0.000 OA
ATOM      7  N   UNL     1       1.112   9.744  18.882  0.00  0.00    +0.000 N 
ATOM      8  C   UNL     1       1.923   9.272  17.853  0.00  0.00    +0.000 A 
ATOM      9  N   UNL     1       2.555   8.136  17.830  0.00  0.00    +0.000 NA
ATOM     10  C   UNL     1       2.373   7.405  18.954  0.00  0.00    +0.000 A 
ENDROOT
BRANCH   1  12
ATOM     11  C   UNL     1       2.803   4.368  17.477  0.00  0.00    +0.000 C 
ATOM     12  C   UNL     1       3.691   5.290  18.349  0.00  0.00    +0.000 C 
ATOM     13  C   UNL     1       4.612   4.383  19.187  0.00  0.00    +0.000 C 
ATOM     14  C   UNL     1       4.535   6.154  17.392  0.00  0.00    +0.000 C 
ENDBRANCH   1  12
BRANCH   7  15
ATOM     15  C   UNL     1       0.501  11.059  18.780  0.00  0.00    +0.000 C 
BRANCH  15  16
ATOM     16  C   UNL     1      -0.974  11.033  18.418  0.00  0.00    +0.000 A 
ATOM     17  C   UNL     1      -1.430  10.064  17.500  0.00  0.00    +0.000 A 
ATOM     18  C   UNL     1      -2.792   9.932  17.213  0.00  0.00    +0.000 A 
ATOM     19  C   UNL     1      -3.708  10.770  17.827  0.00  0.00    +0.000 A 
ATOM     20  F   UNL     1      -5.014  10.619  17.582  0.00  0.00    +0.000 F 
ATOM     21  C   UNL     1      -3.286  11.761  18.702  0.00  0.00    +0.000 A 
ATOM     22  C   UNL     1      -1.925  11.897  18.992  0.00  0.00    +0.000 A 
ATOM     23 CL   UNL     1      -1.485  13.143  20.106  0.00  0.00    +0.000 Cl
ENDBRANCH  15  16
ENDBRANCH   7  15
TORSDOF 3
ENDMDL
MODEL 6
REMARK VINA RESULT:      -6.8      3.147      4.140
REMARK  Name = 
REMARK  6 active torsions:
REMARK  status: ('A' for Active; 'I' for Inactive)
REMARK    1  A    between atoms: C_1  and  C_2
REMARK    2  A    between atoms: C_2  and  C_3
REMARK    3  A    between atoms: C_2  and  C_4
REMARK    4  A    between atoms: C_2  and  N_5
REMARK    5  A    between atoms: N_11  and  C_12
REMARK    6  A    between atoms: C_12  and  C_13
REMARK                            x       y       z     vdW  Elec       q    Type
REMARK                         _______ _______ _______ _____ _____    ______ ____
ROOT
ATOM      1  N   UNL     1      -0.878  10.935  19.658  0.00  0.00    +0.000 N 
ATOM      2  N   UNL     1      -1.152  11.113  20.981  0.00  0.00    +0.000 NA
ATOM      3  C   UNL     1      -0.345  10.251  21.606  0.00  0.00    +0.000 A 
ATOM      4  C   UNL     1       0.439   9.527  20.708  0.00  0.00    +0.000 A 
ATOM      5  C   UNL     1       1.446   8.512  20.845  0.00  0.00    +0.000 A 
ATOM      6  O   UNL     1       1.788   8.065  21.935  0.00  0.00    +0.000 OA
ATOM      7  N   UNL     1       1.958   8.088  19.614  0.00  0.00    +0.000 N 
ATOM      8  C   UNL     1       1.461   8.586  18.411  0.00  0.00    +0.000 A 
ATOM      9  N   UNL     1       0.548   9.502  18.276  0.00  0.00    +0.000 NA
ATOM     10  C   UNL     1       0.070   9.954  19.458  0.00  0.00    +0.000 A 
ENDROOT
BRANCH   1  12
ATOM     11  C   UNL     1      -1.964  10.923  17.405  0.00  0.00    +0.000 C 
ATOM     12  C   UNL     1      -1.555  11.762  18.640  0.00  0.00    +0.000 C 
ATOM     13  C   UNL     1      -0.617  12.880  18.147  0.00  0.00    +0.000 C 
ATOM     14  C   UNL     1      -2.840  12.375  19.227  0.00  0.00    +0.000 C 
ENDBRANCH   1  12
BRANCH   7  15
ATOM     15  C   UNL     1       2.956   7.032  19.605  0.00  0.00    +0.000 C 
BRANCH  15  16
ATOM     16  C   UNL     1       2.391   5.644  19.356  0.00  0.00    +0.000 A 
ATOM     17  C   UNL     1       1.463   5.114  20.276  0.00  0.00    +0.000 A 
ATOM     18  C   UNL     1       0.836   3.887  20.038  0.00  0.00    +0.000 A 
ATOM     19  C   UNL     1       1.138   3.174  18.890  0.00  0.00    +0.000 A 
ATOM     20  F   UNL     1       0.510   2.018  18.643  0.00  0.00    +0.000 F 
ATOM     21  C   UNL     1       2.078   3.649  17.986  0.00  0.00    +0.000 A 
ATOM     22  C   UNL     1       2.707   4.875  18.221  0.00  0.00    +0.000 A 
ATOM     23 CL   UNL     1       3.851   5.404  17.038  0.00  0.00    +0.000 Cl
ENDBRANCH  15  16
ENDBRANCH   7  15
TORSDOF 3
ENDMDL
MODEL 7
REMARK VINA RESULT:      -6.7      1.679      2.073
REMARK  Name = 
REMARK  6 active torsions:
REMARK  status: ('A' for Active; 'I' for Inactive)
REMARK    1  A    between atoms: C_1  and  C_2
REMARK    2  A    between atoms: C_2  and  C_3
REMARK    3  A    between atoms: C_2  and  C_4
REMARK    4  A    between atoms: C_2  and  N_5
REMARK    5  A    between atoms: N_11  and  C_12
REMARK    6  A    between atoms: C_12  and  C_13
REMARK                            x       y       z     vdW  Elec       q    Type
REMARK                         _______ _______ _______ _____ _____    ______ ____
ROOT
ATOM      1  N   UNL     1       1.058   9.998  19.972  0.00  0.00    +0.000 N 
ATOM      2  N   UNL     1       0.743   9.671  21.257  0.00  0.00    +0.000 NA
ATOM      3  C   UNL     1       1.102   8.389  21.371  0.00  0.00    +0.000 A 
ATOM      4  C   UNL     1       1.640   7.891  20.185  0.00  0.00    +0.000 A 
ATOM      5  C   UNL     1       2.173   6.622  19.778  0.00  0.00    +0.000 A 
ATOM      6  O   UNL     1       2.214   5.652  20.529  0.00  0.00    +0.000 OA
ATOM      7  N   UNL     1       2.606   6.617  18.448  0.00  0.00    +0.000 N 
ATOM      8  C   UNL     1       2.452   7.736  17.631  0.00  0.00    +0.000 A 
ATOM      9  N   UNL     1       1.968   8.888  17.988  0.00  0.00    +0.000 NA
ATOM     10  C   UNL     1       1.582   8.924  19.284  0.00  0.00    +0.000 A 
ENDROOT
BRANCH   1  12
ATOM     11  C   UNL     1      -0.445  11.479  18.630  0.00  0.00    +0.000 C 
ATOM     12  C   UNL     1       0.844  11.372  19.481  0.00  0.00    +0.000 C 
ATOM     13  C   UNL     1       2.021  11.813  18.590  0.00  0.00    +0.000 C 
ATOM     14  C   UNL     1       0.694  12.342  20.668  0.00  0.00    +0.000 C 
ENDBRANCH   1  12
BRANCH   7  15
ATOM     15  C   UNL     1       3.129   5.380  17.893  0.00  0.00    +0.000 C 
BRANCH  15  16
ATOM     16  C   UNL     1       4.640   5.254  17.970  0.00  0.00    +0.000 A 
ATOM     17  C   UNL     1       5.285   5.542  19.191  0.00  0.00    +0.000 A 
ATOM     18  C   UNL     1       6.660   5.342  19.342  0.00  0.00    +0.000 A 
ATOM     19  C   UNL     1       7.405   4.865  18.276  0.00  0.00    +0.000 A 
ATOM     20  F   UNL     1       8.715   4.637  18.432  0.00  0.00    +0.000 F 
ATOM     21  C   UNL     1       6.808   4.612  17.050  0.00  0.00    +0.000 A 
ATOM     22  C   UNL     1       5.433   4.812  16.894  0.00  0.00    +0.000 A 
ATOM     23 CL   UNL     1       4.764   4.456  15.341  0.00  0.00    +0.000 Cl
ENDBRANCH  15  16
ENDBRANCH   7  15
TORSDOF 3
ENDMDL
MODEL 8
REMARK VINA RESULT:      -6.7      2.575      3.245
REMARK  Name = 
REMARK  6 active torsions:
REMARK  status: ('A' for Active; 'I' for Inactive)
REMARK    1  A    between atoms: C_1  and  C_2
REMARK    2  A    between atoms: C_2  and  C_3
REMARK    3  A    between atoms: C_2  and  C_4
REMARK    4  A    between atoms: C_2  and  N_5
REMARK    5  A    between atoms: N_11  and  C_12
REMARK    6  A    between atoms: C_12  and  C_13
REMARK                            x       y       z     vdW  Elec       q    Type
REMARK                         _______ _______ _______ _____ _____    ______ ____
ROOT
ATOM      1  N   UNL     1      -0.215  10.313  19.840  0.00  0.00    +0.000 N 
ATOM      2  N   UNL     1      -0.394   9.915  21.131  0.00  0.00    +0.000 NA
ATOM      3  C   UNL     1       0.446   8.887  21.281  0.00  0.00    +0.000 A 
ATOM      4  C   UNL     1       1.159   8.622  20.112  0.00  0.00    +0.000 A 
ATOM      5  C   UNL     1       2.163   7.664  19.743  0.00  0.00    +0.000 A 
ATOM      6  O   UNL     1       2.576   6.809  20.519  0.00  0.00    +0.000 OA
ATOM      7  N   UNL     1       2.583   7.805  18.416  0.00  0.00    +0.000 N 
ATOM      8  C   UNL     1       2.008   8.751  17.569  0.00  0.00    +0.000 A 
ATOM      9  N   UNL     1       1.097   9.619  17.892  0.00  0.00    +0.000 NA
ATOM     10  C   UNL     1       0.707   9.525  19.185  0.00  0.00    +0.000 A 
ENDROOT
BRANCH   1  12
ATOM     11  C   UNL     1       0.007  12.561  18.766  0.00  0.00    +0.000 C 
ATOM     12  C   UNL     1      -0.954  11.475  19.311  0.00  0.00    +0.000 C 
ATOM     13  C   UNL     1      -1.799  12.125  20.423  0.00  0.00    +0.000 C 
ATOM     14  C   UNL     1      -1.863  11.039  18.147  0.00  0.00    +0.000 C 
ENDBRANCH   1  12
BRANCH   7  15
ATOM     15  C   UNL     1       3.568   6.870  17.898  0.00  0.00    +0.000 C 
BRANCH  15  16
ATOM     16  C   UNL     1       3.263   5.414  18.201  0.00  0.00    +0.000 A 
ATOM     17  C   UNL     1       2.008   4.891  17.825  0.00  0.00    +0.000 A 
ATOM     18  C   UNL     1       1.717   3.533  17.987  0.00  0.00    +0.000 A 
ATOM     19  C   UNL     1       2.668   2.689  18.536  0.00  0.00    +0.000 A 
ATOM     20  F   UNL     1       2.405   1.382  18.655  0.00  0.00    +0.000 F 
ATOM     21  C   UNL     1       3.896   3.181  18.954  0.00  0.00    +0.000 A 
ATOM     22  C   UNL     1       4.191   4.538  18.794  0.00  0.00    +0.000 A 
ATOM     23 CL   UNL     1       5.749   5.066  19.324  0.00  0.00    +0.000 Cl
ENDBRANCH  15  16
ENDBRANCH   7  15
TORSDOF 3
ENDMDL
MODEL 9
REMARK VINA RESULT:      -6.7      3.176      4.318
REMARK  Name = 
REMARK  6 active torsions:
REMARK  status: ('A' for Active; 'I' for Inactive)
REMARK    1  A    between atoms: C_1  and  C_2
REMARK    2  A    between atoms: C_2  and  C_3
REMARK    3  A    between atoms: C_2  and  C_4
REMARK    4  A    between atoms: C_2  and  N_5
REMARK    5  A    between atoms: N_11  and  C_12
REMARK    6  A    between atoms: C_12  and  C_13
REMARK                            x       y       z     vdW  Elec       q    Type
REMARK                         _______ _______ _______ _____ _____    ______ ____
ROOT
ATOM      1  N   UNL     1       0.283  10.643  19.831  0.00  0.00    +0.000 N 
ATOM      2  N   UNL     1       0.342  11.101  18.548  0.00  0.00    +0.000 NA
ATOM      3  C   UNL     1       1.096  10.201  17.909  0.00  0.00    +0.000 A 
ATOM      4  C   UNL     1       1.519   9.178  18.759  0.00  0.00    +0.000 A 
ATOM      5  C   UNL     1       2.314   7.995  18.588  0.00  0.00    +0.000 A 
ATOM      6  O   UNL     1       2.823   7.691  17.514  0.00  0.00    +0.000 OA
ATOM      7  N   UNL     1       2.457   7.264  19.773  0.00  0.00    +0.000 N 
ATOM      8  C   UNL     1       1.916   7.717  20.975  0.00  0.00    +0.000 A 
ATOM      9  N   UNL     1       1.198   8.788  21.140  0.00  0.00    +0.000 NA
ATOM     10  C   UNL     1       1.014   9.486  19.996  0.00  0.00    +0.000 A 
ENDROOT
BRANCH   1  12
ATOM     11  C   UNL     1      -0.818  10.473  22.070  0.00  0.00    +0.000 C 
ATOM     12  C   UNL     1      -0.515  11.364  20.841  0.00  0.00    +0.000 C 
ATOM     13  C   UNL     1      -1.867  11.801  20.245  0.00  0.00    +0.000 C 
ATOM     14  C   UNL     1       0.259  12.596  21.346  0.00  0.00    +0.000 C 
ENDBRANCH   1  12
BRANCH   7  15
ATOM     15  C   UNL     1       3.276   6.064  19.752  0.00  0.00    +0.000 C 
BRANCH  15  16
ATOM     16  C   UNL     1       2.514   4.797  19.405  0.00  0.00    +0.000 A 
ATOM     17  C   UNL     1       1.507   4.348  20.285  0.00  0.00    +0.000 A 
ATOM     18  C   UNL     1       0.708   3.248  19.961  0.00  0.00    +0.000 A 
ATOM     19  C   UNL     1       0.913   2.578  18.766  0.00  0.00    +0.000 A 
ATOM     20  F   UNL     1       0.124   1.549  18.438  0.00  0.00    +0.000 F 
ATOM     21  C   UNL     1       1.924   2.969  17.899  0.00  0.00    +0.000 A 
ATOM     22  C   UNL     1       2.725   4.069  18.219  0.00  0.00    +0.000 A 
ATOM     23 CL   UNL     1       3.949   4.502  17.078  0.00  0.00    +0.000 Cl
ENDBRANCH  15  16
ENDBRANCH   7  15
TORSDOF 3
ENDMDL
