MODEL 1
REMARK VINA RESULT:      -8.0      0.000      0.000
REMARK  Name = 
REMARK  1 active torsions:
REMARK  status: ('A' for Active; 'I' for Inactive)
REMARK    1  A    between atoms: C_5  and  C_6
REMARK                            x       y       z     vdW  Elec       q    Type
REMARK                         _______ _______ _______ _____ _____    ______ ____
ROOT
ATOM      1  O   UNL     1       1.835   2.215  21.976  0.00  0.00    +0.000 OA
ATOM      2  C   UNL     1       1.960   3.024  21.055  0.00  0.00    +0.000 C 
ATOM      3  C   UNL     1       1.840   2.627  19.593  0.00  0.00    +0.000 C 
ATOM      4  N   UNL     1       3.101   2.845  18.898  0.00  0.00    +0.000 NA
ATOM      5  C   UNL     1       3.535   4.049  18.725  0.00  0.00    +0.000 C 
ATOM      6  C   UNL     1       2.824   5.291  19.160  0.00  0.00    +0.000 A 
ATOM      7  C   UNL     1       2.832   6.399  18.295  0.00  0.00    +0.000 A 
ATOM      8  C   UNL     1       2.295   7.617  18.704  0.00  0.00    +0.000 A 
ATOM      9 CL   UNL     1       2.324   8.966  17.638  0.00  0.00    +0.000 Cl
ATOM     10  C   UNL     1       1.749   7.752  19.975  0.00  0.00    +0.000 A 
ATOM     11  C   UNL     1       1.725   6.654  20.838  0.00  0.00    +0.000 A 
ATOM     12  C   UNL     1       2.226   5.409  20.426  0.00  0.00    +0.000 A 
ATOM     13  N   UNL     1       2.088   4.356  21.342  0.00  0.00    +0.000 N 
ATOM     14  H   UNL     1       1.923   4.567  22.319  0.00  0.00    +0.000 HD
ENDROOT
BRANCH   5  15
ATOM     15  C   UNL     1       4.861   4.203  18.048  0.00  0.00    +0.000 A 
ATOM     16  C   UNL     1       5.984   4.572  18.776  0.00  0.00    +0.000 A 
ATOM     17  N   UNL     1       7.205   4.724  18.202  0.00  0.00    +0.000 NA
ATOM     18  C   UNL     1       7.243   4.522  16.866  0.00  0.00    +0.000 A 
ATOM     19  C   UNL     1       6.118   4.169  16.135  0.00  0.00    +0.000 A 
ATOM     20  N   UNL     1       4.905   3.989  16.705  0.00  0.00    +0.000 NA
ENDBRANCH   5  15
TORSDOF 1
ENDMDL
MODEL 2
REMARK VINA RESULT:      -8.0      0.626      1.104
REMARK  Name = 
REMARK  1 active torsions:
REMARK  status: ('A' for Active; 'I' for Inactive)
REMARK    1  A    between atoms: C_5  and  C_6
REMARK                            x       y       z     vdW  Elec       q    Type
REMARK                         _______ _______ _______ _____ _____    ______ ____
ROOT
ATOM      1  O   UNL     1       1.928   2.261  22.015  0.00  0.00    +0.000 OA
ATOM      2  C   UNL     1       2.037   3.062  21.085  0.00  0.00    +0.000 C 
ATOM      3  C   UNL     1       1.910   2.649  19.627  0.00  0.00    +0.000 C 
ATOM      4  N   UNL     1       3.163   2.876  18.920  0.00  0.00    +0.000 NA
ATOM      5  C   UNL     1       3.580   4.083  18.732  0.00  0.00    +0.000 C 
ATOM      6  C   UNL     1       2.857   5.320  19.161  0.00  0.00    +0.000 A 
ATOM      7  C   UNL     1       2.845   6.420  18.284  0.00  0.00    +0.000 A 
ATOM      8  C   UNL     1       2.296   7.635  18.686  0.00  0.00    +0.000 A 
ATOM      9 CL   UNL     1       2.300   8.974  17.606  0.00  0.00    +0.000 Cl
ATOM     10  C   UNL     1       1.758   7.776  19.959  0.00  0.00    +0.000 A 
ATOM     11  C   UNL     1       1.755   6.687  20.833  0.00  0.00    +0.000 A 
ATOM     12  C   UNL     1       2.268   5.444  20.430  0.00  0.00    +0.000 A 
ATOM     13  N   UNL     1       2.149   4.399  21.357  0.00  0.00    +0.000 N 
ATOM     14  H   UNL     1       1.990   4.617  22.334  0.00  0.00    +0.000 HD
ENDROOT
BRANCH   5  15
ATOM     15  C   UNL     1       4.899   4.247  18.043  0.00  0.00    +0.000 A 
ATOM     16  C   UNL     1       5.018   3.990  16.683  0.00  0.00    +0.000 A 
ATOM     17  N   UNL     1       6.195   4.125  16.019  0.00  0.00    +0.000 NA
ATOM     18  C   UNL     1       7.248   4.494  16.781  0.00  0.00    +0.000 A 
ATOM     19  C   UNL     1       7.133   4.734  18.142  0.00  0.00    +0.000 A 
ATOM     20  N   UNL     1       5.959   4.629  18.805  0.00  0.00    +0.000 NA
ENDBRANCH   5  15
TORSDOF 1
ENDMDL
MODEL 3
REMARK VINA RESULT:      -7.6      3.057      5.319
REMARK  Name = 
REMARK  1 active torsions:
REMARK  status: ('A' for Active; 'I' for Inactive)
REMARK    1  A    between atoms: C_5  and  C_6
REMARK                            x       y       z     vdW  Elec       q    Type
REMARK                         _______ _______ _______ _____ _____    ______ ____
ROOT
ATOM      1  O   UNL     1       7.773   4.919  17.353  0.00  0.00    +0.000 OA
ATOM      2  C   UNL     1       6.547   4.798  17.346  0.00  0.00    +0.000 C 
ATOM      3  C   UNL     1       5.670   5.383  16.251  0.00  0.00    +0.000 C 
ATOM      4  N   UNL     1       4.772   6.392  16.798  0.00  0.00    +0.000 NA
ATOM      5  C   UNL     1       3.835   6.037  17.612  0.00  0.00    +0.000 C 
ATOM      6  C   UNL     1       3.552   4.632  18.040  0.00  0.00    +0.000 A 
ATOM      7  C   UNL     1       2.210   4.227  18.145  0.00  0.00    +0.000 A 
ATOM      8  C   UNL     1       1.890   2.973  18.659  0.00  0.00    +0.000 A 
ATOM      9 CL   UNL     1       0.243   2.497  18.792  0.00  0.00    +0.000 Cl
ATOM     10  C   UNL     1       2.895   2.110  19.080  0.00  0.00    +0.000 A 
ATOM     11  C   UNL     1       4.231   2.498  18.969  0.00  0.00    +0.000 A 
ATOM     12  C   UNL     1       4.572   3.742  18.416  0.00  0.00    +0.000 A 
ATOM     13  N   UNL     1       5.943   4.002  18.283  0.00  0.00    +0.000 N 
ATOM     14  H   UNL     1       6.606   3.463  18.828  0.00  0.00    +0.000 HD
ENDROOT
BRANCH   5  15
ATOM     15  C   UNL     1       2.978   7.127  18.177  0.00  0.00    +0.000 A 
ATOM     16  C   UNL     1       2.559   7.077  19.500  0.00  0.00    +0.000 A 
ATOM     17  N   UNL     1       1.781   8.043  20.053  0.00  0.00    +0.000 NA
ATOM     18  C   UNL     1       1.416   9.039  19.215  0.00  0.00    +0.000 A 
ATOM     19  C   UNL     1       1.821   9.081  17.889  0.00  0.00    +0.000 A 
ATOM     20  N   UNL     1       2.619   8.137  17.340  0.00  0.00    +0.000 NA
ENDBRANCH   5  15
TORSDOF 1
ENDMDL
MODEL 4
REMARK VINA RESULT:      -7.5      3.079      5.380
REMARK  Name = 
REMARK  1 active torsions:
REMARK  status: ('A' for Active; 'I' for Inactive)
REMARK    1  A    between atoms: C_5  and  C_6
REMARK                            x       y       z     vdW  Elec       q    Type
REMARK                         _______ _______ _______ _____ _____    ______ ____
ROOT
ATOM      1  O   UNL     1       7.830   4.995  17.735  0.00  0.00    +0.000 OA
ATOM      2  C   UNL     1       6.609   4.847  17.667  0.00  0.00    +0.000 C 
ATOM      3  C   UNL     1       5.773   5.432  16.540  0.00  0.00    +0.000 C 
ATOM      4  N   UNL     1       4.826   6.410  17.059  0.00  0.00    +0.000 NA
ATOM      5  C   UNL     1       3.859   6.021  17.821  0.00  0.00    +0.000 C 
ATOM      6  C   UNL     1       3.589   4.603  18.212  0.00  0.00    +0.000 A 
ATOM      7  C   UNL     1       2.253   4.166  18.245  0.00  0.00    +0.000 A 
ATOM      8  C   UNL     1       1.939   2.896  18.723  0.00  0.00    +0.000 A 
ATOM      9 CL   UNL     1       0.298   2.381  18.768  0.00  0.00    +0.000 Cl
ATOM     10  C   UNL     1       2.941   2.048  19.177  0.00  0.00    +0.000 A 
ATOM     11  C   UNL     1       4.272   2.468  19.137  0.00  0.00    +0.000 A 
ATOM     12  C   UNL     1       4.610   3.729  18.622  0.00  0.00    +0.000 A 
ATOM     13  N   UNL     1       5.980   4.022  18.560  0.00  0.00    +0.000 N 
ATOM     14  H   UNL     1       6.628   3.489  19.128  0.00  0.00    +0.000 HD
ENDROOT
BRANCH   5  15
ATOM     15  C   UNL     1       2.952   7.081  18.361  0.00  0.00    +0.000 A 
ATOM     16  C   UNL     1       2.527   8.123  17.549  0.00  0.00    +0.000 A 
ATOM     17  N   UNL     1       1.704   9.107  17.999  0.00  0.00    +0.000 NA
ATOM     18  C   UNL     1       1.355   9.015  19.301  0.00  0.00    +0.000 A 
ATOM     19  C   UNL     1       1.793   7.983  20.117  0.00  0.00    +0.000 A 
ATOM     20  N   UNL     1       2.589   6.986  19.669  0.00  0.00    +0.000 NA
ENDBRANCH   5  15
TORSDOF 1
ENDMDL
MODEL 5
REMARK VINA RESULT:      -7.3      3.722      6.184
REMARK  Name = 
REMARK  1 active torsions:
REMARK  status: ('A' for Active; 'I' for Inactive)
REMARK    1  A    between atoms: C_5  and  C_6
REMARK                            x       y       z     vdW  Elec       q    Type
REMARK                         _______ _______ _______ _____ _____    ______ ____
ROOT
ATOM      1  O   UNL     1       7.917   7.285  18.165  0.00  0.00    +0.000 OA
ATOM      2  C   UNL     1       7.122   6.787  17.366  0.00  0.00    +0.000 C 
ATOM      3  C   UNL     1       5.683   7.259  17.238  0.00  0.00    +0.000 C 
ATOM      4  N   UNL     1       4.760   6.192  17.600  0.00  0.00    +0.000 NA
ATOM      5  C   UNL     1       4.674   5.142  16.854  0.00  0.00    +0.000 C 
ATOM      6  C   UNL     1       5.440   4.920  15.589  0.00  0.00    +0.000 A 
ATOM      7  C   UNL     1       4.770   4.331  14.502  0.00  0.00    +0.000 A 
ATOM      8  C   UNL     1       5.467   3.988  13.346  0.00  0.00    +0.000 A 
ATOM      9 CL   UNL     1       4.635   3.256  12.031  0.00  0.00    +0.000 Cl
ATOM     10  C   UNL     1       6.834   4.220  13.256  0.00  0.00    +0.000 A 
ATOM     11  C   UNL     1       7.506   4.816  14.325  0.00  0.00    +0.000 A 
ATOM     12  C   UNL     1       6.811   5.204  15.481  0.00  0.00    +0.000 A 
ATOM     13  N   UNL     1       7.567   5.859  16.463  0.00  0.00    +0.000 N 
ATOM     14  H   UNL     1       8.577   5.770  16.454  0.00  0.00    +0.000 HD
ENDROOT
BRANCH   5  15
ATOM     15  C   UNL     1       3.744   4.060  17.308  0.00  0.00    +0.000 A 
ATOM     16  C   UNL     1       2.385   4.313  17.442  0.00  0.00    +0.000 A 
ATOM     17  N   UNL     1       1.506   3.361  17.852  0.00  0.00    +0.000 NA
ATOM     18  C   UNL     1       2.053   2.162  18.150  0.00  0.00    +0.000 A 
ATOM     19  C   UNL     1       3.412   1.914  18.032  0.00  0.00    +0.000 A 
ATOM     20  N   UNL     1       4.289   2.849  17.598  0.00  0.00    +0.000 NA
ENDBRANCH   5  15
TORSDOF 1
ENDMDL
MODEL 6
REMARK VINA RESULT:      -7.3      1.912      2.530
REMARK  Name = 
REMARK  1 active torsions:
REMARK  status: ('A' for Active; 'I' for Inactive)
REMARK    1  A    between atoms: C_5  and  C_6
REMARK                            x       y       z     vdW  Elec       q    Type
REMARK                         _______ _______ _______ _____ _____    ______ ____
ROOT
ATOM      1  O   UNL     1       3.642   0.763  18.795  0.00  0.00    +0.000 OA
ATOM      2  C   UNL     1       3.488   1.979  18.672  0.00  0.00    +0.000 C 
ATOM      3  C   UNL     1       3.614   2.692  17.336  0.00  0.00    +0.000 C 
ATOM      4  N   UNL     1       4.722   3.637  17.362  0.00  0.00    +0.000 NA
ATOM      5  C   UNL     1       4.653   4.680  18.120  0.00  0.00    +0.000 C 
ATOM      6  C   UNL     1       3.487   5.042  18.983  0.00  0.00    +0.000 A 
ATOM      7  C   UNL     1       3.103   6.393  19.050  0.00  0.00    +0.000 A 
ATOM      8  C   UNL     1       2.107   6.799  19.934  0.00  0.00    +0.000 A 
ATOM      9 CL   UNL     1       1.658   8.458  20.013  0.00  0.00    +0.000 Cl
ATOM     10  C   UNL     1       1.484   5.875  20.764  0.00  0.00    +0.000 A 
ATOM     11  C   UNL     1       1.849   4.529  20.696  0.00  0.00    +0.000 A 
ATOM     12  C   UNL     1       2.823   4.096  19.783  0.00  0.00    +0.000 A 
ATOM     13  N   UNL     1       3.062   2.715  19.745  0.00  0.00    +0.000 N 
ATOM     14  H   UNL     1       2.775   2.140  20.529  0.00  0.00    +0.000 HD
ENDROOT
BRANCH   5  15
ATOM     15  C   UNL     1       5.845   5.586  18.139  0.00  0.00    +0.000 A 
ATOM     16  C   UNL     1       5.972   6.600  17.198  0.00  0.00    +0.000 A 
ATOM     17  N   UNL     1       7.038   7.443  17.179  0.00  0.00    +0.000 NA
ATOM     18  C   UNL     1       7.979   7.204  18.119  0.00  0.00    +0.000 A 
ATOM     19  C   UNL     1       7.860   6.181  19.048  0.00  0.00    +0.000 A 
ATOM     20  N   UNL     1       6.789   5.356  19.091  0.00  0.00    +0.000 NA
ENDBRANCH   5  15
TORSDOF 1
ENDMDL
MODEL 7
REMARK VINA RESULT:      -7.0      3.760      6.127
REMARK  Name = 
REMARK  1 active torsions:
REMARK  status: ('A' for Active; 'I' for Inactive)
REMARK    1  A    between atoms: C_5  and  C_6
REMARK                            x       y       z     vdW  Elec       q    Type
REMARK                         _______ _______ _______ _____ _____    ______ ____
ROOT
ATOM      1  O   UNL     1       8.033   7.268  18.263  0.00  0.00    +0.000 OA
ATOM      2  C   UNL     1       7.220   6.799  17.465  0.00  0.00    +0.000 C 
ATOM      3  C   UNL     1       5.800   7.326  17.335  0.00  0.00    +0.000 C 
ATOM      4  N   UNL     1       4.837   6.297  17.700  0.00  0.00    +0.000 NA
ATOM      5  C   UNL     1       4.711   5.248  16.958  0.00  0.00    +0.000 C 
ATOM      6  C   UNL     1       5.467   4.993  15.693  0.00  0.00    +0.000 A 
ATOM      7  C   UNL     1       4.775   4.427  14.608  0.00  0.00    +0.000 A 
ATOM      8  C   UNL     1       5.459   4.054  13.453  0.00  0.00    +0.000 A 
ATOM      9 CL   UNL     1       4.600   3.350  12.140  0.00  0.00    +0.000 Cl
ATOM     10  C   UNL     1       6.834   4.233  13.363  0.00  0.00    +0.000 A 
ATOM     11  C   UNL     1       7.529   4.805  14.430  0.00  0.00    +0.000 A 
ATOM     12  C   UNL     1       6.849   5.224  15.584  0.00  0.00    +0.000 A 
ATOM     13  N   UNL     1       7.629   5.852  16.565  0.00  0.00    +0.000 N 
ATOM     14  H   UNL     1       8.635   5.725  16.556  0.00  0.00    +0.000 HD
ENDROOT
BRANCH   5  15
ATOM     15  C   UNL     1       3.740   4.205  17.414  0.00  0.00    +0.000 A 
ATOM     16  C   UNL     1       4.161   2.899  17.632  0.00  0.00    +0.000 A 
ATOM     17  N   UNL     1       3.313   1.921  18.045  0.00  0.00    +0.000 NA
ATOM     18  C   UNL     1       2.025   2.302  18.198  0.00  0.00    +0.000 A 
ATOM     19  C   UNL     1       1.601   3.602  17.965  0.00  0.00    +0.000 A 
ATOM     20  N   UNL     1       2.445   4.586  17.581  0.00  0.00    +0.000 NA
ENDBRANCH   5  15
TORSDOF 1
ENDMDL
MODEL 8
REMARK VINA RESULT:      -7.0      1.307      1.634
REMARK  Name = 
REMARK  1 active torsions:
REMARK  status: ('A' for Active; 'I' for Inactive)
REMARK    1  A    between atoms: C_5  and  C_6
REMARK                            x       y       z     vdW  Elec       q    Type
REMARK                         _______ _______ _______ _____ _____    ______ ____
ROOT
ATOM      1  O   UNL     1       1.491   2.973  21.334  0.00  0.00    +0.000 OA
ATOM      2  C   UNL     1       1.646   3.892  20.528  0.00  0.00    +0.000 C 
ATOM      3  C   UNL     1       1.621   3.679  19.024  0.00  0.00    +0.000 C 
ATOM      4  N   UNL     1       2.913   4.008  18.438  0.00  0.00    +0.000 NA
ATOM      5  C   UNL     1       3.321   5.232  18.441  0.00  0.00    +0.000 C 
ATOM      6  C   UNL     1       2.552   6.395  18.982  0.00  0.00    +0.000 A 
ATOM      7  C   UNL     1       2.578   7.602  18.261  0.00  0.00    +0.000 A 
ATOM      8  C   UNL     1       1.984   8.748  18.785  0.00  0.00    +0.000 A 
ATOM      9 CL   UNL     1       2.037  10.220  17.896  0.00  0.00    +0.000 Cl
ATOM     10  C   UNL     1       1.364   8.713  20.027  0.00  0.00    +0.000 A 
ATOM     11  C   UNL     1       1.321   7.516  20.745  0.00  0.00    +0.000 A 
ATOM     12  C   UNL     1       1.880   6.343  20.215  0.00  0.00    +0.000 A 
ATOM     13  N   UNL     1       1.719   5.181  20.984  0.00  0.00    +0.000 N 
ATOM     14  H   UNL     1       1.494   5.265  21.968  0.00  0.00    +0.000 HD
ENDROOT
BRANCH   5  15
ATOM     15  C   UNL     1       4.679   5.497  17.869  0.00  0.00    +0.000 A 
ATOM     16  C   UNL     1       4.857   5.585  16.494  0.00  0.00    +0.000 A 
ATOM     17  N   UNL     1       6.071   5.822  15.933  0.00  0.00    +0.000 NA
ATOM     18  C   UNL     1       7.098   5.934  16.805  0.00  0.00    +0.000 A 
ATOM     19  C   UNL     1       6.922   5.831  18.177  0.00  0.00    +0.000 A 
ATOM     20  N   UNL     1       5.712   5.622  18.744  0.00  0.00    +0.000 NA
ENDBRANCH   5  15
TORSDOF 1
ENDMDL
MODEL 9
REMARK VINA RESULT:      -7.0      1.956      2.452
REMARK  Name = 
REMARK  1 active torsions:
REMARK  status: ('A' for Active; 'I' for Inactive)
REMARK    1  A    between atoms: C_5  and  C_6
REMARK                            x       y       z     vdW  Elec       q    Type
REMARK                         _______ _______ _______ _____ _____    ______ ____
ROOT
ATOM      1  O   UNL     1       3.664   0.885  18.549  0.00  0.00    +0.000 OA
ATOM      2  C   UNL     1       3.498   2.104  18.486  0.00  0.00    +0.000 C 
ATOM      3  C   UNL     1       3.585   2.877  17.180  0.00  0.00    +0.000 C 
ATOM      4  N   UNL     1       4.687   3.829  17.221  0.00  0.00    +0.000 NA
ATOM      5  C   UNL     1       4.630   4.836  18.026  0.00  0.00    +0.000 C 
ATOM      6  C   UNL     1       3.483   5.149  18.934  0.00  0.00    +0.000 A 
ATOM      7  C   UNL     1       3.092   6.493  19.071  0.00  0.00    +0.000 A 
ATOM      8  C   UNL     1       2.115   6.851  19.997  0.00  0.00    +0.000 A 
ATOM      9 CL   UNL     1       1.657   8.501  20.162  0.00  0.00    +0.000 Cl
ATOM     10  C   UNL     1       1.520   5.885  20.799  0.00  0.00    +0.000 A 
ATOM     11  C   UNL     1       1.892   4.547  20.662  0.00  0.00    +0.000 A 
ATOM     12  C   UNL     1       2.846   4.163  19.706  0.00  0.00    +0.000 A 
ATOM     13  N   UNL     1       3.094   2.787  19.601  0.00  0.00    +0.000 N 
ATOM     14  H   UNL     1       2.831   2.176  20.365  0.00  0.00    +0.000 HD
ENDROOT
BRANCH   5  15
ATOM     15  C   UNL     1       5.816   5.750  18.057  0.00  0.00    +0.000 A 
ATOM     16  C   UNL     1       6.849   5.530  18.958  0.00  0.00    +0.000 A 
ATOM     17  N   UNL     1       7.942   6.334  19.020  0.00  0.00    +0.000 NA
ATOM     18  C   UNL     1       7.937   7.381  18.165  0.00  0.00    +0.000 A 
ATOM     19  C   UNL     1       6.897   7.610  17.276  0.00  0.00    +0.000 A 
ATOM     20  N   UNL     1       5.819   6.797  17.190  0.00  0.00    +0.000 NA
ENDBRANCH   5  15
TORSDOF 1
ENDMDL
