MODEL 1
REMARK VINA RESULT:      -8.2      0.000      0.000
REMARK  Name = 
REMARK  8 active torsions:
REMARK  status: ('A' for Active; 'I' for Inactive)
REMARK    1  A    between atoms: C_1  and  C_2
REMARK    2  A    between atoms: C_5  and  C_6
REMARK    3  A    between atoms: C_6  and  N_7
REMARK    4  A    between atoms: C_8  and  C_10
REMARK    5  A    between atoms: C_10  and  C_11
REMARK    6  A    between atoms: C_11  and  S_12
REMARK    7  A    between atoms: S_12  and  C_15
REMARK    8  A    between atoms: C_24  and  C_25
REMARK                            x       y       z     vdW  Elec       q    Type
REMARK                         _______ _______ _______ _____ _____    ______ ____
ROOT
ATOM      1  S   UNL     1       2.425   4.878  20.204  0.00  0.00    +0.000 S 
ATOM      2  O   UNL     1       2.046   4.455  21.540  0.00  0.00    +0.000 OA
ATOM      3  O   UNL     1       3.807   4.815  19.772  0.00  0.00    +0.000 OA
ENDROOT
BRANCH   1   4
ATOM      4  C   UNL     1       1.890   6.571  20.023  0.00  0.00    +0.000 A 
ATOM      5  C   UNL     1       2.261   7.289  18.886  0.00  0.00    +0.000 A 
ATOM      6  C   UNL     1       1.913   8.634  18.783  0.00  0.00    +0.000 A 
ATOM      7  C   UNL     1       1.210   9.276  19.813  0.00  0.00    +0.000 A 
ATOM      8  C   UNL     1       0.865   8.556  20.967  0.00  0.00    +0.000 A 
ATOM      9  C   UNL     1       1.204   7.200  21.072  0.00  0.00    +0.000 A 
ATOM     10  N   UNL     1       0.272   9.177  22.079  0.00  0.00    +0.000 N 
ATOM     11  C   UNL     1      -0.167  10.478  22.143  0.00  0.00    +0.000 C 
ATOM     12  O   UNL     1      -0.434  10.963  23.243  0.00  0.00    +0.000 OA
ATOM     13  C   UNL     1      -0.462  11.190  20.826  0.00  0.00    +0.000 C 
ATOM     14  C   UNL     1      -0.757  12.674  21.018  0.00  0.00    +0.000 C 
ATOM     15  S   UNL     1       0.910  11.022  19.646  0.00  0.00    +0.000 S 
ATOM     16  H   UNL     1       0.278   8.696  22.970  0.00  0.00    +0.000 HD
ENDBRANCH   1   4
BRANCH   1  17
ATOM     17  C   UNL     1       1.437   3.978  19.037  0.00  0.00    +0.000 C 
BRANCH  17  18
ATOM     18  C   UNL     1       1.912   2.535  18.912  0.00  0.00    +0.000 C 
BRANCH  18  20
ATOM     19  N   UNL     1       3.470   3.458  17.300  0.00  0.00    +0.000 N 
ATOM     20  C   UNL     1       3.272   2.483  18.249  0.00  0.00    +0.000 C 
ATOM     21  O   UNL     1       4.112   1.639  18.543  0.00  0.00    +0.000 OA
ATOM     22  H   UNL     1       2.736   4.122  17.094  0.00  0.00    +0.000 HD
BRANCH  19  23
ATOM     23  C   UNL     1       4.692   3.547  16.524  0.00  0.00    +0.000 C 
BRANCH  23  28
ATOM     24  C   UNL     1       7.981   8.207  17.753  0.00  0.00    +0.000 C 
ATOM     25  C   UNL     1       7.127   7.006  17.467  0.00  0.00    +0.000 A 
ATOM     26  C   UNL     1       7.587   5.714  17.741  0.00  0.00    +0.000 A 
ATOM     27  C   UNL     1       6.791   4.602  17.454  0.00  0.00    +0.000 A 
ATOM     28  C   UNL     1       5.516   4.757  16.891  0.00  0.00    +0.000 A 
ATOM     29  C   UNL     1       5.059   6.054  16.615  0.00  0.00    +0.000 A 
ATOM     30  C   UNL     1       5.857   7.166  16.902  0.00  0.00    +0.000 A 
ENDBRANCH  23  28
ENDBRANCH  19  23
ENDBRANCH  18  20
ENDBRANCH  17  18
ENDBRANCH   1  17
TORSDOF 6
ENDMDL
MODEL 2
REMARK VINA RESULT:      -8.2      2.919      4.586
REMARK  Name = 
REMARK  8 active torsions:
REMARK  status: ('A' for Active; 'I' for Inactive)
REMARK    1  A    between atoms: C_1  and  C_2
REMARK    2  A    between atoms: C_5  and  C_6
REMARK    3  A    between atoms: C_6  and  N_7
REMARK    4  A    between atoms: C_8  and  C_10
REMARK    5  A    between atoms: C_10  and  C_11
REMARK    6  A    between atoms: C_11  and  S_12
REMARK    7  A    between atoms: S_12  and  C_15
REMARK    8  A    between atoms: C_24  and  C_25
REMARK                            x       y       z     vdW  Elec       q    Type
REMARK                         _______ _______ _______ _____ _____    ______ ____
ROOT
ATOM      1  S   UNL     1       3.597   5.589  18.352  0.00  0.00    +0.000 S 
ATOM      2  O   UNL     1       2.769   4.762  17.492  0.00  0.00    +0.000 OA
ATOM      3  O   UNL     1       4.176   5.046  19.565  0.00  0.00    +0.000 OA
ENDROOT
BRANCH   1   4
ATOM      4  C   UNL     1       2.611   7.000  18.821  0.00  0.00    +0.000 A 
ATOM      5  C   UNL     1       2.345   7.994  17.879  0.00  0.00    +0.000 A 
ATOM      6  C   UNL     1       1.645   9.134  18.267  0.00  0.00    +0.000 A 
ATOM      7  C   UNL     1       1.221   9.302  19.593  0.00  0.00    +0.000 A 
ATOM      8  C   UNL     1       1.517   8.313  20.543  0.00  0.00    +0.000 A 
ATOM      9  C   UNL     1       2.212   7.159  20.156  0.00  0.00    +0.000 A 
ATOM     10  N   UNL     1       1.226   8.483  21.907  0.00  0.00    +0.000 N 
ATOM     11  C   UNL     1       0.517   9.522  22.461  0.00  0.00    +0.000 C 
ATOM     12  O   UNL     1       0.549   9.681  23.682  0.00  0.00    +0.000 OA
ATOM     13  C   UNL     1      -0.409  10.314  21.543  0.00  0.00    +0.000 C 
ATOM     14  C   UNL     1      -0.991  11.548  22.225  0.00  0.00    +0.000 C 
ATOM     15  S   UNL     1       0.436  10.840  20.023  0.00  0.00    +0.000 S 
ATOM     16  H   UNL     1       1.679   7.882  22.584  0.00  0.00    +0.000 HD
ENDBRANCH   1   4
BRANCH   1  17
ATOM     17  C   UNL     1       4.906   6.274  17.370  0.00  0.00    +0.000 C 
BRANCH  17  18
ATOM     18  C   UNL     1       6.213   6.325  18.153  0.00  0.00    +0.000 C 
BRANCH  18  20
ATOM     19  N   UNL     1       7.589   8.314  17.999  0.00  0.00    +0.000 N 
ATOM     20  C   UNL     1       7.250   7.126  17.395  0.00  0.00    +0.000 C 
ATOM     21  O   UNL     1       7.735   6.738  16.338  0.00  0.00    +0.000 OA
ATOM     22  H   UNL     1       7.149   8.586  18.868  0.00  0.00    +0.000 HD
BRANCH  19  23
ATOM     23  C   UNL     1       8.533   9.243  17.406  0.00  0.00    +0.000 C 
BRANCH  23  28
ATOM     24  C   UNL     1       9.742  13.602  21.092  0.00  0.00    +0.000 C 
ATOM     25  C   UNL     1       9.459  12.484  20.130  0.00  0.00    +0.000 A 
ATOM     26  C   UNL     1       9.090  12.747  18.808  0.00  0.00    +0.000 A 
ATOM     27  C   UNL     1       8.811  11.699  17.926  0.00  0.00    +0.000 A 
ATOM     28  C   UNL     1       8.899  10.365  18.347  0.00  0.00    +0.000 A 
ATOM     29  C   UNL     1       9.268  10.104  19.675  0.00  0.00    +0.000 A 
ATOM     30  C   UNL     1       9.546  11.153  20.556  0.00  0.00    +0.000 A 
ENDBRANCH  23  28
ENDBRANCH  19  23
ENDBRANCH  18  20
ENDBRANCH  17  18
ENDBRANCH   1  17
TORSDOF 6
ENDMDL
MODEL 3
REMARK VINA RESULT:      -8.1      2.753      4.019
REMARK  Name = 
REMARK  8 active torsions:
REMARK  status: ('A' for Active; 'I' for Inactive)
REMARK    1  A    between atoms: C_1  and  C_2
REMARK    2  A    between atoms: C_5  and  C_6
REMARK    3  A    between atoms: C_6  and  N_7
REMARK    4  A    between atoms: C_8  and  C_10
REMARK    5  A    between atoms: C_10  and  C_11
REMARK    6  A    between atoms: C_11  and  S_12
REMARK    7  A    between atoms: S_12  and  C_15
REMARK    8  A    between atoms: C_24  and  C_25
REMARK                            x       y       z     vdW  Elec       q    Type
REMARK                         _______ _______ _______ _____ _____    ______ ____
ROOT
ATOM      1  S   UNL     1       3.674   5.913  18.334  0.00  0.00    +0.000 S 
ATOM      2  O   UNL     1       2.879   5.025  17.504  0.00  0.00    +0.000 OA
ATOM      3  O   UNL     1       4.347   5.414  19.516  0.00  0.00    +0.000 OA
ENDROOT
BRANCH   1   4
ATOM      4  C   UNL     1       2.599   7.238  18.855  0.00  0.00    +0.000 A 
ATOM      5  C   UNL     1       2.238   8.228  17.940  0.00  0.00    +0.000 A 
ATOM      6  C   UNL     1       1.467   9.306  18.368  0.00  0.00    +0.000 A 
ATOM      7  C   UNL     1       1.063   9.415  19.707  0.00  0.00    +0.000 A 
ATOM      8  C   UNL     1       1.453   8.432  20.628  0.00  0.00    +0.000 A 
ATOM      9  C   UNL     1       2.221   7.340  20.201  0.00  0.00    +0.000 A 
ATOM     10  N   UNL     1       1.183   8.553  22.002  0.00  0.00    +0.000 N 
ATOM     11  C   UNL     1       0.413   9.526  22.593  0.00  0.00    +0.000 C 
ATOM     12  O   UNL     1       0.462   9.662  23.816  0.00  0.00    +0.000 OA
ATOM     13  C   UNL     1      -0.589  10.266  21.714  0.00  0.00    +0.000 C 
ATOM     14  C   UNL     1      -1.243  11.440  22.435  0.00  0.00    +0.000 C 
ATOM     15  S   UNL     1       0.178  10.882  20.186  0.00  0.00    +0.000 S 
ATOM     16  H   UNL     1       1.695   7.973  22.656  0.00  0.00    +0.000 HD
ENDBRANCH   1   4
BRANCH   1  17
ATOM     17  C   UNL     1       4.879   6.704  17.300  0.00  0.00    +0.000 C 
BRANCH  17  18
ATOM     18  C   UNL     1       6.288   6.508  17.848  0.00  0.00    +0.000 C 
BRANCH  18  20
ATOM     19  N   UNL     1       7.149   5.822  15.689  0.00  0.00    +0.000 N 
ATOM     20  C   UNL     1       7.039   5.489  17.018  0.00  0.00    +0.000 C 
ATOM     21  O   UNL     1       7.501   4.461  17.502  0.00  0.00    +0.000 OA
ATOM     22  H   UNL     1       6.739   6.680  15.344  0.00  0.00    +0.000 HD
BRANCH  19  23
ATOM     23  C   UNL     1       7.795   4.953  14.723  0.00  0.00    +0.000 C 
BRANCH  23  28
ATOM     24  C   UNL     1       3.939   2.847  10.884  0.00  0.00    +0.000 C 
ATOM     25  C   UNL     1       4.932   3.360  11.885  0.00  0.00    +0.000 A 
ATOM     26  C   UNL     1       4.541   3.682  13.188  0.00  0.00    +0.000 A 
ATOM     27  C   UNL     1       5.471   4.177  14.107  0.00  0.00    +0.000 A 
ATOM     28  C   UNL     1       6.813   4.357  13.743  0.00  0.00    +0.000 A 
ATOM     29  C   UNL     1       7.202   4.035  12.435  0.00  0.00    +0.000 A 
ATOM     30  C   UNL     1       6.270   3.541  11.517  0.00  0.00    +0.000 A 
ENDBRANCH  23  28
ENDBRANCH  19  23
ENDBRANCH  18  20
ENDBRANCH  17  18
ENDBRANCH   1  17
TORSDOF 6
ENDMDL
MODEL 4
REMARK VINA RESULT:      -8.1      2.879      4.536
REMARK  Name = 
REMARK  8 active torsions:
REMARK  status: ('A' for Active; 'I' for Inactive)
REMARK    1  A    between atoms: C_1  and  C_2
REMARK    2  A    between atoms: C_5  and  C_6
REMARK    3  A    between atoms: C_6  and  N_7
REMARK    4  A    between atoms: C_8  and  C_10
REMARK    5  A    between atoms: C_10  and  C_11
REMARK    6  A    between atoms: C_11  and  S_12
REMARK    7  A    between atoms: S_12  and  C_15
REMARK    8  A    between atoms: C_24  and  C_25
REMARK                            x       y       z     vdW  Elec       q    Type
REMARK                         _______ _______ _______ _____ _____    ______ ____
ROOT
ATOM      1  S   UNL     1       4.868   4.736  18.655  0.00  0.00    +0.000 S 
ATOM      2  O   UNL     1       5.088   4.389  17.262  0.00  0.00    +0.000 OA
ATOM      3  O   UNL     1       4.370   3.750  19.593  0.00  0.00    +0.000 OA
ENDROOT
BRANCH   1   4
ATOM      4  C   UNL     1       3.729   6.109  18.674  0.00  0.00    +0.000 A 
ATOM      5  C   UNL     1       3.683   6.977  17.583  0.00  0.00    +0.000 A 
ATOM      6  C   UNL     1       2.854   8.095  17.632  0.00  0.00    +0.000 A 
ATOM      7  C   UNL     1       2.079   8.366  18.770  0.00  0.00    +0.000 A 
ATOM      8  C   UNL     1       2.151   7.506  19.876  0.00  0.00    +0.000 A 
ATOM      9  C   UNL     1       2.977   6.374  19.828  0.00  0.00    +0.000 A 
ATOM     10  N   UNL     1       1.495   7.794  21.084  0.00  0.00    +0.000 N 
ATOM     11  C   UNL     1       0.615   8.828  21.302  0.00  0.00    +0.000 C 
ATOM     12  O   UNL     1       0.308   9.114  22.460  0.00  0.00    +0.000 OA
ATOM     13  C   UNL     1      -0.062   9.448  20.085  0.00  0.00    +0.000 C 
ATOM     14  C   UNL     1      -0.862  10.698  20.436  0.00  0.00    +0.000 C 
ATOM     15  S   UNL     1       1.138   9.876  18.789  0.00  0.00    +0.000 S 
ATOM     16  H   UNL     1       1.774   7.302  21.924  0.00  0.00    +0.000 HD
ENDBRANCH   1   4
BRANCH   1  17
ATOM     17  C   UNL     1       6.377   5.407  19.303  0.00  0.00    +0.000 C 
BRANCH  17  18
ATOM     18  C   UNL     1       7.498   5.338  18.273  0.00  0.00    +0.000 C 
BRANCH  18  20
ATOM     19  N   UNL     1       7.857   7.726  18.060  0.00  0.00    +0.000 N 
ATOM     20  C   UNL     1       7.490   6.576  17.402  0.00  0.00    +0.000 C 
ATOM     21  O   UNL     1       7.180   6.541  16.215  0.00  0.00    +0.000 OA
ATOM     22  H   UNL     1       8.094   7.695  19.043  0.00  0.00    +0.000 HD
BRANCH  19  23
ATOM     23  C   UNL     1       7.868   9.022  17.409  0.00  0.00    +0.000 C 
BRANCH  23  28
ATOM     24  C   UNL     1      10.691  13.046  20.553  0.00  0.00    +0.000 C 
ATOM     25  C   UNL     1       9.941  12.013  19.764  0.00  0.00    +0.000 A 
ATOM     26  C   UNL     1       9.869  10.686  20.199  0.00  0.00    +0.000 A 
ATOM     27  C   UNL     1       9.183   9.728  19.447  0.00  0.00    +0.000 A 
ATOM     28  C   UNL     1       8.550  10.077  18.246  0.00  0.00    +0.000 A 
ATOM     29  C   UNL     1       8.625  11.409  17.811  0.00  0.00    +0.000 A 
ATOM     30  C   UNL     1       9.313  12.366  18.564  0.00  0.00    +0.000 A 
ENDBRANCH  23  28
ENDBRANCH  19  23
ENDBRANCH  18  20
ENDBRANCH  17  18
ENDBRANCH   1  17
TORSDOF 6
ENDMDL
MODEL 5
REMARK VINA RESULT:      -8.0      3.966      5.980
REMARK  Name = 
REMARK  8 active torsions:
REMARK  status: ('A' for Active; 'I' for Inactive)
REMARK    1  A    between atoms: C_1  and  C_2
REMARK    2  A    between atoms: C_5  and  C_6
REMARK    3  A    between atoms: C_6  and  N_7
REMARK    4  A    between atoms: C_8  and  C_10
REMARK    5  A    between atoms: C_10  and  C_11
REMARK    6  A    between atoms: C_11  and  S_12
REMARK    7  A    between atoms: S_12  and  C_15
REMARK    8  A    between atoms: C_24  and  C_25
REMARK                            x       y       z     vdW  Elec       q    Type
REMARK                         _______ _______ _______ _____ _____    ______ ____
ROOT
ATOM      1  S   UNL     1       5.375   5.760  16.227  0.00  0.00    +0.000 S 
ATOM      2  O   UNL     1       5.089   6.616  15.090  0.00  0.00    +0.000 OA
ATOM      3  O   UNL     1       5.267   4.319  16.114  0.00  0.00    +0.000 OA
ENDROOT
BRANCH   1   4
ATOM      4  C   UNL     1       4.289   6.271  17.548  0.00  0.00    +0.000 A 
ATOM      5  C   UNL     1       4.093   5.425  18.640  0.00  0.00    +0.000 A 
ATOM      6  C   UNL     1       3.183   5.787  19.630  0.00  0.00    +0.000 A 
ATOM      7  C   UNL     1       2.453   6.981  19.535  0.00  0.00    +0.000 A 
ATOM      8  C   UNL     1       2.633   7.813  18.420  0.00  0.00    +0.000 A 
ATOM      9  C   UNL     1       3.554   7.459  17.425  0.00  0.00    +0.000 A 
ATOM     10  N   UNL     1       1.841   8.955  18.211  0.00  0.00    +0.000 N 
ATOM     11  C   UNL     1       0.924   9.478  19.092  0.00  0.00    +0.000 C 
ATOM     12  O   UNL     1       0.127  10.325  18.688  0.00  0.00    +0.000 OA
ATOM     13  C   UNL     1       1.063   9.100  20.563  0.00  0.00    +0.000 C 
ATOM     14  C   UNL     1      -0.114   9.585  21.403  0.00  0.00    +0.000 C 
ATOM     15  S   UNL     1       1.231   7.305  20.787  0.00  0.00    +0.000 S 
ATOM     16  H   UNL     1       1.819   9.375  17.290  0.00  0.00    +0.000 HD
ENDBRANCH   1   4
BRANCH   1  17
ATOM     17  C   UNL     1       7.001   6.150  16.819  0.00  0.00    +0.000 C 
BRANCH  17  18
ATOM     18  C   UNL     1       7.194   7.657  16.947  0.00  0.00    +0.000 C 
BRANCH  18  20
ATOM     19  N   UNL     1       8.380   9.311  18.264  0.00  0.00    +0.000 N 
ATOM     20  C   UNL     1       8.063   7.978  18.144  0.00  0.00    +0.000 C 
ATOM     21  O   UNL     1       8.445   7.115  18.928  0.00  0.00    +0.000 OA
ATOM     22  H   UNL     1       8.043   9.976  17.581  0.00  0.00    +0.000 HD
BRANCH  19  23
ATOM     23  C   UNL     1       9.239   9.811  19.320  0.00  0.00    +0.000 C 
BRANCH  23  28
ATOM     24  C   UNL     1      11.972  14.725  17.763  0.00  0.00    +0.000 C 
ATOM     25  C   UNL     1      11.254  13.477  18.187  0.00  0.00    +0.000 A 
ATOM     26  C   UNL     1      11.671  12.751  19.307  0.00  0.00    +0.000 A 
ATOM     27  C   UNL     1      11.006  11.580  19.681  0.00  0.00    +0.000 A 
ATOM     28  C   UNL     1       9.908  11.111  18.946  0.00  0.00    +0.000 A 
ATOM     29  C   UNL     1       9.494  11.840  17.822  0.00  0.00    +0.000 A 
ATOM     30  C   UNL     1      10.161  13.011  17.448  0.00  0.00    +0.000 A 
ENDBRANCH  23  28
ENDBRANCH  19  23
ENDBRANCH  18  20
ENDBRANCH  17  18
ENDBRANCH   1  17
TORSDOF 6
ENDMDL
MODEL 6
REMARK VINA RESULT:      -8.0      1.406      1.837
REMARK  Name = 
REMARK  8 active torsions:
REMARK  status: ('A' for Active; 'I' for Inactive)
REMARK    1  A    between atoms: C_1  and  C_2
REMARK    2  A    between atoms: C_5  and  C_6
REMARK    3  A    between atoms: C_6  and  N_7
REMARK    4  A    between atoms: C_8  and  C_10
REMARK    5  A    between atoms: C_10  and  C_11
REMARK    6  A    between atoms: C_11  and  S_12
REMARK    7  A    between atoms: S_12  and  C_15
REMARK    8  A    between atoms: C_24  and  C_25
REMARK                            x       y       z     vdW  Elec       q    Type
REMARK                         _______ _______ _______ _____ _____    ______ ____
ROOT
ATOM      1  S   UNL     1       3.167   6.162  18.389  0.00  0.00    +0.000 S 
ATOM      2  O   UNL     1       4.213   5.909  19.364  0.00  0.00    +0.000 OA
ATOM      3  O   UNL     1       3.498   6.448  17.007  0.00  0.00    +0.000 OA
ENDROOT
BRANCH   1   4
ATOM      4  C   UNL     1       2.208   7.536  19.000  0.00  0.00    +0.000 A 
ATOM      5  C   UNL     1       1.962   8.626  18.164  0.00  0.00    +0.000 A 
ATOM      6  C   UNL     1       1.284   9.734  18.667  0.00  0.00    +0.000 A 
ATOM      7  C   UNL     1       0.861   9.773  20.004  0.00  0.00    +0.000 A 
ATOM      8  C   UNL     1       1.137   8.687  20.847  0.00  0.00    +0.000 A 
ATOM      9  C   UNL     1       1.810   7.565  20.345  0.00  0.00    +0.000 A 
ATOM     10  N   UNL     1       0.847   8.722  22.222  0.00  0.00    +0.000 N 
ATOM     11  C   UNL     1       0.157   9.713  22.879  0.00  0.00    +0.000 C 
ATOM     12  O   UNL     1       0.190   9.745  24.110  0.00  0.00    +0.000 OA
ATOM     13  C   UNL     1      -0.752  10.612  22.048  0.00  0.00    +0.000 C 
ATOM     14  C   UNL     1      -1.311  11.781  22.853  0.00  0.00    +0.000 C 
ATOM     15  S   UNL     1       0.105  11.274  20.589  0.00  0.00    +0.000 S 
ATOM     16  H   UNL     1       1.287   8.046  22.834  0.00  0.00    +0.000 HD
ENDBRANCH   1   4
BRANCH   1  17
ATOM     17  C   UNL     1       2.040   4.792  18.417  0.00  0.00    +0.000 C 
BRANCH  17  18
ATOM     18  C   UNL     1       2.555   3.638  17.566  0.00  0.00    +0.000 C 
BRANCH  18  20
ATOM     19  N   UNL     1       4.801   3.988  16.724  0.00  0.00    +0.000 N 
ATOM     20  C   UNL     1       4.049   3.471  17.751  0.00  0.00    +0.000 C 
ATOM     21  O   UNL     1       4.529   2.920  18.736  0.00  0.00    +0.000 OA
ATOM     22  H   UNL     1       4.348   4.424  15.932  0.00  0.00    +0.000 HD
BRANCH  19  23
ATOM     23  C   UNL     1       6.248   3.887  16.696  0.00  0.00    +0.000 C 
BRANCH  23  28
ATOM     24  C   UNL     1       8.650   8.799  18.734  0.00  0.00    +0.000 C 
ATOM     25  C   UNL     1       8.058   7.531  18.192  0.00  0.00    +0.000 A 
ATOM     26  C   UNL     1       7.464   7.497  16.926  0.00  0.00    +0.000 A 
ATOM     27  C   UNL     1       6.899   6.315  16.439  0.00  0.00    +0.000 A 
ATOM     28  C   UNL     1       6.919   5.140  17.204  0.00  0.00    +0.000 A 
ATOM     29  C   UNL     1       7.514   5.178  18.474  0.00  0.00    +0.000 A 
ATOM     30  C   UNL     1       8.078   6.361  18.961  0.00  0.00    +0.000 A 
ENDBRANCH  23  28
ENDBRANCH  19  23
ENDBRANCH  18  20
ENDBRANCH  17  18
ENDBRANCH   1  17
TORSDOF 6
ENDMDL
MODEL 7
REMARK VINA RESULT:      -7.9      2.422      3.458
REMARK  Name = 
REMARK  8 active torsions:
REMARK  status: ('A' for Active; 'I' for Inactive)
REMARK    1  A    between atoms: C_1  and  C_2
REMARK    2  A    between atoms: C_5  and  C_6
REMARK    3  A    between atoms: C_6  and  N_7
REMARK    4  A    between atoms: C_8  and  C_10
REMARK    5  A    between atoms: C_10  and  C_11
REMARK    6  A    between atoms: C_11  and  S_12
REMARK    7  A    between atoms: S_12  and  C_15
REMARK    8  A    between atoms: C_24  and  C_25
REMARK                            x       y       z     vdW  Elec       q    Type
REMARK                         _______ _______ _______ _____ _____    ______ ____
ROOT
ATOM      1  S   UNL     1       3.064   5.681  19.174  0.00  0.00    +0.000 S 
ATOM      2  O   UNL     1       2.489   4.958  18.054  0.00  0.00    +0.000 OA
ATOM      3  O   UNL     1       3.107   5.085  20.495  0.00  0.00    +0.000 OA
ENDROOT
BRANCH   1   4
ATOM      4  C   UNL     1       2.170   7.218  19.314  0.00  0.00    +0.000 A 
ATOM      5  C   UNL     1       2.169   8.111  18.242  0.00  0.00    +0.000 A 
ATOM      6  C   UNL     1       1.540   9.346  18.380  0.00  0.00    +0.000 A 
ATOM      7  C   UNL     1       0.923   9.707  19.588  0.00  0.00    +0.000 A 
ATOM      8  C   UNL     1       0.952   8.818  20.672  0.00  0.00    +0.000 A 
ATOM      9  C   UNL     1       1.575   7.570  20.535  0.00  0.00    +0.000 A 
ATOM     10  N   UNL     1       0.461   9.175  21.938  0.00  0.00    +0.000 N 
ATOM     11  C   UNL     1      -0.216  10.331  22.248  0.00  0.00    +0.000 C 
ATOM     12  O   UNL     1      -0.369  10.632  23.433  0.00  0.00    +0.000 OA
ATOM     13  C   UNL     1      -0.888  11.085  21.105  0.00  0.00    +0.000 C 
ATOM     14  C   UNL     1      -1.440  12.437  21.543  0.00  0.00    +0.000 C 
ATOM     15  S   UNL     1       0.246  11.348  19.711  0.00  0.00    +0.000 S 
ATOM     16  H   UNL     1       0.729   8.623  22.743  0.00  0.00    +0.000 HD
ENDBRANCH   1   4
BRANCH   1  17
ATOM     17  C   UNL     1       4.711   6.169  18.732  0.00  0.00    +0.000 C 
BRANCH  17  18
ATOM     18  C   UNL     1       5.728   5.110  19.142  0.00  0.00    +0.000 C 
BRANCH  18  20
ATOM     19  N   UNL     1       6.506   5.607  16.901  0.00  0.00    +0.000 N 
ATOM     20  C   UNL     1       6.800   4.969  18.083  0.00  0.00    +0.000 C 
ATOM     21  O   UNL     1       7.834   4.338  18.276  0.00  0.00    +0.000 OA
ATOM     22  H   UNL     1       5.632   6.106  16.797  0.00  0.00    +0.000 HD
BRANCH  19  23
ATOM     23  C   UNL     1       7.388   5.552  15.750  0.00  0.00    +0.000 C 
BRANCH  23  28
ATOM     24  C   UNL     1       5.013   2.686  11.257  0.00  0.00    +0.000 C 
ATOM     25  C   UNL     1       5.617   3.450  12.399  0.00  0.00    +0.000 A 
ATOM     26  C   UNL     1       6.898   4.001  12.299  0.00  0.00    +0.000 A 
ATOM     27  C   UNL     1       7.458   4.695  13.375  0.00  0.00    +0.000 A 
ATOM     28  C   UNL     1       6.748   4.857  14.573  0.00  0.00    +0.000 A 
ATOM     29  C   UNL     1       5.464   4.302  14.670  0.00  0.00    +0.000 A 
ATOM     30  C   UNL     1       4.905   3.607  13.593  0.00  0.00    +0.000 A 
ENDBRANCH  23  28
ENDBRANCH  19  23
ENDBRANCH  18  20
ENDBRANCH  17  18
ENDBRANCH   1  17
TORSDOF 6
ENDMDL
MODEL 8
REMARK VINA RESULT:      -7.8      2.300      3.315
REMARK  Name = 
REMARK  8 active torsions:
REMARK  status: ('A' for Active; 'I' for Inactive)
REMARK    1  A    between atoms: C_1  and  C_2
REMARK    2  A    between atoms: C_5  and  C_6
REMARK    3  A    between atoms: C_6  and  N_7
REMARK    4  A    between atoms: C_8  and  C_10
REMARK    5  A    between atoms: C_10  and  C_11
REMARK    6  A    between atoms: C_11  and  S_12
REMARK    7  A    between atoms: S_12  and  C_15
REMARK    8  A    between atoms: C_24  and  C_25
REMARK                            x       y       z     vdW  Elec       q    Type
REMARK                         _______ _______ _______ _____ _____    ______ ____
ROOT
ATOM      1  S   UNL     1       2.715   3.304  19.675  0.00  0.00    +0.000 S 
ATOM      2  O   UNL     1       2.048   2.522  18.649  0.00  0.00    +0.000 OA
ATOM      3  O   UNL     1       2.476   3.039  21.080  0.00  0.00    +0.000 OA
ENDROOT
BRANCH   1   4
ATOM      4  C   UNL     1       2.299   5.013  19.379  0.00  0.00    +0.000 A 
ATOM      5  C   UNL     1       2.452   5.544  18.098  0.00  0.00    +0.000 A 
ATOM      6  C   UNL     1       2.206   6.898  17.885  0.00  0.00    +0.000 A 
ATOM      7  C   UNL     1       1.821   7.734  18.944  0.00  0.00    +0.000 A 
ATOM      8  C   UNL     1       1.696   7.201  20.235  0.00  0.00    +0.000 A 
ATOM      9  C   UNL     1       1.934   5.837  20.453  0.00  0.00    +0.000 A 
ATOM     10  N   UNL     1       1.435   8.013  21.352  0.00  0.00    +0.000 N 
ATOM     11  C   UNL     1       1.135   9.355  21.325  0.00  0.00    +0.000 C 
ATOM     12  O   UNL     1       1.175   9.994  22.377  0.00  0.00    +0.000 OA
ATOM     13  C   UNL     1       0.601   9.934  20.019  0.00  0.00    +0.000 C 
ATOM     14  C   UNL     1       0.486  11.454  20.060  0.00  0.00    +0.000 C 
ATOM     15  S   UNL     1       1.639   9.471  18.602  0.00  0.00    +0.000 S 
ATOM     16  H   UNL     1       1.608   7.644  22.278  0.00  0.00    +0.000 HD
ENDBRANCH   1   4
BRANCH   1  17
ATOM     17  C   UNL     1       4.464   3.221  19.385  0.00  0.00    +0.000 C 
BRANCH  17  18
ATOM     18  C   UNL     1       5.127   4.570  19.632  0.00  0.00    +0.000 C 
BRANCH  18  20
ATOM     19  N   UNL     1       5.788   5.868  17.694  0.00  0.00    +0.000 N 
ATOM     20  C   UNL     1       6.151   4.860  18.555  0.00  0.00    +0.000 C 
ATOM     21  O   UNL     1       7.207   4.241  18.471  0.00  0.00    +0.000 OA
ATOM     22  H   UNL     1       4.899   6.337  17.808  0.00  0.00    +0.000 HD
BRANCH  19  23
ATOM     23  C   UNL     1       6.615   6.262  16.569  0.00  0.00    +0.000 C 
BRANCH  23  28
ATOM     24  C   UNL     1       5.804   2.901  11.869  0.00  0.00    +0.000 C 
ATOM     25  C   UNL     1       6.020   3.740  13.095  0.00  0.00    +0.000 A 
ATOM     26  C   UNL     1       5.053   3.805  14.103  0.00  0.00    +0.000 A 
ATOM     27  C   UNL     1       5.257   4.604  15.231  0.00  0.00    +0.000 A 
ATOM     28  C   UNL     1       6.434   5.352  15.379  0.00  0.00    +0.000 A 
ATOM     29  C   UNL     1       7.401   5.286  14.365  0.00  0.00    +0.000 A 
ATOM     30  C   UNL     1       7.195   4.487  13.236  0.00  0.00    +0.000 A 
ENDBRANCH  23  28
ENDBRANCH  19  23
ENDBRANCH  18  20
ENDBRANCH  17  18
ENDBRANCH   1  17
TORSDOF 6
ENDMDL
MODEL 9
REMARK VINA RESULT:      -7.8      1.117      1.380
REMARK  Name = 
REMARK  8 active torsions:
REMARK  status: ('A' for Active; 'I' for Inactive)
REMARK    1  A    between atoms: C_1  and  C_2
REMARK    2  A    between atoms: C_5  and  C_6
REMARK    3  A    between atoms: C_6  and  N_7
REMARK    4  A    between atoms: C_8  and  C_10
REMARK    5  A    between atoms: C_10  and  C_11
REMARK    6  A    between atoms: C_11  and  S_12
REMARK    7  A    between atoms: S_12  and  C_15
REMARK    8  A    between atoms: C_24  and  C_25
REMARK                            x       y       z     vdW  Elec       q    Type
REMARK                         _______ _______ _______ _____ _____    ______ ____
ROOT
ATOM      1  S   UNL     1       2.448   5.810  19.573  0.00  0.00    +0.000 S 
ATOM      2  O   UNL     1       1.595   5.191  20.571  0.00  0.00    +0.000 OA
ATOM      3  O   UNL     1       3.887   5.845  19.749  0.00  0.00    +0.000 OA
ENDROOT
BRANCH   1   4
ATOM      4  C   UNL     1       1.896   7.497  19.391  0.00  0.00    +0.000 A 
ATOM      5  C   UNL     1       2.186   8.190  18.216  0.00  0.00    +0.000 A 
ATOM      6  C   UNL     1       1.827   9.532  18.107  0.00  0.00    +0.000 A 
ATOM      7  C   UNL     1       1.192  10.195  19.167  0.00  0.00    +0.000 A 
ATOM      8  C   UNL     1       0.929   9.500  20.357  0.00  0.00    +0.000 A 
ATOM      9  C   UNL     1       1.280   8.148  20.469  0.00  0.00    +0.000 A 
ATOM     10  N   UNL     1       0.409  10.144  21.493  0.00  0.00    +0.000 N 
ATOM     11  C   UNL     1      -0.030  11.446  21.557  0.00  0.00    +0.000 C 
ATOM     12  O   UNL     1      -0.224  11.954  22.661  0.00  0.00    +0.000 OA
ATOM     13  C   UNL     1      -0.416  12.126  20.248  0.00  0.00    +0.000 C 
ATOM     14  C   UNL     1      -0.703  13.614  20.426  0.00  0.00    +0.000 C 
ATOM     15  S   UNL     1       0.874  11.935  18.982  0.00  0.00    +0.000 S 
ATOM     16  H   UNL     1       0.477   9.684  22.392  0.00  0.00    +0.000 HD
ENDBRANCH   1   4
BRANCH   1  17
ATOM     17  C   UNL     1       2.099   5.061  18.003  0.00  0.00    +0.000 C 
BRANCH  17  18
ATOM     18  C   UNL     1       2.487   3.587  17.998  0.00  0.00    +0.000 C 
BRANCH  18  20
ATOM     19  N   UNL     1       4.755   4.267  17.478  0.00  0.00    +0.000 N 
ATOM     20  C   UNL     1       3.973   3.432  18.241  0.00  0.00    +0.000 C 
ATOM     21  O   UNL     1       4.425   2.628  19.049  0.00  0.00    +0.000 OA
ATOM     22  H   UNL     1       4.325   4.905  16.821  0.00  0.00    +0.000 HD
BRANCH  19  23
ATOM     23  C   UNL     1       6.204   4.238  17.534  0.00  0.00    +0.000 C 
BRANCH  23  28
ATOM     24  C   UNL     1       8.655   9.479  18.289  0.00  0.00    +0.000 C 
ATOM     25  C   UNL     1       8.007   8.136  18.120  0.00  0.00    +0.000 A 
ATOM     26  C   UNL     1       8.387   7.048  18.912  0.00  0.00    +0.000 A 
ATOM     27  C   UNL     1       7.789   5.797  18.733  0.00  0.00    +0.000 A 
ATOM     28  C   UNL     1       6.796   5.608  17.763  0.00  0.00    +0.000 A 
ATOM     29  C   UNL     1       6.418   6.701  16.969  0.00  0.00    +0.000 A 
ATOM     30  C   UNL     1       7.017   7.951  17.148  0.00  0.00    +0.000 A 
ENDBRANCH  23  28
ENDBRANCH  19  23
ENDBRANCH  18  20
ENDBRANCH  17  18
ENDBRANCH   1  17
TORSDOF 6
ENDMDL
