MODEL 1
REMARK VINA RESULT:      -6.8      0.000      0.000
REMARK  Name = 
REMARK  10 active torsions:
REMARK  status: ('A' for Active; 'I' for Inactive)
REMARK    1  A    between atoms: C_1  and  C_2
REMARK    2  A    between atoms: C_2  and  C_3
REMARK    3  A    between atoms: N_10  and  C_11
REMARK    4  A    between atoms: C_11  and  C_12
REMARK    5  A    between atoms: N_14  and  C_15
REMARK    6  A    between atoms: N_14  and  C_16
REMARK    7  A    between atoms: N_21  and  C_22
REMARK    8  A    between atoms: C_22  and  C_23
REMARK    9  A    between atoms: C_23  and  C_24
REMARK   10  A    between atoms: C_23  and  C_25
REMARK                            x       y       z     vdW  Elec       q    Type
REMARK                         _______ _______ _______ _____ _____    ______ ____
ROOT
ATOM      1  C   UNL     1       6.457   6.697  17.080  0.00  0.00    +0.000 C 
ATOM      2  N   UNL     1       5.282   6.308  17.470  0.00  0.00    +0.000 NA
ATOM      3  C   UNL     1       5.401   4.820  17.685  0.00  0.00    +0.000 C 
ATOM      4  C   UNL     1       4.776   3.770  16.703  0.00  0.00    +0.000 C 
ATOM      5  C   UNL     1       3.474   3.232  17.259  0.00  0.00    +0.000 C 
ATOM      6  C   UNL     1       3.209   4.115  18.434  0.00  0.00    +0.000 C 
ATOM      7  C   UNL     1       2.581   5.448  18.037  0.00  0.00    +0.000 C 
ATOM      8  N   UNL     1       3.033   6.361  19.084  0.00  0.00    +0.000 NA
ATOM      9  C   UNL     1       4.072   5.671  19.883  0.00  0.00    +0.000 C 
ATOM     10  C   UNL     1       4.597   4.513  18.992  0.00  0.00    +0.000 C 
ATOM     11  C   UNL     1       6.902   4.690  17.309  0.00  0.00    +0.000 C 
ATOM     12  O   UNL     1       7.714   3.911  17.765  0.00  0.00    +0.000 OA
ATOM     13  N   UNL     1       7.168   5.768  16.421  0.00  0.00    +0.000 N 
ENDROOT
BRANCH   1  15
ATOM     14  C   UNL     1       8.206   8.261  18.069  0.00  0.00    +0.000 C 
ATOM     15  C   UNL     1       6.971   8.108  17.187  0.00  0.00    +0.000 C 
ENDBRANCH   1  15
BRANCH   8  16
ATOM     16  C   UNL     1       1.895   6.952  19.781  0.00  0.00    +0.000 C 
BRANCH  16  17
ATOM     17  C   UNL     1       1.649   8.414  19.437  0.00  0.00    +0.000 C 
ATOM     18  O   UNL     1       2.119   8.861  18.384  0.00  0.00    +0.000 OA
ATOM     19  N   UNL     1       0.969   9.220  20.339  0.00  0.00    +0.000 N 
ATOM     20  C   UNL     1       0.350   8.772  21.578  0.00  0.00    +0.000 C 
ATOM     21  C   UNL     1       0.785  10.623  20.011  0.00  0.00    +0.000 C 
ENDBRANCH  16  17
ENDBRANCH   8  16
BRANCH  13  22
ATOM     22  C   UNL     1       6.592   5.636  15.046  0.00  0.00    +0.000 C 
BRANCH  22  23
ATOM     23  C   UNL     1       7.191   4.640  14.011  0.00  0.00    +0.000 C 
ATOM     24  C   UNL     1       6.165   3.780  13.299  0.00  0.00    +0.000 C 
ATOM     25  C   UNL     1       7.989   5.428  12.947  0.00  0.00    +0.000 C 
ENDBRANCH  22  23
ENDBRANCH  13  22
TORSDOF 5
ENDMDL
MODEL 2
REMARK VINA RESULT:      -6.4      1.408      1.776
REMARK  Name = 
REMARK  10 active torsions:
REMARK  status: ('A' for Active; 'I' for Inactive)
REMARK    1  A    between atoms: C_1  and  C_2
REMARK    2  A    between atoms: C_2  and  C_3
REMARK    3  A    between atoms: N_10  and  C_11
REMARK    4  A    between atoms: C_11  and  C_12
REMARK    5  A    between atoms: N_14  and  C_15
REMARK    6  A    between atoms: N_14  and  C_16
REMARK    7  A    between atoms: N_21  and  C_22
REMARK    8  A    between atoms: C_22  and  C_23
REMARK    9  A    between atoms: C_23  and  C_24
REMARK   10  A    between atoms: C_23  and  C_25
REMARK                            x       y       z     vdW  Elec       q    Type
REMARK                         _______ _______ _______ _____ _____    ______ ____
ROOT
ATOM      1  C   UNL     1       5.655   6.105  17.386  0.00  0.00    +0.000 C 
ATOM      2  N   UNL     1       4.400   6.286  17.662  0.00  0.00    +0.000 NA
ATOM      3  C   UNL     1       3.918   4.970  18.221  0.00  0.00    +0.000 C 
ATOM      4  C   UNL     1       2.995   3.995  17.411  0.00  0.00    +0.000 C 
ATOM      5  C   UNL     1       1.555   4.131  17.861  0.00  0.00    +0.000 C 
ATOM      6  C   UNL     1       1.584   5.329  18.752  0.00  0.00    +0.000 C 
ATOM      7  C   UNL     1       1.549   6.641  17.974  0.00  0.00    +0.000 C 
ATOM      8  N   UNL     1       2.256   7.573  18.849  0.00  0.00    +0.000 NA
ATOM      9  C   UNL     1       2.895   6.795  19.935  0.00  0.00    +0.000 C 
ATOM     10  C   UNL     1       2.980   5.333  19.419  0.00  0.00    +0.000 C 
ATOM     11  C   UNL     1       5.270   4.212  18.125  0.00  0.00    +0.000 C 
ATOM     12  O   UNL     1       5.687   3.345  18.864  0.00  0.00    +0.000 OA
ATOM     13  N   UNL     1       5.988   4.843  17.071  0.00  0.00    +0.000 N 
ENDROOT
BRANCH   1  15
ATOM     14  C   UNL     1       7.878   7.064  18.174  0.00  0.00    +0.000 C 
ATOM     15  C   UNL     1       6.671   7.210  17.255  0.00  0.00    +0.000 C 
ENDBRANCH   1  15
BRANCH   8  16
ATOM     16  C   UNL     1       1.397   8.698  19.208  0.00  0.00    +0.000 C 
BRANCH  16  17
ATOM     17  C   UNL     1       1.728   9.989  18.473  0.00  0.00    +0.000 C 
ATOM     18  O   UNL     1       2.264   9.916  17.361  0.00  0.00    +0.000 OA
ATOM     19  N   UNL     1       1.485  11.207  19.093  0.00  0.00    +0.000 N 
ATOM     20  C   UNL     1       0.825  11.387  20.379  0.00  0.00    +0.000 C 
ATOM     21  C   UNL     1       1.850  12.425  18.393  0.00  0.00    +0.000 C 
ENDBRANCH  16  17
ENDBRANCH   8  16
BRANCH  13  22
ATOM     22  C   UNL     1       5.490   4.567  15.687  0.00  0.00    +0.000 C 
BRANCH  22  23
ATOM     23  C   UNL     1       6.453   4.083  14.564  0.00  0.00    +0.000 C 
ATOM     24  C   UNL     1       5.762   3.671  13.278  0.00  0.00    +0.000 C 
ATOM     25  C   UNL     1       7.460   5.209  14.236  0.00  0.00    +0.000 C 
ENDBRANCH  22  23
ENDBRANCH  13  22
TORSDOF 5
ENDMDL
MODEL 3
REMARK VINA RESULT:      -6.3      0.872      1.119
REMARK  Name = 
REMARK  10 active torsions:
REMARK  status: ('A' for Active; 'I' for Inactive)
REMARK    1  A    between atoms: C_1  and  C_2
REMARK    2  A    between atoms: C_2  and  C_3
REMARK    3  A    between atoms: N_10  and  C_11
REMARK    4  A    between atoms: C_11  and  C_12
REMARK    5  A    between atoms: N_14  and  C_15
REMARK    6  A    between atoms: N_14  and  C_16
REMARK    7  A    between atoms: N_21  and  C_22
REMARK    8  A    between atoms: C_22  and  C_23
REMARK    9  A    between atoms: C_23  and  C_24
REMARK   10  A    between atoms: C_23  and  C_25
REMARK                            x       y       z     vdW  Elec       q    Type
REMARK                         _______ _______ _______ _____ _____    ______ ____
ROOT
ATOM      1  C   UNL     1       6.225   6.659  17.135  0.00  0.00    +0.000 C 
ATOM      2  N   UNL     1       5.095   6.160  17.531  0.00  0.00    +0.000 NA
ATOM      3  C   UNL     1       5.358   4.692  17.753  0.00  0.00    +0.000 C 
ATOM      4  C   UNL     1       4.834   3.581  16.778  0.00  0.00    +0.000 C 
ATOM      5  C   UNL     1       3.593   2.923  17.341  0.00  0.00    +0.000 C 
ATOM      6  C   UNL     1       3.248   3.781  18.513  0.00  0.00    +0.000 C 
ATOM      7  C   UNL     1       2.492   5.045  18.113  0.00  0.00    +0.000 C 
ATOM      8  N   UNL     1       2.858   6.003  19.155  0.00  0.00    +0.000 NA
ATOM      9  C   UNL     1       3.961   5.420  19.952  0.00  0.00    +0.000 C 
ATOM     10  C   UNL     1       4.592   4.314  19.064  0.00  0.00    +0.000 C 
ATOM     11  C   UNL     1       6.863   4.705  17.372  0.00  0.00    +0.000 C 
ATOM     12  O   UNL     1       7.749   4.011  17.827  0.00  0.00    +0.000 OA
ATOM     13  N   UNL     1       7.021   5.800  16.477  0.00  0.00    +0.000 N 
ENDROOT
BRANCH   1  15
ATOM     14  C   UNL     1       8.007   8.363  17.768  0.00  0.00    +0.000 C 
ATOM     15  C   UNL     1       6.601   8.114  17.233  0.00  0.00    +0.000 C 
ENDBRANCH   1  15
BRANCH   8  16
ATOM     16  C   UNL     1       1.670   6.484  19.853  0.00  0.00    +0.000 C 
BRANCH  16  17
ATOM     17  C   UNL     1       1.691   7.975  20.157  0.00  0.00    +0.000 C 
ATOM     18  O   UNL     1       1.717   8.337  21.340  0.00  0.00    +0.000 OA
ATOM     19  N   UNL     1       1.612   8.885  19.113  0.00  0.00    +0.000 N 
ATOM     20  C   UNL     1       1.617   8.551  17.695  0.00  0.00    +0.000 C 
ATOM     21  C   UNL     1       1.588  10.302  19.429  0.00  0.00    +0.000 C 
ENDBRANCH  16  17
ENDBRANCH   8  16
BRANCH  13  22
ATOM     22  C   UNL     1       6.455   5.606  15.105  0.00  0.00    +0.000 C 
BRANCH  22  23
ATOM     23  C   UNL     1       7.108   4.619  14.094  0.00  0.00    +0.000 C 
ATOM     24  C   UNL     1       6.120   3.779  13.309  0.00  0.00    +0.000 C 
ATOM     25  C   UNL     1       7.975   5.414  13.091  0.00  0.00    +0.000 C 
ENDBRANCH  22  23
ENDBRANCH  13  22
TORSDOF 5
ENDMDL
MODEL 4
REMARK VINA RESULT:      -6.3      1.992      2.587
REMARK  Name = 
REMARK  10 active torsions:
REMARK  status: ('A' for Active; 'I' for Inactive)
REMARK    1  A    between atoms: C_1  and  C_2
REMARK    2  A    between atoms: C_2  and  C_3
REMARK    3  A    between atoms: N_10  and  C_11
REMARK    4  A    between atoms: C_11  and  C_12
REMARK    5  A    between atoms: N_14  and  C_15
REMARK    6  A    between atoms: N_14  and  C_16
REMARK    7  A    between atoms: N_21  and  C_22
REMARK    8  A    between atoms: C_22  and  C_23
REMARK    9  A    between atoms: C_23  and  C_24
REMARK   10  A    between atoms: C_23  and  C_25
REMARK                            x       y       z     vdW  Elec       q    Type
REMARK                         _______ _______ _______ _____ _____    ______ ____
ROOT
ATOM      1  C   UNL     1       5.172   4.834  18.932  0.00  0.00    +0.000 C 
ATOM      2  N   UNL     1       3.913   4.983  19.209  0.00  0.00    +0.000 NA
ATOM      3  C   UNL     1       3.369   3.586  19.371  0.00  0.00    +0.000 C 
ATOM      4  C   UNL     1       2.448   2.907  18.299  0.00  0.00    +0.000 C 
ATOM      5  C   UNL     1       0.997   2.975  18.725  0.00  0.00    +0.000 C 
ATOM      6  C   UNL     1       1.027   3.882  19.911  0.00  0.00    +0.000 C 
ATOM      7  C   UNL     1       1.064   5.357  19.521  0.00  0.00    +0.000 C 
ATOM      8  N   UNL     1       1.765   5.985  20.639  0.00  0.00    +0.000 NA
ATOM      9  C   UNL     1       2.335   4.915  21.489  0.00  0.00    +0.000 C 
ATOM     10  C   UNL     1       2.395   3.647  20.595  0.00  0.00    +0.000 C 
ATOM     11  C   UNL     1       4.699   2.828  19.112  0.00  0.00    +0.000 C 
ATOM     12  O   UNL     1       5.058   1.776  19.598  0.00  0.00    +0.000 OA
ATOM     13  N   UNL     1       5.478   3.692  18.293  0.00  0.00    +0.000 N 
ENDROOT
BRANCH   1  15
ATOM     14  C   UNL     1       7.653   5.402  18.917  0.00  0.00    +0.000 C 
ATOM     15  C   UNL     1       6.226   5.890  19.138  0.00  0.00    +0.000 C 
ENDBRANCH   1  15
BRANCH   8  16
ATOM     16  C   UNL     1       0.928   7.003  21.266  0.00  0.00    +0.000 C 
BRANCH  16  17
ATOM     17  C   UNL     1       1.148   8.408  20.722  0.00  0.00    +0.000 C 
ATOM     18  O   UNL     1       1.774   8.540  19.663  0.00  0.00    +0.000 OA
ATOM     19  N   UNL     1       0.706   9.500  21.456  0.00  0.00    +0.000 N 
ATOM     20  C   UNL     1      -0.070   9.436  22.687  0.00  0.00    +0.000 C 
ATOM     21  C   UNL     1       0.966  10.832  20.940  0.00  0.00    +0.000 C 
ENDBRANCH  16  17
ENDBRANCH   8  16
BRANCH  13  22
ATOM     22  C   UNL     1       5.027   3.824  16.872  0.00  0.00    +0.000 C 
BRANCH  22  23
ATOM     23  C   UNL     1       5.897   4.564  15.815  0.00  0.00    +0.000 C 
ATOM     24  C   UNL     1       6.052   3.825  14.500  0.00  0.00    +0.000 C 
ATOM     25  C   UNL     1       5.277   5.951  15.523  0.00  0.00    +0.000 C 
ENDBRANCH  22  23
ENDBRANCH  13  22
TORSDOF 5
ENDMDL
MODEL 5
REMARK VINA RESULT:      -6.2      2.521      7.089
REMARK  Name = 
REMARK  10 active torsions:
REMARK  status: ('A' for Active; 'I' for Inactive)
REMARK    1  A    between atoms: C_1  and  C_2
REMARK    2  A    between atoms: C_2  and  C_3
REMARK    3  A    between atoms: N_10  and  C_11
REMARK    4  A    between atoms: C_11  and  C_12
REMARK    5  A    between atoms: N_14  and  C_15
REMARK    6  A    between atoms: N_14  and  C_16
REMARK    7  A    between atoms: N_21  and  C_22
REMARK    8  A    between atoms: C_22  and  C_23
REMARK    9  A    between atoms: C_23  and  C_24
REMARK   10  A    between atoms: C_23  and  C_25
REMARK                            x       y       z     vdW  Elec       q    Type
REMARK                         _______ _______ _______ _____ _____    ______ ____
ROOT
ATOM      1  C   UNL     1       3.062   4.201  18.204  0.00  0.00    +0.000 C 
ATOM      2  N   UNL     1       4.011   4.681  17.460  0.00  0.00    +0.000 NA
ATOM      3  C   UNL     1       5.293   4.359  18.187  0.00  0.00    +0.000 C 
ATOM      4  C   UNL     1       6.135   5.446  18.941  0.00  0.00    +0.000 C 
ATOM      5  C   UNL     1       7.317   5.880  18.100  0.00  0.00    +0.000 C 
ATOM      6  C   UNL     1       7.054   5.239  16.778  0.00  0.00    +0.000 C 
ATOM      7  C   UNL     1       6.060   6.028  15.930  0.00  0.00    +0.000 C 
ATOM      8  N   UNL     1       5.429   5.001  15.104  0.00  0.00    +0.000 NA
ATOM      9  C   UNL     1       5.832   3.675  15.626  0.00  0.00    +0.000 C 
ATOM     10  C   UNL     1       6.310   3.917  17.083  0.00  0.00    +0.000 C 
ATOM     11  C   UNL     1       4.652   3.622  19.393  0.00  0.00    +0.000 C 
ATOM     12  O   UNL     1       5.116   2.697  20.027  0.00  0.00    +0.000 OA
ATOM     13  N   UNL     1       3.341   4.159  19.517  0.00  0.00    +0.000 N 
ENDROOT
BRANCH   1  15
ATOM     14  C   UNL     1       0.900   2.931  18.640  0.00  0.00    +0.000 C 
ATOM     15  C   UNL     1       1.681   3.855  17.712  0.00  0.00    +0.000 C 
ENDBRANCH   1  15
BRANCH   8  16
ATOM     16  C   UNL     1       5.629   5.284  13.686  0.00  0.00    +0.000 C 
BRANCH  16  17
ATOM     17  C   UNL     1       6.655   4.384  13.013  0.00  0.00    +0.000 C 
ATOM     18  O   UNL     1       7.856   4.600  13.218  0.00  0.00    +0.000 OA
ATOM     19  N   UNL     1       6.226   3.396  12.138  0.00  0.00    +0.000 N 
ATOM     20  C   UNL     1       4.838   3.048  11.868  0.00  0.00    +0.000 C 
ATOM     21  C   UNL     1       7.224   2.579  11.473  0.00  0.00    +0.000 C 
ENDBRANCH  16  17
ENDBRANCH   8  16
BRANCH  13  22
ATOM     22  C   UNL     1       3.257   5.555  20.051  0.00  0.00    +0.000 C 
BRANCH  22  23
ATOM     23  C   UNL     1       2.028   6.461  19.751  0.00  0.00    +0.000 C 
ATOM     24  C   UNL     1       1.418   7.119  20.973  0.00  0.00    +0.000 C 
ATOM     25  C   UNL     1       2.442   7.571  18.757  0.00  0.00    +0.000 C 
ENDBRANCH  22  23
ENDBRANCH  13  22
TORSDOF 5
ENDMDL
MODEL 6
REMARK VINA RESULT:      -6.1      1.264      1.682
REMARK  Name = 
REMARK  10 active torsions:
REMARK  status: ('A' for Active; 'I' for Inactive)
REMARK    1  A    between atoms: C_1  and  C_2
REMARK    2  A    between atoms: C_2  and  C_3
REMARK    3  A    between atoms: N_10  and  C_11
REMARK    4  A    between atoms: C_11  and  C_12
REMARK    5  A    between atoms: N_14  and  C_15
REMARK    6  A    between atoms: N_14  and  C_16
REMARK    7  A    between atoms: N_21  and  C_22
REMARK    8  A    between atoms: C_22  and  C_23
REMARK    9  A    between atoms: C_23  and  C_24
REMARK   10  A    between atoms: C_23  and  C_25
REMARK                            x       y       z     vdW  Elec       q    Type
REMARK                         _______ _______ _______ _____ _____    ______ ____
ROOT
ATOM      1  C   UNL     1       6.295   6.560  17.592  0.00  0.00    +0.000 C 
ATOM      2  N   UNL     1       5.010   6.414  17.702  0.00  0.00    +0.000 NA
ATOM      3  C   UNL     1       4.816   5.307  18.709  0.00  0.00    +0.000 C 
ATOM      4  C   UNL     1       4.353   3.865  18.302  0.00  0.00    +0.000 C 
ATOM      5  C   UNL     1       2.875   3.685  18.579  0.00  0.00    +0.000 C 
ATOM      6  C   UNL     1       2.417   5.064  18.922  0.00  0.00    +0.000 C 
ATOM      7  C   UNL     1       2.162   5.922  17.686  0.00  0.00    +0.000 C 
ATOM      8  N   UNL     1       2.420   7.281  18.158  0.00  0.00    +0.000 NA
ATOM      9  C   UNL     1       3.045   7.194  19.498  0.00  0.00    +0.000 C 
ATOM     10  C   UNL     1       3.618   5.756  19.610  0.00  0.00    +0.000 C 
ATOM     11  C   UNL     1       6.318   5.043  18.997  0.00  0.00    +0.000 C 
ATOM     12  O   UNL     1       6.819   4.683  20.043  0.00  0.00    +0.000 OA
ATOM     13  N   UNL     1       7.011   5.447  17.823  0.00  0.00    +0.000 N 
ENDROOT
BRANCH   1  15
ATOM     14  C   UNL     1       8.121   8.292  17.971  0.00  0.00    +0.000 C 
ATOM     15  C   UNL     1       6.975   7.806  17.090  0.00  0.00    +0.000 C 
ENDBRANCH   1  15
BRANCH   8  16
ATOM     16  C   UNL     1       1.237   8.119  17.992  0.00  0.00    +0.000 C 
BRANCH  16  17
ATOM     17  C   UNL     1       1.500   9.607  18.178  0.00  0.00    +0.000 C 
ATOM     18  O   UNL     1       2.319  10.159  17.434  0.00  0.00    +0.000 OA
ATOM     19  N   UNL     1       0.871  10.286  19.211  0.00  0.00    +0.000 N 
ATOM     20  C   UNL     1      -0.133   9.727  20.106  0.00  0.00    +0.000 C 
ATOM     21  C   UNL     1       1.171  11.694  19.397  0.00  0.00    +0.000 C 
ENDBRANCH  16  17
ENDBRANCH   8  16
BRANCH  13  22
ATOM     22  C   UNL     1       6.860   4.547  16.636  0.00  0.00    +0.000 C 
BRANCH  22  23
ATOM     23  C   UNL     1       6.417   5.104  15.252  0.00  0.00    +0.000 C 
ATOM     24  C   UNL     1       7.497   5.076  14.188  0.00  0.00    +0.000 C 
ATOM     25  C   UNL     1       5.206   4.291  14.738  0.00  0.00    +0.000 C 
ENDBRANCH  22  23
ENDBRANCH  13  22
TORSDOF 5
ENDMDL
MODEL 7
REMARK VINA RESULT:      -5.9      2.439      7.428
REMARK  Name = 
REMARK  10 active torsions:
REMARK  status: ('A' for Active; 'I' for Inactive)
REMARK    1  A    between atoms: C_1  and  C_2
REMARK    2  A    between atoms: C_2  and  C_3
REMARK    3  A    between atoms: N_10  and  C_11
REMARK    4  A    between atoms: C_11  and  C_12
REMARK    5  A    between atoms: N_14  and  C_15
REMARK    6  A    between atoms: N_14  and  C_16
REMARK    7  A    between atoms: N_21  and  C_22
REMARK    8  A    between atoms: C_22  and  C_23
REMARK    9  A    between atoms: C_23  and  C_24
REMARK   10  A    between atoms: C_23  and  C_25
REMARK                            x       y       z     vdW  Elec       q    Type
REMARK                         _______ _______ _______ _____ _____    ______ ____
ROOT
ATOM      1  C   UNL     1       3.212   4.016  17.849  0.00  0.00    +0.000 C 
ATOM      2  N   UNL     1       4.019   4.487  16.948  0.00  0.00    +0.000 NA
ATOM      3  C   UNL     1       5.368   4.566  17.618  0.00  0.00    +0.000 C 
ATOM      4  C   UNL     1       6.014   5.924  18.062  0.00  0.00    +0.000 C 
ATOM      5  C   UNL     1       7.054   6.371  17.057  0.00  0.00    +0.000 C 
ATOM      6  C   UNL     1       6.865   5.423  15.919  0.00  0.00    +0.000 C 
ATOM      7  C   UNL     1       5.703   5.818  15.013  0.00  0.00    +0.000 C 
ATOM      8  N   UNL     1       5.248   4.541  14.468  0.00  0.00    +0.000 NA
ATOM      9  C   UNL     1       5.921   3.453  15.215  0.00  0.00    +0.000 C 
ATOM     10  C   UNL     1       6.404   4.086  16.548  0.00  0.00    +0.000 C 
ATOM     11  C   UNL     1       4.932   4.004  18.998  0.00  0.00    +0.000 C 
ATOM     12  O   UNL     1       5.592   3.336  19.767  0.00  0.00    +0.000 OA
ATOM     13  N   UNL     1       3.548   4.310  19.116  0.00  0.00    +0.000 N 
ENDROOT
BRANCH   1  15
ATOM     14  C   UNL     1       1.496   2.288  18.589  0.00  0.00    +0.000 C 
ATOM     15  C   UNL     1       1.905   3.330  17.554  0.00  0.00    +0.000 C 
ENDBRANCH   1  15
BRANCH   8  16
ATOM     16  C   UNL     1       5.330   4.542  13.011  0.00  0.00    +0.000 C 
BRANCH  16  17
ATOM     17  C   UNL     1       6.592   3.894  12.460  0.00  0.00    +0.000 C 
ATOM     18  O   UNL     1       7.675   4.465  12.637  0.00  0.00    +0.000 OA
ATOM     19  N   UNL     1       6.491   2.725  11.720  0.00  0.00    +0.000 N 
ATOM     20  C   UNL     1       5.267   1.967  11.495  0.00  0.00    +0.000 C 
ATOM     21  C   UNL     1       7.702   2.148  11.166  0.00  0.00    +0.000 C 
ENDBRANCH  16  17
ENDBRANCH   8  16
BRANCH  13  22
ATOM     22  C   UNL     1       3.218   5.749  19.358  0.00  0.00    +0.000 C 
BRANCH  22  23
ATOM     23  C   UNL     1       2.288   6.179  20.530  0.00  0.00    +0.000 C 
ATOM     24  C   UNL     1       1.693   7.565  20.385  0.00  0.00    +0.000 C 
ATOM     25  C   UNL     1       1.131   5.163  20.662  0.00  0.00    +0.000 C 
ENDBRANCH  22  23
ENDBRANCH  13  22
TORSDOF 5
ENDMDL
MODEL 8
REMARK VINA RESULT:      -5.9      2.338      6.086
REMARK  Name = 
REMARK  10 active torsions:
REMARK  status: ('A' for Active; 'I' for Inactive)
REMARK    1  A    between atoms: C_1  and  C_2
REMARK    2  A    between atoms: C_2  and  C_3
REMARK    3  A    between atoms: N_10  and  C_11
REMARK    4  A    between atoms: C_11  and  C_12
REMARK    5  A    between atoms: N_14  and  C_15
REMARK    6  A    between atoms: N_14  and  C_16
REMARK    7  A    between atoms: N_21  and  C_22
REMARK    8  A    between atoms: C_22  and  C_23
REMARK    9  A    between atoms: C_23  and  C_24
REMARK   10  A    between atoms: C_23  and  C_25
REMARK                            x       y       z     vdW  Elec       q    Type
REMARK                         _______ _______ _______ _____ _____    ______ ____
ROOT
ATOM      1  C   UNL     1       2.572   6.670  19.007  0.00  0.00    +0.000 C 
ATOM      2  N   UNL     1       3.771   6.408  18.588  0.00  0.00    +0.000 NA
ATOM      3  C   UNL     1       3.653   5.120  17.812  0.00  0.00    +0.000 C 
ATOM      4  C   UNL     1       4.180   3.749  18.362  0.00  0.00    +0.000 C 
ATOM      5  C   UNL     1       5.518   3.407  17.741  0.00  0.00    +0.000 C 
ATOM      6  C   UNL     1       5.892   4.657  17.016  0.00  0.00    +0.000 C 
ATOM      7  C   UNL     1       6.500   5.711  17.937  0.00  0.00    +0.000 C 
ATOM      8  N   UNL     1       6.149   6.972  17.287  0.00  0.00    +0.000 NA
ATOM      9  C   UNL     1       5.174   6.683  16.211  0.00  0.00    +0.000 C 
ATOM     10  C   UNL     1       4.562   5.297  16.550  0.00  0.00    +0.000 C 
ATOM     11  C   UNL     1       2.125   4.922  17.997  0.00  0.00    +0.000 C 
ATOM     12  O   UNL     1       1.345   4.410  17.220  0.00  0.00    +0.000 OA
ATOM     13  N   UNL     1       1.796   5.592  19.207  0.00  0.00    +0.000 N 
ENDROOT
BRANCH   1  15
ATOM     14  C   UNL     1       1.713   8.940  18.239  0.00  0.00    +0.000 C 
ATOM     15  C   UNL     1       2.084   8.037  19.410  0.00  0.00    +0.000 C 
ENDBRANCH   1  15
BRANCH   8  16
ATOM     16  C   UNL     1       7.350   7.733  16.956  0.00  0.00    +0.000 C 
BRANCH  16  17
ATOM     17  C   UNL     1       8.166   8.163  18.167  0.00  0.00    +0.000 C 
ATOM     18  O   UNL     1       8.522   7.298  18.976  0.00  0.00    +0.000 OA
ATOM     19  N   UNL     1       8.429   9.510  18.369  0.00  0.00    +0.000 N 
ATOM     20  C   UNL     1       8.084  10.588  17.452  0.00  0.00    +0.000 C 
ATOM     21  C   UNL     1       9.171   9.901  19.554  0.00  0.00    +0.000 C 
ENDBRANCH  16  17
ENDBRANCH   8  16
BRANCH  13  22
ATOM     22  C   UNL     1       2.252   4.924  20.466  0.00  0.00    +0.000 C 
BRANCH  22  23
ATOM     23  C   UNL     1       1.483   3.707  21.058  0.00  0.00    +0.000 C 
ATOM     24  C   UNL     1       0.656   2.934  20.049  0.00  0.00    +0.000 C 
ATOM     25  C   UNL     1       2.492   2.732  21.709  0.00  0.00    +0.000 C 
ENDBRANCH  22  23
ENDBRANCH  13  22
TORSDOF 5
ENDMDL
MODEL 9
REMARK VINA RESULT:      -5.9      1.364      1.792
REMARK  Name = 
REMARK  10 active torsions:
REMARK  status: ('A' for Active; 'I' for Inactive)
REMARK    1  A    between atoms: C_1  and  C_2
REMARK    2  A    between atoms: C_2  and  C_3
REMARK    3  A    between atoms: N_10  and  C_11
REMARK    4  A    between atoms: C_11  and  C_12
REMARK    5  A    between atoms: N_14  and  C_15
REMARK    6  A    between atoms: N_14  and  C_16
REMARK    7  A    between atoms: N_21  and  C_22
REMARK    8  A    between atoms: C_22  and  C_23
REMARK    9  A    between atoms: C_23  and  C_24
REMARK   10  A    between atoms: C_23  and  C_25
REMARK                            x       y       z     vdW  Elec       q    Type
REMARK                         _______ _______ _______ _____ _____    ______ ____
ROOT
ATOM      1  C   UNL     1       5.729   6.132  17.356  0.00  0.00    +0.000 C 
ATOM      2  N   UNL     1       4.477   6.341  17.624  0.00  0.00    +0.000 NA
ATOM      3  C   UNL     1       3.965   5.040  18.193  0.00  0.00    +0.000 C 
ATOM      4  C   UNL     1       3.025   4.077  17.389  0.00  0.00    +0.000 C 
ATOM      5  C   UNL     1       1.587   4.248  17.831  0.00  0.00    +0.000 C 
ATOM      6  C   UNL     1       1.637   5.453  18.711  0.00  0.00    +0.000 C 
ATOM      7  C   UNL     1       1.632   6.758  17.920  0.00  0.00    +0.000 C 
ATOM      8  N   UNL     1       2.355   7.684  18.790  0.00  0.00    +0.000 NA
ATOM      9  C   UNL     1       2.973   6.902  19.886  0.00  0.00    +0.000 C 
ATOM     10  C   UNL     1       3.030   5.435  19.384  0.00  0.00    +0.000 C 
ATOM     11  C   UNL     1       5.301   4.254  18.110  0.00  0.00    +0.000 C 
ATOM     12  O   UNL     1       5.697   3.385  18.859  0.00  0.00    +0.000 OA
ATOM     13  N   UNL     1       6.037   4.859  17.054  0.00  0.00    +0.000 N 
ENDROOT
BRANCH   1  15
ATOM     14  C   UNL     1       7.913   7.113  18.219  0.00  0.00    +0.000 C 
ATOM     15  C   UNL     1       6.768   7.213  17.218  0.00  0.00    +0.000 C 
ENDBRANCH   1  15
BRANCH   8  16
ATOM     16  C   UNL     1       1.519   8.829  19.135  0.00  0.00    +0.000 C 
BRANCH  16  17
ATOM     17  C   UNL     1       0.998   8.809  20.565  0.00  0.00    +0.000 C 
ATOM     18  O   UNL     1       0.785   7.715  21.100  0.00  0.00    +0.000 OA
ATOM     19  N   UNL     1       0.711  10.008  21.202  0.00  0.00    +0.000 N 
ATOM     20  C   UNL     1       0.967  11.337  20.664  0.00  0.00    +0.000 C 
ATOM     21  C   UNL     1       0.173   9.964  22.550  0.00  0.00    +0.000 C 
ENDBRANCH  16  17
ENDBRANCH   8  16
BRANCH  13  22
ATOM     22  C   UNL     1       5.539   4.581  15.670  0.00  0.00    +0.000 C 
BRANCH  22  23
ATOM     23  C   UNL     1       6.499   4.084  14.551  0.00  0.00    +0.000 C 
ATOM     24  C   UNL     1       5.805   3.635  13.280  0.00  0.00    +0.000 C 
ATOM     25  C   UNL     1       7.491   5.215  14.190  0.00  0.00    +0.000 C 
ENDBRANCH  22  23
ENDBRANCH  13  22
TORSDOF 5
ENDMDL
