MODEL 1
REMARK VINA RESULT:      -6.2      0.000      0.000
REMARK  Name = 
REMARK  7 active torsions:
REMARK  status: ('A' for Active; 'I' for Inactive)
REMARK    1  A    between atoms: C_1  and  O_2
REMARK    2  A    between atoms: O_2  and  C_3
REMARK    3  A    between atoms: C_3  and  C_5
REMARK    4  A    between atoms: C_5  and  C_6
REMARK    5  A    between atoms: C_6  and  C_7
REMARK    6  A    between atoms: C_10  and  O_11
REMARK    7  A    between atoms: C_12  and  O_13
REMARK                            x       y       z     vdW  Elec       q    Type
REMARK                         _______ _______ _______ _____ _____    ______ ____
ROOT
ATOM      1  C   UNL     1       3.753   4.430  17.355  0.00  0.00    +0.000 A 
ATOM      2  C   UNL     1       2.412   4.703  17.678  0.00  0.00    +0.000 A 
ATOM      3  C   UNL     1       1.578   3.699  18.180  0.00  0.00    +0.000 A 
ATOM      4  C   UNL     1       2.087   2.419  18.351  0.00  0.00    +0.000 A 
ATOM      5  C   UNL     1       3.410   2.139  18.024  0.00  0.00    +0.000 A 
ATOM      6  C   UNL     1       4.246   3.130  17.530  0.00  0.00    +0.000 A 
ENDROOT
BRANCH   4   7
ATOM      7  O   UNL     1       1.323   1.397  18.841  0.00  0.00    +0.000 OA
ATOM      8  H   UNL     1       1.293   1.481  19.810  0.00  0.00    +0.000 HD
ENDBRANCH   4   7
BRANCH   5   9
ATOM      9  O   UNL     1       3.904   0.876  18.193  0.00  0.00    +0.000 OA
ATOM     10  H   UNL     1       4.349   0.904  19.063  0.00  0.00    +0.000 HD
ENDBRANCH   5   9
BRANCH   1  11
ATOM     11  C   UNL     1       4.656   5.513  16.817  0.00  0.00    +0.000 C 
BRANCH  11  12
ATOM     12  C   UNL     1       5.807   5.845  17.767  0.00  0.00    +0.000 C 
BRANCH  12  13
ATOM     13  C   UNL     1       7.132   5.616  17.087  0.00  0.00    +0.000 C 
ATOM     14  O   UNL     1       7.686   4.530  16.973  0.00  0.00    +0.000 OA
BRANCH  13  16
ATOM     15  C   UNL     1       7.679   7.828  17.596  0.00  0.00    +0.000 C 
ATOM     16  O   UNL     1       7.625   6.793  16.611  0.00  0.00    +0.000 OA
ENDBRANCH  13  16
ENDBRANCH  12  13
ENDBRANCH  11  12
ENDBRANCH   1  11
TORSDOF 6
ENDMDL
MODEL 2
REMARK VINA RESULT:      -6.1      0.973      1.682
REMARK  Name = 
REMARK  7 active torsions:
REMARK  status: ('A' for Active; 'I' for Inactive)
REMARK    1  A    between atoms: C_1  and  O_2
REMARK    2  A    between atoms: O_2  and  C_3
REMARK    3  A    between atoms: C_3  and  C_5
REMARK    4  A    between atoms: C_5  and  C_6
REMARK    5  A    between atoms: C_6  and  C_7
REMARK    6  A    between atoms: C_10  and  O_11
REMARK    7  A    between atoms: C_12  and  O_13
REMARK                            x       y       z     vdW  Elec       q    Type
REMARK                         _______ _______ _______ _____ _____    ______ ____
ROOT
ATOM      1  C   UNL     1       3.796   4.802  17.822  0.00  0.00    +0.000 A 
ATOM      2  C   UNL     1       2.406   4.993  17.907  0.00  0.00    +0.000 A 
ATOM      3  C   UNL     1       1.548   3.911  18.125  0.00  0.00    +0.000 A 
ATOM      4  C   UNL     1       2.083   2.637  18.250  0.00  0.00    +0.000 A 
ATOM      5  C   UNL     1       3.457   2.438  18.156  0.00  0.00    +0.000 A 
ATOM      6  C   UNL     1       4.316   3.507  17.945  0.00  0.00    +0.000 A 
ENDROOT
BRANCH   4   7
ATOM      7  O   UNL     1       1.295   1.540  18.468  0.00  0.00    +0.000 OA
ATOM      8  H   UNL     1       0.377   1.782  18.259  0.00  0.00    +0.000 HD
ENDBRANCH   4   7
BRANCH   5   9
ATOM      9  O   UNL     1       3.977   1.181  18.277  0.00  0.00    +0.000 OA
ATOM     10  H   UNL     1       4.870   1.322  18.648  0.00  0.00    +0.000 HD
ENDBRANCH   5   9
BRANCH   1  11
ATOM     11  C   UNL     1       4.725   5.969  17.591  0.00  0.00    +0.000 C 
BRANCH  11  12
ATOM     12  C   UNL     1       5.338   5.965  16.191  0.00  0.00    +0.000 C 
BRANCH  12  13
ATOM     13  C   UNL     1       6.838   5.842  16.274  0.00  0.00    +0.000 C 
ATOM     14  O   UNL     1       7.600   6.741  16.606  0.00  0.00    +0.000 OA
BRANCH  13  16
ATOM     15  C   UNL     1       6.476   4.031  14.845  0.00  0.00    +0.000 C 
ATOM     16  O   UNL     1       7.226   4.582  15.931  0.00  0.00    +0.000 OA
ENDBRANCH  13  16
ENDBRANCH  12  13
ENDBRANCH  11  12
ENDBRANCH   1  11
TORSDOF 6
ENDMDL
MODEL 3
REMARK VINA RESULT:      -6.0      1.926      5.600
REMARK  Name = 
REMARK  7 active torsions:
REMARK  status: ('A' for Active; 'I' for Inactive)
REMARK    1  A    between atoms: C_1  and  O_2
REMARK    2  A    between atoms: O_2  and  C_3
REMARK    3  A    between atoms: C_3  and  C_5
REMARK    4  A    between atoms: C_5  and  C_6
REMARK    5  A    between atoms: C_6  and  C_7
REMARK    6  A    between atoms: C_10  and  O_11
REMARK    7  A    between atoms: C_12  and  O_13
REMARK                            x       y       z     vdW  Elec       q    Type
REMARK                         _______ _______ _______ _____ _____    ______ ____
ROOT
ATOM      1  C   UNL     1       3.957   4.910  17.992  0.00  0.00    +0.000 A 
ATOM      2  C   UNL     1       4.447   4.412  16.772  0.00  0.00    +0.000 A 
ATOM      3  C   UNL     1       5.819   4.228  16.575  0.00  0.00    +0.000 A 
ATOM      4  C   UNL     1       6.700   4.551  17.599  0.00  0.00    +0.000 A 
ATOM      5  C   UNL     1       6.222   5.054  18.805  0.00  0.00    +0.000 A 
ATOM      6  C   UNL     1       4.862   5.235  19.011  0.00  0.00    +0.000 A 
ENDROOT
BRANCH   4   7
ATOM      7  O   UNL     1       8.052   4.389  17.468  0.00  0.00    +0.000 OA
ATOM      8  H   UNL     1       8.244   3.436  17.483  0.00  0.00    +0.000 HD
ENDBRANCH   4   7
BRANCH   5   9
ATOM      9  O   UNL     1       7.094   5.372  19.807  0.00  0.00    +0.000 OA
ATOM     10  H   UNL     1       7.146   4.561  20.350  0.00  0.00    +0.000 HD
ENDBRANCH   5   9
BRANCH   1  11
ATOM     11  C   UNL     1       2.476   5.106  18.209  0.00  0.00    +0.000 C 
BRANCH  11  12
ATOM     12  C   UNL     1       1.647   3.923  17.706  0.00  0.00    +0.000 C 
BRANCH  12  13
ATOM     13  C   UNL     1       0.985   3.217  18.860  0.00  0.00    +0.000 C 
ATOM     14  O   UNL     1       0.312   2.198  18.769  0.00  0.00    +0.000 OA
BRANCH  13  16
ATOM     15  C   UNL     1       1.460   3.001  21.136  0.00  0.00    +0.000 C 
ATOM     16  O   UNL     1       1.245   3.874  20.025  0.00  0.00    +0.000 OA
ENDBRANCH  13  16
ENDBRANCH  12  13
ENDBRANCH  11  12
ENDBRANCH   1  11
TORSDOF 6
ENDMDL
MODEL 4
REMARK VINA RESULT:      -6.0      1.433      1.910
REMARK  Name = 
REMARK  7 active torsions:
REMARK  status: ('A' for Active; 'I' for Inactive)
REMARK    1  A    between atoms: C_1  and  O_2
REMARK    2  A    between atoms: O_2  and  C_3
REMARK    3  A    between atoms: C_3  and  C_5
REMARK    4  A    between atoms: C_5  and  C_6
REMARK    5  A    between atoms: C_6  and  C_7
REMARK    6  A    between atoms: C_10  and  O_11
REMARK    7  A    between atoms: C_12  and  O_13
REMARK                            x       y       z     vdW  Elec       q    Type
REMARK                         _______ _______ _______ _____ _____    ______ ____
ROOT
ATOM      1  C   UNL     1       3.648   3.988  17.296  0.00  0.00    +0.000 A 
ATOM      2  C   UNL     1       3.263   5.135  18.012  0.00  0.00    +0.000 A 
ATOM      3  C   UNL     1       2.227   5.079  18.948  0.00  0.00    +0.000 A 
ATOM      4  C   UNL     1       1.570   3.875  19.160  0.00  0.00    +0.000 A 
ATOM      5  C   UNL     1       1.937   2.738  18.447  0.00  0.00    +0.000 A 
ATOM      6  C   UNL     1       2.969   2.783  17.520  0.00  0.00    +0.000 A 
ENDROOT
BRANCH   4   7
ATOM      7  O   UNL     1       0.551   3.756  20.065  0.00  0.00    +0.000 OA
ATOM      8  H   UNL     1       0.112   4.621  20.139  0.00  0.00    +0.000 HD
ENDBRANCH   4   7
BRANCH   5   9
ATOM      9  O   UNL     1       1.285   1.556  18.659  0.00  0.00    +0.000 OA
ATOM     10  H   UNL     1       0.464   1.635  18.136  0.00  0.00    +0.000 HD
ENDBRANCH   5   9
BRANCH   1  11
ATOM     11  C   UNL     1       4.770   4.045  16.288  0.00  0.00    +0.000 C 
BRANCH  11  12
ATOM     12  C   UNL     1       5.548   5.359  16.347  0.00  0.00    +0.000 C 
BRANCH  12  13
ATOM     13  C   UNL     1       6.989   5.135  15.971  0.00  0.00    +0.000 C 
ATOM     14  O   UNL     1       7.505   5.489  14.918  0.00  0.00    +0.000 OA
BRANCH  13  16
ATOM     15  C   UNL     1       7.631   5.192  18.215  0.00  0.00    +0.000 C 
ATOM     16  O   UNL     1       7.640   4.483  16.974  0.00  0.00    +0.000 OA
ENDBRANCH  13  16
ENDBRANCH  12  13
ENDBRANCH  11  12
ENDBRANCH   1  11
TORSDOF 6
ENDMDL
MODEL 5
REMARK VINA RESULT:      -6.0      1.971      2.494
REMARK  Name = 
REMARK  7 active torsions:
REMARK  status: ('A' for Active; 'I' for Inactive)
REMARK    1  A    between atoms: C_1  and  O_2
REMARK    2  A    between atoms: O_2  and  C_3
REMARK    3  A    between atoms: C_3  and  C_5
REMARK    4  A    between atoms: C_5  and  C_6
REMARK    5  A    between atoms: C_6  and  C_7
REMARK    6  A    between atoms: C_10  and  O_11
REMARK    7  A    between atoms: C_12  and  O_13
REMARK                            x       y       z     vdW  Elec       q    Type
REMARK                         _______ _______ _______ _____ _____    ______ ____
ROOT
ATOM      1  C   UNL     1       3.604   4.740  17.655  0.00  0.00    +0.000 A 
ATOM      2  C   UNL     1       2.691   3.729  17.307  0.00  0.00    +0.000 A 
ATOM      3  C   UNL     1       1.709   3.311  18.210  0.00  0.00    +0.000 A 
ATOM      4  C   UNL     1       1.648   3.902  19.465  0.00  0.00    +0.000 A 
ATOM      5  C   UNL     1       2.555   4.895  19.820  0.00  0.00    +0.000 A 
ATOM      6  C   UNL     1       3.529   5.320  18.928  0.00  0.00    +0.000 A 
ENDROOT
BRANCH   4   7
ATOM      7  O   UNL     1       0.708   3.538  20.390  0.00  0.00    +0.000 OA
ATOM      8  H   UNL     1       0.968   3.916  21.248  0.00  0.00    +0.000 HD
ENDBRANCH   4   7
BRANCH   5   9
ATOM      9  O   UNL     1       2.490   5.470  21.058  0.00  0.00    +0.000 OA
ATOM     10  H   UNL     1       2.956   4.841  21.643  0.00  0.00    +0.000 HD
ENDBRANCH   5   9
BRANCH   1  11
ATOM     11  C   UNL     1       4.662   5.196  16.680  0.00  0.00    +0.000 C 
BRANCH  11  12
ATOM     12  C   UNL     1       5.718   4.123  16.414  0.00  0.00    +0.000 C 
BRANCH  12  13
ATOM     13  C   UNL     1       7.067   4.757  16.191  0.00  0.00    +0.000 C 
ATOM     14  O   UNL     1       7.348   5.506  15.263  0.00  0.00    +0.000 OA
BRANCH  13  16
ATOM     15  C   UNL     1       7.810   5.159  18.368  0.00  0.00    +0.000 C 
ATOM     16  O   UNL     1       7.931   4.381  17.174  0.00  0.00    +0.000 OA
ENDBRANCH  13  16
ENDBRANCH  12  13
ENDBRANCH  11  12
ENDBRANCH   1  11
TORSDOF 6
ENDMDL
MODEL 6
REMARK VINA RESULT:      -6.0      2.213      2.835
REMARK  Name = 
REMARK  7 active torsions:
REMARK  status: ('A' for Active; 'I' for Inactive)
REMARK    1  A    between atoms: C_1  and  O_2
REMARK    2  A    between atoms: O_2  and  C_3
REMARK    3  A    between atoms: C_3  and  C_5
REMARK    4  A    between atoms: C_5  and  C_6
REMARK    5  A    between atoms: C_6  and  C_7
REMARK    6  A    between atoms: C_10  and  O_11
REMARK    7  A    between atoms: C_12  and  O_13
REMARK                            x       y       z     vdW  Elec       q    Type
REMARK                         _______ _______ _______ _____ _____    ______ ____
ROOT
ATOM      1  C   UNL     1       3.550   4.752  17.781  0.00  0.00    +0.000 A 
ATOM      2  C   UNL     1       2.610   3.794  17.362  0.00  0.00    +0.000 A 
ATOM      3  C   UNL     1       1.577   3.387  18.212  0.00  0.00    +0.000 A 
ATOM      4  C   UNL     1       1.491   3.935  19.485  0.00  0.00    +0.000 A 
ATOM      5  C   UNL     1       2.424   4.876  19.910  0.00  0.00    +0.000 A 
ATOM      6  C   UNL     1       3.450   5.289  19.071  0.00  0.00    +0.000 A 
ENDROOT
BRANCH   4   7
ATOM      7  O   UNL     1       0.501   3.581  20.360  0.00  0.00    +0.000 OA
ATOM      8  H   UNL     1       0.898   3.492  21.243  0.00  0.00    +0.000 HD
ENDBRANCH   4   7
BRANCH   5   9
ATOM      9  O   UNL     1       2.336   5.410  21.164  0.00  0.00    +0.000 OA
ATOM     10  H   UNL     1       1.557   4.972  21.560  0.00  0.00    +0.000 HD
ENDBRANCH   5   9
BRANCH   1  11
ATOM     11  C   UNL     1       4.664   5.195  16.864  0.00  0.00    +0.000 C 
BRANCH  11  12
ATOM     12  C   UNL     1       5.476   4.022  16.315  0.00  0.00    +0.000 C 
BRANCH  12  13
ATOM     13  C   UNL     1       6.866   4.472  15.947  0.00  0.00    +0.000 C 
ATOM     14  O   UNL     1       7.836   4.444  16.694  0.00  0.00    +0.000 OA
BRANCH  13  16
ATOM     15  C   UNL     1       6.333   3.983  13.727  0.00  0.00    +0.000 C 
ATOM     16  O   UNL     1       6.891   4.913  14.658  0.00  0.00    +0.000 OA
ENDBRANCH  13  16
ENDBRANCH  12  13
ENDBRANCH  11  12
ENDBRANCH   1  11
TORSDOF 6
ENDMDL
MODEL 7
REMARK VINA RESULT:      -5.9      1.594      5.261
REMARK  Name = 
REMARK  7 active torsions:
REMARK  status: ('A' for Active; 'I' for Inactive)
REMARK    1  A    between atoms: C_1  and  O_2
REMARK    2  A    between atoms: O_2  and  C_3
REMARK    3  A    between atoms: C_3  and  C_5
REMARK    4  A    between atoms: C_5  and  C_6
REMARK    5  A    between atoms: C_6  and  C_7
REMARK    6  A    between atoms: C_10  and  O_11
REMARK    7  A    between atoms: C_12  and  O_13
REMARK                            x       y       z     vdW  Elec       q    Type
REMARK                         _______ _______ _______ _____ _____    ______ ____
ROOT
ATOM      1  C   UNL     1       4.719   5.308  17.988  0.00  0.00    +0.000 A 
ATOM      2  C   UNL     1       4.494   6.003  16.787  0.00  0.00    +0.000 A 
ATOM      3  C   UNL     1       5.474   6.045  15.791  0.00  0.00    +0.000 A 
ATOM      4  C   UNL     1       6.683   5.396  16.003  0.00  0.00    +0.000 A 
ATOM      5  C   UNL     1       6.917   4.716  17.193  0.00  0.00    +0.000 A 
ATOM      6  C   UNL     1       5.948   4.665  18.185  0.00  0.00    +0.000 A 
ENDROOT
BRANCH   4   7
ATOM      7  O   UNL     1       7.679   5.398  15.065  0.00  0.00    +0.000 OA
ATOM      8  H   UNL     1       8.357   6.036  15.347  0.00  0.00    +0.000 HD
ENDBRANCH   4   7
BRANCH   5   9
ATOM      9  O   UNL     1       8.110   4.082  17.397  0.00  0.00    +0.000 OA
ATOM     10  H   UNL     1       8.584   4.653  18.033  0.00  0.00    +0.000 HD
ENDBRANCH   5   9
BRANCH   1  11
ATOM     11  C   UNL     1       3.661   5.258  19.063  0.00  0.00    +0.000 C 
BRANCH  11  12
ATOM     12  C   UNL     1       3.064   3.861  19.236  0.00  0.00    +0.000 C 
BRANCH  12  13
ATOM     13  C   UNL     1       2.268   3.475  18.017  0.00  0.00    +0.000 C 
ATOM     14  O   UNL     1       1.330   4.114  17.557  0.00  0.00    +0.000 OA
BRANCH  13  16
ATOM     15  C   UNL     1       3.503   1.536  18.426  0.00  0.00    +0.000 C 
ATOM     16  O   UNL     1       2.745   2.311  17.494  0.00  0.00    +0.000 OA
ENDBRANCH  13  16
ENDBRANCH  12  13
ENDBRANCH  11  12
ENDBRANCH   1  11
TORSDOF 6
ENDMDL
MODEL 8
REMARK VINA RESULT:      -5.9      1.648      5.881
REMARK  Name = 
REMARK  7 active torsions:
REMARK  status: ('A' for Active; 'I' for Inactive)
REMARK    1  A    between atoms: C_1  and  O_2
REMARK    2  A    between atoms: O_2  and  C_3
REMARK    3  A    between atoms: C_3  and  C_5
REMARK    4  A    between atoms: C_5  and  C_6
REMARK    5  A    between atoms: C_6  and  C_7
REMARK    6  A    between atoms: C_10  and  O_11
REMARK    7  A    between atoms: C_12  and  O_13
REMARK                            x       y       z     vdW  Elec       q    Type
REMARK                         _______ _______ _______ _____ _____    ______ ____
ROOT
ATOM      1  C   UNL     1       4.143   5.004  17.403  0.00  0.00    +0.000 A 
ATOM      2  C   UNL     1       4.535   3.971  16.532  0.00  0.00    +0.000 A 
ATOM      3  C   UNL     1       5.684   4.098  15.744  0.00  0.00    +0.000 A 
ATOM      4  C   UNL     1       6.435   5.262  15.824  0.00  0.00    +0.000 A 
ATOM      5  C   UNL     1       6.047   6.292  16.676  0.00  0.00    +0.000 A 
ATOM      6  C   UNL     1       4.912   6.173  17.465  0.00  0.00    +0.000 A 
ENDROOT
BRANCH   4   7
ATOM      7  O   UNL     1       7.569   5.443  15.082  0.00  0.00    +0.000 OA
ATOM      8  H   UNL     1       7.565   6.354  14.743  0.00  0.00    +0.000 HD
ENDBRANCH   4   7
BRANCH   5   9
ATOM      9  O   UNL     1       6.790   7.436  16.748  0.00  0.00    +0.000 OA
ATOM     10  H   UNL     1       7.705   7.144  16.569  0.00  0.00    +0.000 HD
ENDBRANCH   5   9
BRANCH   1  11
ATOM     11  C   UNL     1       2.907   4.868  18.257  0.00  0.00    +0.000 C 
BRANCH  11  12
ATOM     12  C   UNL     1       1.862   3.939  17.637  0.00  0.00    +0.000 C 
BRANCH  12  13
ATOM     13  C   UNL     1       1.291   3.017  18.682  0.00  0.00    +0.000 C 
ATOM     14  O   UNL     1       0.288   2.329  18.542  0.00  0.00    +0.000 OA
BRANCH  13  16
ATOM     15  C   UNL     1       1.306   2.866  21.012  0.00  0.00    +0.000 C 
ATOM     16  O   UNL     1       2.055   3.055  19.809  0.00  0.00    +0.000 OA
ENDBRANCH  13  16
ENDBRANCH  12  13
ENDBRANCH  11  12
ENDBRANCH   1  11
TORSDOF 6
ENDMDL
MODEL 9
REMARK VINA RESULT:      -5.9      1.689      5.542
REMARK  Name = 
REMARK  7 active torsions:
REMARK  status: ('A' for Active; 'I' for Inactive)
REMARK    1  A    between atoms: C_1  and  O_2
REMARK    2  A    between atoms: O_2  and  C_3
REMARK    3  A    between atoms: C_3  and  C_5
REMARK    4  A    between atoms: C_5  and  C_6
REMARK    5  A    between atoms: C_6  and  C_7
REMARK    6  A    between atoms: C_10  and  O_11
REMARK    7  A    between atoms: C_12  and  O_13
REMARK                            x       y       z     vdW  Elec       q    Type
REMARK                         _______ _______ _______ _____ _____    ______ ____
ROOT
ATOM      1  C   UNL     1       3.709   5.433  17.580  0.00  0.00    +0.000 A 
ATOM      2  C   UNL     1       4.362   6.672  17.456  0.00  0.00    +0.000 A 
ATOM      3  C   UNL     1       5.582   6.773  16.779  0.00  0.00    +0.000 A 
ATOM      4  C   UNL     1       6.149   5.630  16.233  0.00  0.00    +0.000 A 
ATOM      5  C   UNL     1       5.514   4.399  16.361  0.00  0.00    +0.000 A 
ATOM      6  C   UNL     1       4.301   4.290  17.026  0.00  0.00    +0.000 A 
ENDROOT
BRANCH   4   7
ATOM      7  O   UNL     1       7.337   5.665  15.556  0.00  0.00    +0.000 OA
ATOM      8  H   UNL     1       8.053   5.501  16.195  0.00  0.00    +0.000 HD
ENDBRANCH   4   7
BRANCH   5   9
ATOM      9  O   UNL     1       6.079   3.277  15.823  0.00  0.00    +0.000 OA
ATOM     10  H   UNL     1       6.469   3.582  14.980  0.00  0.00    +0.000 HD
ENDBRANCH   5   9
BRANCH   1  11
ATOM     11  C   UNL     1       2.391   5.323  18.306  0.00  0.00    +0.000 C 
BRANCH  11  12
ATOM     12  C   UNL     1       1.498   4.218  17.741  0.00  0.00    +0.000 C 
BRANCH  12  13
ATOM     13  C   UNL     1       1.109   3.250  18.828  0.00  0.00    +0.000 C 
ATOM     14  O   UNL     1       0.906   2.053  18.665  0.00  0.00    +0.000 OA
BRANCH  13  16
ATOM     15  C   UNL     1       1.354   3.074  21.143  0.00  0.00    +0.000 C 
ATOM     16  O   UNL     1       1.018   3.897  20.023  0.00  0.00    +0.000 OA
ENDBRANCH  13  16
ENDBRANCH  12  13
ENDBRANCH  11  12
ENDBRANCH   1  11
TORSDOF 6
ENDMDL
