MODEL 1
REMARK VINA RESULT:      -8.8      0.000      0.000
REMARK  Name = 
REMARK  3 active torsions:
REMARK  status: ('A' for Active; 'I' for Inactive)
REMARK    1  A    between atoms: C_4  and  C_5
REMARK    2  A    between atoms: C_10  and  O_11
REMARK    3  A    between atoms: O_11  and  C_12
REMARK                            x       y       z     vdW  Elec       q    Type
REMARK                         _______ _______ _______ _____ _____    ______ ____
ROOT
ATOM      1  C   UNL     1       2.256   5.243  20.049  0.00  0.00    +0.000 A 
ATOM      2  C   UNL     1       1.273   4.349  20.504  0.00  0.00    +0.000 A 
ATOM      3  C   UNL     1       1.555   2.991  20.606  0.00  0.00    +0.000 A 
ATOM      4  C   UNL     1       2.808   2.556  20.221  0.00  0.00    +0.000 A 
ATOM      5  N   UNL     1       3.777   3.384  19.783  0.00  0.00    +0.000 NA
ATOM      6  C   UNL     1       3.510   4.719  19.748  0.00  0.00    +0.000 A 
ENDROOT
BRANCH   1  10
ATOM      7  O   UNL     1       2.118   9.005  17.457  0.00  0.00    +0.000 OA
ATOM      8  C   UNL     1       1.940   8.540  18.575  0.00  0.00    +0.000 A 
ATOM      9  O   UNL     1       2.279   7.248  18.834  0.00  0.00    +0.000 OA
ATOM     10  C   UNL     1       1.899   6.677  19.990  0.00  0.00    +0.000 A 
ATOM     11  N   UNL     1       1.233   7.251  20.935  0.00  0.00    +0.000 NA
ATOM     12  C   UNL     1       0.981   8.614  20.809  0.00  0.00    +0.000 A 
ATOM     13  C   UNL     1       0.378   9.268  21.889  0.00  0.00    +0.000 A 
ATOM     14  C   UNL     1       0.193  10.648  21.868  0.00  0.00    +0.000 A 
ATOM     15  C   UNL     1       0.605  11.374  20.755  0.00  0.00    +0.000 A 
ATOM     16  C   UNL     1       1.180  10.723  19.654  0.00  0.00    +0.000 A 
ATOM     17 CL   UNL     1       1.671  11.741  18.347  0.00  0.00    +0.000 Cl
ATOM     18  C   UNL     1       1.361   9.332  19.679  0.00  0.00    +0.000 A 
ENDBRANCH   1  10
BRANCH   6  19
ATOM     19  O   UNL     1       4.557   5.577  19.443  0.00  0.00    +0.000 OA
BRANCH  19  20
ATOM     20  C   UNL     1       5.307   5.305  18.314  0.00  0.00    +0.000 A 
ATOM     21  C   UNL     1       4.678   5.460  17.078  0.00  0.00    +0.000 A 
ATOM     22  C   UNL     1       5.382   5.214  15.897  0.00  0.00    +0.000 A 
ATOM     23  C   UNL     1       6.719   4.818  15.945  0.00  0.00    +0.000 A 
ATOM     24  C   UNL     1       7.359   4.691  17.176  0.00  0.00    +0.000 A 
ATOM     25  C   UNL     1       6.664   4.953  18.357  0.00  0.00    +0.000 A 
ENDBRANCH  19  20
ENDBRANCH   6  19
TORSDOF 3
ENDMDL
MODEL 2
REMARK VINA RESULT:      -8.6      1.400      2.257
REMARK  Name = 
REMARK  3 active torsions:
REMARK  status: ('A' for Active; 'I' for Inactive)
REMARK    1  A    between atoms: C_4  and  C_5
REMARK    2  A    between atoms: C_10  and  O_11
REMARK    3  A    between atoms: O_11  and  C_12
REMARK                            x       y       z     vdW  Elec       q    Type
REMARK                         _______ _______ _______ _____ _____    ______ ____
ROOT
ATOM      1  C   UNL     1       2.226   5.144  20.074  0.00  0.00    +0.000 A 
ATOM      2  C   UNL     1       1.207   4.283  20.510  0.00  0.00    +0.000 A 
ATOM      3  C   UNL     1       1.441   2.915  20.611  0.00  0.00    +0.000 A 
ATOM      4  C   UNL     1       2.683   2.439  20.243  0.00  0.00    +0.000 A 
ATOM      5  N   UNL     1       3.687   3.235  19.824  0.00  0.00    +0.000 NA
ATOM      6  C   UNL     1       3.467   4.579  19.790  0.00  0.00    +0.000 A 
ENDROOT
BRANCH   1  10
ATOM      7  O   UNL     1       0.749   8.795  22.393  0.00  0.00    +0.000 OA
ATOM      8  C   UNL     1       1.093   8.361  21.302  0.00  0.00    +0.000 A 
ATOM      9  O   UNL     1       1.349   7.034  21.150  0.00  0.00    +0.000 OA
ATOM     10  C   UNL     1       1.920   6.590  20.016  0.00  0.00    +0.000 A 
ATOM     11  N   UNL     1       2.251   7.315  19.001  0.00  0.00    +0.000 NA
ATOM     12  C   UNL     1       1.883   8.656  19.021  0.00  0.00    +0.000 A 
ATOM     13  C   UNL     1       2.120   9.415  17.868  0.00  0.00    +0.000 A 
ATOM     14  C   UNL     1       1.683  10.734  17.786  0.00  0.00    +0.000 A 
ATOM     15  C   UNL     1       1.014  11.299  18.867  0.00  0.00    +0.000 A 
ATOM     16  C   UNL     1       0.802  10.558  20.039  0.00  0.00    +0.000 A 
ATOM     17 CL   UNL     1      -0.062  11.368  21.298  0.00  0.00    +0.000 Cl
ATOM     18  C   UNL     1       1.247   9.230  20.118  0.00  0.00    +0.000 A 
ENDBRANCH   1  10
BRANCH   6  19
ATOM     19  O   UNL     1       4.547   5.401  19.505  0.00  0.00    +0.000 OA
BRANCH  19  20
ATOM     20  C   UNL     1       5.201   5.214  18.302  0.00  0.00    +0.000 A 
ATOM     21  C   UNL     1       6.552   4.869  18.359  0.00  0.00    +0.000 A 
ATOM     22  C   UNL     1       7.272   4.654  17.181  0.00  0.00    +0.000 A 
ATOM     23  C   UNL     1       6.643   4.776  15.941  0.00  0.00    +0.000 A 
ATOM     24  C   UNL     1       5.287   5.092  15.881  0.00  0.00    +0.000 A 
ATOM     25  C   UNL     1       4.562   5.290  17.057  0.00  0.00    +0.000 A 
ENDBRANCH  19  20
ENDBRANCH   6  19
TORSDOF 3
ENDMDL
MODEL 3
REMARK VINA RESULT:      -8.3      1.724      3.914
REMARK  Name = 
REMARK  3 active torsions:
REMARK  status: ('A' for Active; 'I' for Inactive)
REMARK    1  A    between atoms: C_4  and  C_5
REMARK    2  A    between atoms: C_10  and  O_11
REMARK    3  A    between atoms: O_11  and  C_12
REMARK                            x       y       z     vdW  Elec       q    Type
REMARK                         _______ _______ _______ _____ _____    ______ ____
ROOT
ATOM      1  C   UNL     1       3.065   7.043  18.055  0.00  0.00    +0.000 A 
ATOM      2  C   UNL     1       4.215   7.609  17.482  0.00  0.00    +0.000 A 
ATOM      3  C   UNL     1       5.108   6.812  16.772  0.00  0.00    +0.000 A 
ATOM      4  C   UNL     1       4.842   5.461  16.680  0.00  0.00    +0.000 A 
ATOM      5  N   UNL     1       3.747   4.883  17.213  0.00  0.00    +0.000 NA
ATOM      6  C   UNL     1       2.848   5.683  17.850  0.00  0.00    +0.000 A 
ENDROOT
BRANCH   1  10
ATOM      7  O   UNL     1      -0.219  10.196  17.648  0.00  0.00    +0.000 OA
ATOM      8  C   UNL     1       0.515   9.594  18.420  0.00  0.00    +0.000 A 
ATOM      9  O   UNL     1       1.477   8.764  17.933  0.00  0.00    +0.000 OA
ATOM     10  C   UNL     1       2.143   7.950  18.772  0.00  0.00    +0.000 A 
ATOM     11  N   UNL     1       1.976   7.879  20.050  0.00  0.00    +0.000 NA
ATOM     12  C   UNL     1       1.119   8.803  20.640  0.00  0.00    +0.000 A 
ATOM     13  C   UNL     1       1.037   8.817  22.037  0.00  0.00    +0.000 A 
ATOM     14  C   UNL     1       0.278   9.783  22.692  0.00  0.00    +0.000 A 
ATOM     15  C   UNL     1      -0.411  10.732  21.944  0.00  0.00    +0.000 A 
ATOM     16  C   UNL     1      -0.362  10.706  20.542  0.00  0.00    +0.000 A 
ATOM     17 CL   UNL     1      -1.241  11.953  19.732  0.00  0.00    +0.000 Cl
ATOM     18  C   UNL     1       0.402   9.729  19.887  0.00  0.00    +0.000 A 
ENDBRANCH   1  10
BRANCH   6  19
ATOM     19  O   UNL     1       1.655   5.109  18.263  0.00  0.00    +0.000 OA
BRANCH  19  20
ATOM     20  C   UNL     1       1.689   4.258  19.351  0.00  0.00    +0.000 A 
ATOM     21  C   UNL     1       1.286   2.938  19.142  0.00  0.00    +0.000 A 
ATOM     22  C   UNL     1       1.308   2.022  20.196  0.00  0.00    +0.000 A 
ATOM     23  C   UNL     1       1.737   2.419  21.463  0.00  0.00    +0.000 A 
ATOM     24  C   UNL     1       2.167   3.728  21.669  0.00  0.00    +0.000 A 
ATOM     25  C   UNL     1       2.164   4.640  20.614  0.00  0.00    +0.000 A 
ENDBRANCH  19  20
ENDBRANCH   6  19
TORSDOF 3
ENDMDL
MODEL 4
REMARK VINA RESULT:      -8.3      1.032      1.217
REMARK  Name = 
REMARK  3 active torsions:
REMARK  status: ('A' for Active; 'I' for Inactive)
REMARK    1  A    between atoms: C_4  and  C_5
REMARK    2  A    between atoms: C_10  and  O_11
REMARK    3  A    between atoms: O_11  and  C_12
REMARK                            x       y       z     vdW  Elec       q    Type
REMARK                         _______ _______ _______ _____ _____    ______ ____
ROOT
ATOM      1  C   UNL     1       2.566   5.185  19.969  0.00  0.00    +0.000 A 
ATOM      2  C   UNL     1       2.157   4.380  21.043  0.00  0.00    +0.000 A 
ATOM      3  C   UNL     1       2.586   3.059  21.133  0.00  0.00    +0.000 A 
ATOM      4  C   UNL     1       3.392   2.568  20.125  0.00  0.00    +0.000 A 
ATOM      5  N   UNL     1       3.809   3.312  19.081  0.00  0.00    +0.000 NA
ATOM      6  C   UNL     1       3.434   4.621  19.037  0.00  0.00    +0.000 A 
ENDROOT
BRANCH   1  10
ATOM      7  O   UNL     1       2.103   8.985  17.472  0.00  0.00    +0.000 OA
ATOM      8  C   UNL     1       1.975   8.481  18.579  0.00  0.00    +0.000 A 
ATOM      9  O   UNL     1       2.418   7.214  18.803  0.00  0.00    +0.000 OA
ATOM     10  C   UNL     1       2.097   6.587  19.949  0.00  0.00    +0.000 A 
ATOM     11  N   UNL     1       1.397   7.084  20.913  0.00  0.00    +0.000 NA
ATOM     12  C   UNL     1       1.036   8.424  20.823  0.00  0.00    +0.000 A 
ATOM     13  C   UNL     1       0.394   9.003  21.924  0.00  0.00    +0.000 A 
ATOM     14  C   UNL     1       0.100  10.363  21.938  0.00  0.00    +0.000 A 
ATOM     15  C   UNL     1       0.442  11.146  20.841  0.00  0.00    +0.000 A 
ATOM     16  C   UNL     1       1.055  10.570  19.718  0.00  0.00    +0.000 A 
ATOM     17 CL   UNL     1       1.449  11.655  18.433  0.00  0.00    +0.000 Cl
ATOM     18  C   UNL     1       1.346   9.198  19.708  0.00  0.00    +0.000 A 
ENDBRANCH   1  10
BRANCH   6  19
ATOM     19  O   UNL     1       3.988   5.416  18.045  0.00  0.00    +0.000 OA
BRANCH  19  20
ATOM     20  C   UNL     1       5.306   5.804  18.188  0.00  0.00    +0.000 A 
ATOM     21  C   UNL     1       5.785   6.773  17.304  0.00  0.00    +0.000 A 
ATOM     22  C   UNL     1       7.105   7.220  17.401  0.00  0.00    +0.000 A 
ATOM     23  C   UNL     1       7.951   6.706  18.384  0.00  0.00    +0.000 A 
ATOM     24  C   UNL     1       7.469   5.760  19.287  0.00  0.00    +0.000 A 
ATOM     25  C   UNL     1       6.146   5.325  19.204  0.00  0.00    +0.000 A 
ENDBRANCH  19  20
ENDBRANCH   6  19
TORSDOF 3
ENDMDL
MODEL 5
REMARK VINA RESULT:      -8.3      1.543      3.830
REMARK  Name = 
REMARK  3 active torsions:
REMARK  status: ('A' for Active; 'I' for Inactive)
REMARK    1  A    between atoms: C_4  and  C_5
REMARK    2  A    between atoms: C_10  and  O_11
REMARK    3  A    between atoms: O_11  and  C_12
REMARK                            x       y       z     vdW  Elec       q    Type
REMARK                         _______ _______ _______ _____ _____    ______ ____
ROOT
ATOM      1  C   UNL     1       4.236   6.043  17.666  0.00  0.00    +0.000 A 
ATOM      2  C   UNL     1       5.478   6.545  17.245  0.00  0.00    +0.000 A 
ATOM      3  C   UNL     1       6.397   5.708  16.621  0.00  0.00    +0.000 A 
ATOM      4  C   UNL     1       6.060   4.379  16.460  0.00  0.00    +0.000 A 
ATOM      5  N   UNL     1       4.876   3.862  16.846  0.00  0.00    +0.000 NA
ATOM      6  C   UNL     1       3.960   4.705  17.399  0.00  0.00    +0.000 A 
ENDROOT
BRANCH   1  10
ATOM      7  O   UNL     1       1.860   9.915  17.164  0.00  0.00    +0.000 OA
ATOM      8  C   UNL     1       2.180   9.017  17.931  0.00  0.00    +0.000 A 
ATOM      9  O   UNL     1       3.095   8.088  17.543  0.00  0.00    +0.000 OA
ATOM     10  C   UNL     1       3.294   6.992  18.298  0.00  0.00    +0.000 A 
ATOM     11  N   UNL     1       2.700   6.722  19.411  0.00  0.00    +0.000 NA
ATOM     12  C   UNL     1       1.864   7.695  19.948  0.00  0.00    +0.000 A 
ATOM     13  C   UNL     1       1.323   7.462  21.218  0.00  0.00    +0.000 A 
ATOM     14  C   UNL     1       0.563   8.439  21.855  0.00  0.00    +0.000 A 
ATOM     15  C   UNL     1       0.335   9.652  21.212  0.00  0.00    +0.000 A 
ATOM     16  C   UNL     1       0.845   9.882  19.925  0.00  0.00    +0.000 A 
ATOM     17 CL   UNL     1       0.511  11.436  19.249  0.00  0.00    +0.000 Cl
ATOM     18  C   UNL     1       1.607   8.893  19.287  0.00  0.00    +0.000 A 
ENDBRANCH   1  10
BRANCH   6  19
ATOM     19  O   UNL     1       2.694   4.200  17.654  0.00  0.00    +0.000 OA
BRANCH  19  20
ATOM     20  C   UNL     1       2.443   3.692  18.915  0.00  0.00    +0.000 A 
ATOM     21  C   UNL     1       1.112   3.657  19.334  0.00  0.00    +0.000 A 
ATOM     22  C   UNL     1       0.785   3.145  20.592  0.00  0.00    +0.000 A 
ATOM     23  C   UNL     1       1.786   2.660  21.435  0.00  0.00    +0.000 A 
ATOM     24  C   UNL     1       3.113   2.667  21.008  0.00  0.00    +0.000 A 
ATOM     25  C   UNL     1       3.439   3.161  19.745  0.00  0.00    +0.000 A 
ENDBRANCH  19  20
ENDBRANCH   6  19
TORSDOF 3
ENDMDL
MODEL 6
REMARK VINA RESULT:      -8.2      2.076      4.267
REMARK  Name = 
REMARK  3 active torsions:
REMARK  status: ('A' for Active; 'I' for Inactive)
REMARK    1  A    between atoms: C_4  and  C_5
REMARK    2  A    between atoms: C_10  and  O_11
REMARK    3  A    between atoms: O_11  and  C_12
REMARK                            x       y       z     vdW  Elec       q    Type
REMARK                         _______ _______ _______ _____ _____    ______ ____
ROOT
ATOM      1  C   UNL     1       3.092   6.983  17.970  0.00  0.00    +0.000 A 
ATOM      2  C   UNL     1       4.248   7.500  17.363  0.00  0.00    +0.000 A 
ATOM      3  C   UNL     1       5.116   6.656  16.678  0.00  0.00    +0.000 A 
ATOM      4  C   UNL     1       4.820   5.308  16.642  0.00  0.00    +0.000 A 
ATOM      5  N   UNL     1       3.718   4.777  17.208  0.00  0.00    +0.000 NA
ATOM      6  C   UNL     1       2.843   5.621  17.822  0.00  0.00    +0.000 A 
ENDROOT
BRANCH   1  10
ATOM      7  O   UNL     1       1.596   8.532  22.001  0.00  0.00    +0.000 OA
ATOM      8  C   UNL     1       1.474   8.595  20.785  0.00  0.00    +0.000 A 
ATOM      9  O   UNL     1       2.170   7.739  19.989  0.00  0.00    +0.000 OA
ATOM     10  C   UNL     1       2.198   7.938  18.659  0.00  0.00    +0.000 A 
ATOM     11  N   UNL     1       1.593   8.884  18.022  0.00  0.00    +0.000 NA
ATOM     12  C   UNL     1       0.739   9.707  18.750  0.00  0.00    +0.000 A 
ATOM     13  C   UNL     1      -0.020  10.647  18.044  0.00  0.00    +0.000 A 
ATOM     14  C   UNL     1      -0.967  11.429  18.699  0.00  0.00    +0.000 A 
ATOM     15  C   UNL     1      -1.147  11.276  20.070  0.00  0.00    +0.000 A 
ATOM     16  C   UNL     1      -0.367  10.361  20.793  0.00  0.00    +0.000 A 
ATOM     17 CL   UNL     1      -0.705  10.250  22.483  0.00  0.00    +0.000 Cl
ATOM     18  C   UNL     1       0.588   9.577  20.128  0.00  0.00    +0.000 A 
ENDBRANCH   1  10
BRANCH   6  19
ATOM     19  O   UNL     1       1.643   5.090  18.268  0.00  0.00    +0.000 OA
BRANCH  19  20
ATOM     20  C   UNL     1       1.676   4.242  19.359  0.00  0.00    +0.000 A 
ATOM     21  C   UNL     1       1.305   2.913  19.145  0.00  0.00    +0.000 A 
ATOM     22  C   UNL     1       1.328   1.999  20.201  0.00  0.00    +0.000 A 
ATOM     23  C   UNL     1       1.728   2.406  21.474  0.00  0.00    +0.000 A 
ATOM     24  C   UNL     1       2.127   3.725  21.685  0.00  0.00    +0.000 A 
ATOM     25  C   UNL     1       2.123   4.635  20.628  0.00  0.00    +0.000 A 
ENDBRANCH  19  20
ENDBRANCH   6  19
TORSDOF 3
ENDMDL
MODEL 7
REMARK VINA RESULT:      -8.1      1.379      1.741
REMARK  Name = 
REMARK  3 active torsions:
REMARK  status: ('A' for Active; 'I' for Inactive)
REMARK    1  A    between atoms: C_4  and  C_5
REMARK    2  A    between atoms: C_10  and  O_11
REMARK    3  A    between atoms: O_11  and  C_12
REMARK                            x       y       z     vdW  Elec       q    Type
REMARK                         _______ _______ _______ _____ _____    ______ ____
ROOT
ATOM      1  C   UNL     1       2.538   4.910  18.806  0.00  0.00    +0.000 A 
ATOM      2  C   UNL     1       1.553   4.071  18.260  0.00  0.00    +0.000 A 
ATOM      3  C   UNL     1       1.855   2.750  17.943  0.00  0.00    +0.000 A 
ATOM      4  C   UNL     1       3.147   2.310  18.153  0.00  0.00    +0.000 A 
ATOM      5  N   UNL     1       4.117   3.085  18.679  0.00  0.00    +0.000 NA
ATOM      6  C   UNL     1       3.793   4.356  19.044  0.00  0.00    +0.000 A 
ENDROOT
BRANCH   1  10
ATOM      7  O   UNL     1       1.877   9.150  17.234  0.00  0.00    +0.000 OA
ATOM      8  C   UNL     1       1.901   8.431  18.223  0.00  0.00    +0.000 A 
ATOM      9  O   UNL     1       2.309   7.138  18.112  0.00  0.00    +0.000 OA
ATOM     10  C   UNL     1       2.143   6.294  19.146  0.00  0.00    +0.000 A 
ATOM     11  N   UNL     1       1.632   6.593  20.292  0.00  0.00    +0.000 NA
ATOM     12  C   UNL     1       1.331   7.930  20.534  0.00  0.00    +0.000 A 
ATOM     13  C   UNL     1       0.903   8.280  21.820  0.00  0.00    +0.000 A 
ATOM     14  C   UNL     1       0.685   9.613  22.156  0.00  0.00    +0.000 A 
ATOM     15  C   UNL     1       0.887  10.599  21.196  0.00  0.00    +0.000 A 
ATOM     16  C   UNL     1       1.283  10.256  19.895  0.00  0.00    +0.000 A 
ATOM     17 CL   UNL     1       1.522  11.576  18.805  0.00  0.00    +0.000 Cl
ATOM     18  C   UNL     1       1.498   8.911  19.561  0.00  0.00    +0.000 A 
ENDBRANCH   1  10
BRANCH   6  19
ATOM     19  O   UNL     1       4.752   5.095  19.721  0.00  0.00    +0.000 OA
BRANCH  19  20
ATOM     20  C   UNL     1       5.710   5.751  18.972  0.00  0.00    +0.000 A 
ATOM     21  C   UNL     1       7.025   5.706  19.439  0.00  0.00    +0.000 A 
ATOM     22  C   UNL     1       8.046   6.338  18.724  0.00  0.00    +0.000 A 
ATOM     23  C   UNL     1       7.759   7.012  17.537  0.00  0.00    +0.000 A 
ATOM     24  C   UNL     1       6.452   7.034  17.052  0.00  0.00    +0.000 A 
ATOM     25  C   UNL     1       5.434   6.389  17.755  0.00  0.00    +0.000 A 
ENDBRANCH  19  20
ENDBRANCH   6  19
TORSDOF 3
ENDMDL
MODEL 8
REMARK VINA RESULT:      -8.1      1.724      2.357
REMARK  Name = 
REMARK  3 active torsions:
REMARK  status: ('A' for Active; 'I' for Inactive)
REMARK    1  A    between atoms: C_4  and  C_5
REMARK    2  A    between atoms: C_10  and  O_11
REMARK    3  A    between atoms: O_11  and  C_12
REMARK                            x       y       z     vdW  Elec       q    Type
REMARK                         _______ _______ _______ _____ _____    ______ ____
ROOT
ATOM      1  C   UNL     1       2.523   5.152  20.000  0.00  0.00    +0.000 A 
ATOM      2  C   UNL     1       2.105   4.382  21.097  0.00  0.00    +0.000 A 
ATOM      3  C   UNL     1       2.494   3.051  21.208  0.00  0.00    +0.000 A 
ATOM      4  C   UNL     1       3.270   2.515  20.199  0.00  0.00    +0.000 A 
ATOM      5  N   UNL     1       3.694   3.224  19.134  0.00  0.00    +0.000 NA
ATOM      6  C   UNL     1       3.359   4.542  19.069  0.00  0.00    +0.000 A 
ENDROOT
BRANCH   1  10
ATOM      7  O   UNL     1       0.729   8.636  22.352  0.00  0.00    +0.000 OA
ATOM      8  C   UNL     1       1.114   8.247  21.258  0.00  0.00    +0.000 A 
ATOM      9  O   UNL     1       1.482   6.948  21.092  0.00  0.00    +0.000 OA
ATOM     10  C   UNL     1       2.096   6.567  19.957  0.00  0.00    +0.000 A 
ATOM     11  N   UNL     1       2.371   7.331  18.953  0.00  0.00    +0.000 NA
ATOM     12  C   UNL     1       1.891   8.636  18.986  0.00  0.00    +0.000 A 
ATOM     13  C   UNL     1       2.070   9.426  17.845  0.00  0.00    +0.000 A 
ATOM     14  C   UNL     1       1.524  10.705  17.775  0.00  0.00    +0.000 A 
ATOM     15  C   UNL     1       0.803  11.198  18.858  0.00  0.00    +0.000 A 
ATOM     16  C   UNL     1       0.647  10.427  20.019  0.00  0.00    +0.000 A 
ATOM     17 CL   UNL     1      -0.289  11.145  21.281  0.00  0.00    +0.000 Cl
ATOM     18  C   UNL     1       1.202   9.141  20.085  0.00  0.00    +0.000 A 
ENDBRANCH   1  10
BRANCH   6  19
ATOM     19  O   UNL     1       3.923   5.299  18.052  0.00  0.00    +0.000 OA
BRANCH  19  20
ATOM     20  C   UNL     1       5.237   5.700  18.196  0.00  0.00    +0.000 A 
ATOM     21  C   UNL     1       5.720   6.643  17.288  0.00  0.00    +0.000 A 
ATOM     22  C   UNL     1       7.036   7.101  17.384  0.00  0.00    +0.000 A 
ATOM     23  C   UNL     1       7.875   6.623  18.391  0.00  0.00    +0.000 A 
ATOM     24  C   UNL     1       7.388   5.704  19.318  0.00  0.00    +0.000 A 
ATOM     25  C   UNL     1       6.068   5.258  19.236  0.00  0.00    +0.000 A 
ENDBRANCH  19  20
ENDBRANCH   6  19
TORSDOF 3
ENDMDL
MODEL 9
REMARK VINA RESULT:      -8.1      2.028      4.242
REMARK  Name = 
REMARK  3 active torsions:
REMARK  status: ('A' for Active; 'I' for Inactive)
REMARK    1  A    between atoms: C_4  and  C_5
REMARK    2  A    between atoms: C_10  and  O_11
REMARK    3  A    between atoms: O_11  and  C_12
REMARK                            x       y       z     vdW  Elec       q    Type
REMARK                         _______ _______ _______ _____ _____    ______ ____
ROOT
ATOM      1  C   UNL     1       3.558   6.494  17.702  0.00  0.00    +0.000 A 
ATOM      2  C   UNL     1       4.703   7.058  17.118  0.00  0.00    +0.000 A 
ATOM      3  C   UNL     1       5.594   6.259  16.409  0.00  0.00    +0.000 A 
ATOM      4  C   UNL     1       5.332   4.906  16.328  0.00  0.00    +0.000 A 
ATOM      5  N   UNL     1       4.241   4.329  16.871  0.00  0.00    +0.000 NA
ATOM      6  C   UNL     1       3.343   5.131  17.508  0.00  0.00    +0.000 A 
ENDROOT
BRANCH   1  10
ATOM      7  O   UNL     1       1.808   7.687  21.751  0.00  0.00    +0.000 OA
ATOM      8  C   UNL     1       1.776   7.871  20.542  0.00  0.00    +0.000 A 
ATOM      9  O   UNL     1       2.509   7.077  19.716  0.00  0.00    +0.000 OA
ATOM     10  C   UNL     1       2.638   7.403  18.417  0.00  0.00    +0.000 A 
ATOM     11  N   UNL     1       2.102   8.424  17.837  0.00  0.00    +0.000 NA
ATOM     12  C   UNL     1       1.217   9.197  18.581  0.00  0.00    +0.000 A 
ATOM     13  C   UNL     1       0.533  10.224  17.920  0.00  0.00    +0.000 A 
ATOM     14  C   UNL     1      -0.441  10.967  18.581  0.00  0.00    +0.000 A 
ATOM     15  C   UNL     1      -0.724  10.686  19.914  0.00  0.00    +0.000 A 
ATOM     16  C   UNL     1      -0.020   9.682  20.596  0.00  0.00    +0.000 A 
ATOM     17 CL   UNL     1      -0.482   9.418  22.239  0.00  0.00    +0.000 Cl
ATOM     18  C   UNL     1       0.963   8.939  19.925  0.00  0.00    +0.000 A 
ENDBRANCH   1  10
BRANCH   6  19
ATOM     19  O   UNL     1       2.154   4.556  17.931  0.00  0.00    +0.000 OA
BRANCH  19  20
ATOM     20  C   UNL     1       2.154   3.886  19.140  0.00  0.00    +0.000 A 
ATOM     21  C   UNL     1       3.348   3.280  19.532  0.00  0.00    +0.000 A 
ATOM     22  C   UNL     1       3.421   2.596  20.749  0.00  0.00    +0.000 A 
ATOM     23  C   UNL     1       2.304   2.521  21.581  0.00  0.00    +0.000 A 
ATOM     24  C   UNL     1       1.118   3.150  21.206  0.00  0.00    +0.000 A 
ATOM     25  C   UNL     1       1.048   3.849  20.000  0.00  0.00    +0.000 A 
ENDBRANCH  19  20
ENDBRANCH   6  19
TORSDOF 3
ENDMDL
