MODEL 1
REMARK VINA RESULT:      -7.1      0.000      0.000
REMARK  Name = 
REMARK  7 active torsions:
REMARK  status: ('A' for Active; 'I' for Inactive)
REMARK    1  A    between atoms: C_1  and  C_2
REMARK    2  A    between atoms: C_2  and  C_3
REMARK    3  A    between atoms: C_2  and  N_4
REMARK    4  A    between atoms: C_7  and  C_8
REMARK    5  A    between atoms: C_11  and  C_12
REMARK    6  A    between atoms: C_12  and  N_13
REMARK    7  A    between atoms: N_18  and  C_19
REMARK                            x       y       z     vdW  Elec       q    Type
REMARK                         _______ _______ _______ _____ _____    ______ ____
ROOT
ATOM      1  C   UNL     1       3.025   5.570  18.605  0.00  0.00    +0.000 A 
ATOM      2  N   UNL     1       3.441   6.586  17.856  0.00  0.00    +0.000 NA
ATOM      3  N   UNL     1       2.918   7.771  18.341  0.00  0.00    +0.000 NA
ATOM      4  C   UNL     1       2.164   7.498  19.382  0.00  0.00    +0.000 A 
ATOM      5  N   UNL     1       2.281   6.129  19.629  0.00  0.00    +0.000 N 
ENDROOT
BRANCH   1   9
ATOM      6  N   UNL     1       6.081   4.281  16.964  0.00  0.00    +0.000 NA
ATOM      7  C   UNL     1       6.051   4.359  18.413  0.00  0.00    +0.000 C 
ATOM      8  C   UNL     1       4.813   3.820  19.122  0.00  0.00    +0.000 C 
ATOM      9  C   UNL     1       3.513   4.138  18.381  0.00  0.00    +0.000 C 
ATOM     10  C   UNL     1       3.646   3.517  16.993  0.00  0.00    +0.000 C 
ATOM     11  C   UNL     1       4.924   3.851  16.209  0.00  0.00    +0.000 C 
BRANCH   6  13
ATOM     12  C   UNL     1       7.114   5.099  14.767  0.00  0.00    +0.000 C 
ATOM     13  C   UNL     1       7.152   5.048  16.303  0.00  0.00    +0.000 C 
ATOM     14  C   UNL     1       7.236   6.490  16.831  0.00  0.00    +0.000 C 
ENDBRANCH   6  13
ENDBRANCH   1   9
BRANCH   5  15
ATOM     15  C   UNL     1       1.691   5.414  20.731  0.00  0.00    +0.000 C 
ATOM     16  C   UNL     1       0.895   4.142  20.526  0.00  0.00    +0.000 C 
ATOM     17  C   UNL     1       2.147   4.113  21.346  0.00  0.00    +0.000 C 
ENDBRANCH   5  15
BRANCH   4  18
ATOM     18  C   UNL     1       1.355   8.416  20.257  0.00  0.00    +0.000 C 
BRANCH  18  19
ATOM     19  N   UNL     1       1.017   9.777  19.873  0.00  0.00    +0.000 NA
ATOM     20  C   UNL     1       0.766  10.785  20.878  0.00  0.00    +0.000 C 
ATOM     21  C   UNL     1      -0.706  11.114  20.720  0.00  0.00    +0.000 C 
ATOM     22  C   UNL     1      -1.032  10.803  19.266  0.00  0.00    +0.000 C 
ATOM     23  C   UNL     1       0.148  10.005  18.737  0.00  0.00    +0.000 C 
ENDBRANCH  18  19
ENDBRANCH   4  18
TORSDOF 5
ENDMDL
MODEL 2
REMARK VINA RESULT:      -6.9      1.235      1.530
REMARK  Name = 
REMARK  7 active torsions:
REMARK  status: ('A' for Active; 'I' for Inactive)
REMARK    1  A    between atoms: C_1  and  C_2
REMARK    2  A    between atoms: C_2  and  C_3
REMARK    3  A    between atoms: C_2  and  N_4
REMARK    4  A    between atoms: C_7  and  C_8
REMARK    5  A    between atoms: C_11  and  C_12
REMARK    6  A    between atoms: C_12  and  N_13
REMARK    7  A    between atoms: N_18  and  C_19
REMARK                            x       y       z     vdW  Elec       q    Type
REMARK                         _______ _______ _______ _____ _____    ______ ____
ROOT
ATOM      1  C   UNL     1       2.806   5.529  18.882  0.00  0.00    +0.000 A 
ATOM      2  N   UNL     1       3.180   6.738  18.476  0.00  0.00    +0.000 NA
ATOM      3  N   UNL     1       2.537   7.704  19.228  0.00  0.00    +0.000 NA
ATOM      4  C   UNL     1       1.751   7.104  20.093  0.00  0.00    +0.000 A 
ATOM      5  N   UNL     1       1.965   5.730  19.962  0.00  0.00    +0.000 N 
ENDROOT
BRANCH   1   9
ATOM      6  N   UNL     1       6.268   4.766  17.820  0.00  0.00    +0.000 NA
ATOM      7  C   UNL     1       5.829   4.322  19.130  0.00  0.00    +0.000 C 
ATOM      8  C   UNL     1       4.476   3.625  19.221  0.00  0.00    +0.000 C 
ATOM      9  C   UNL     1       3.418   4.250  18.309  0.00  0.00    +0.000 C 
ATOM     10  C   UNL     1       3.971   4.161  16.888  0.00  0.00    +0.000 C 
ATOM     11  C   UNL     1       5.395   4.692  16.669  0.00  0.00    +0.000 C 
BRANCH   6  13
ATOM     12  C   UNL     1       7.215   7.069  17.216  0.00  0.00    +0.000 C 
ATOM     13  C   UNL     1       7.435   5.666  17.806  0.00  0.00    +0.000 C 
ATOM     14  C   UNL     1       8.056   5.825  19.204  0.00  0.00    +0.000 C 
ENDBRANCH   6  13
ENDBRANCH   1   9
BRANCH   5  15
ATOM     15  C   UNL     1       1.374   4.700  20.776  0.00  0.00    +0.000 C 
ATOM     16  C   UNL     1       0.882   3.395  20.185  0.00  0.00    +0.000 C 
ATOM     17  C   UNL     1       1.984   3.385  21.199  0.00  0.00    +0.000 C 
ENDBRANCH   5  15
BRANCH   4  18
ATOM     18  C   UNL     1       0.825   7.688  21.125  0.00  0.00    +0.000 C 
BRANCH  18  19
ATOM     19  N   UNL     1       0.928   9.061  21.591  0.00  0.00    +0.000 NA
ATOM     20  C   UNL     1       0.655   9.393  22.970  0.00  0.00    +0.000 C 
ATOM     21  C   UNL     1      -0.601  10.239  22.912  0.00  0.00    +0.000 C 
ATOM     22  C   UNL     1      -0.585  10.885  21.532  0.00  0.00    +0.000 C 
ATOM     23  C   UNL     1       0.476  10.142  20.738  0.00  0.00    +0.000 C 
ENDBRANCH  18  19
ENDBRANCH   4  18
TORSDOF 5
ENDMDL
MODEL 3
REMARK VINA RESULT:      -6.9      1.183      1.309
REMARK  Name = 
REMARK  7 active torsions:
REMARK  status: ('A' for Active; 'I' for Inactive)
REMARK    1  A    between atoms: C_1  and  C_2
REMARK    2  A    between atoms: C_2  and  C_3
REMARK    3  A    between atoms: C_2  and  N_4
REMARK    4  A    between atoms: C_7  and  C_8
REMARK    5  A    between atoms: C_11  and  C_12
REMARK    6  A    between atoms: C_12  and  N_13
REMARK    7  A    between atoms: N_18  and  C_19
REMARK                            x       y       z     vdW  Elec       q    Type
REMARK                         _______ _______ _______ _____ _____    ______ ____
ROOT
ATOM      1  C   UNL     1       3.186   5.139  19.167  0.00  0.00    +0.000 A 
ATOM      2  N   UNL     1       3.418   6.286  18.536  0.00  0.00    +0.000 NA
ATOM      3  N   UNL     1       2.684   7.300  19.122  0.00  0.00    +0.000 NA
ATOM      4  C   UNL     1       1.981   6.790  20.108  0.00  0.00    +0.000 A 
ATOM      5  N   UNL     1       2.343   5.446  20.220  0.00  0.00    +0.000 N 
ENDROOT
BRANCH   1   9
ATOM      6  N   UNL     1       5.784   4.456  16.622  0.00  0.00    +0.000 NA
ATOM      7  C   UNL     1       6.197   4.668  17.997  0.00  0.00    +0.000 C 
ATOM      8  C   UNL     1       5.431   3.923  19.085  0.00  0.00    +0.000 C 
ATOM      9  C   UNL     1       3.927   3.849  18.815  0.00  0.00    +0.000 C 
ATOM     10  C   UNL     1       3.767   3.143  17.470  0.00  0.00    +0.000 C 
ATOM     11  C   UNL     1       4.598   3.692  16.301  0.00  0.00    +0.000 C 
BRANCH   6  13
ATOM     12  C   UNL     1       6.839   4.771  14.309  0.00  0.00    +0.000 C 
ATOM     13  C   UNL     1       6.354   5.387  15.631  0.00  0.00    +0.000 C 
ATOM     14  C   UNL     1       5.389   6.538  15.300  0.00  0.00    +0.000 C 
ENDBRANCH   6  13
ENDBRANCH   1   9
BRANCH   5  15
ATOM     15  C   UNL     1       1.881   4.527  21.227  0.00  0.00    +0.000 C 
ATOM     16  C   UNL     1       1.056   3.305  20.879  0.00  0.00    +0.000 C 
ATOM     17  C   UNL     1       2.396   3.138  21.526  0.00  0.00    +0.000 C 
ENDBRANCH   5  15
BRANCH   4  18
ATOM     18  C   UNL     1       1.011   7.452  21.048  0.00  0.00    +0.000 C 
BRANCH  18  19
ATOM     19  N   UNL     1       1.082   8.863  21.390  0.00  0.00    +0.000 NA
ATOM     20  C   UNL     1       0.892   9.300  22.754  0.00  0.00    +0.000 C 
ATOM     21  C   UNL     1      -0.403  10.087  22.719  0.00  0.00    +0.000 C 
ATOM     22  C   UNL     1      -0.514  10.613  21.294  0.00  0.00    +0.000 C 
ATOM     23  C   UNL     1       0.522   9.848  20.488  0.00  0.00    +0.000 C 
ENDBRANCH  18  19
ENDBRANCH   4  18
TORSDOF 5
ENDMDL
MODEL 4
REMARK VINA RESULT:      -6.7      2.727      5.061
REMARK  Name = 
REMARK  7 active torsions:
REMARK  status: ('A' for Active; 'I' for Inactive)
REMARK    1  A    between atoms: C_1  and  C_2
REMARK    2  A    between atoms: C_2  and  C_3
REMARK    3  A    between atoms: C_2  and  N_4
REMARK    4  A    between atoms: C_7  and  C_8
REMARK    5  A    between atoms: C_11  and  C_12
REMARK    6  A    between atoms: C_12  and  N_13
REMARK    7  A    between atoms: N_18  and  C_19
REMARK                            x       y       z     vdW  Elec       q    Type
REMARK                         _______ _______ _______ _____ _____    ______ ____
ROOT
ATOM      1  C   UNL     1       5.239   5.536  18.661  0.00  0.00    +0.000 A 
ATOM      2  N   UNL     1       6.170   4.608  18.860  0.00  0.00    +0.000 NA
ATOM      3  N   UNL     1       5.643   3.568  19.603  0.00  0.00    +0.000 NA
ATOM      4  C   UNL     1       4.390   3.848  19.882  0.00  0.00    +0.000 A 
ATOM      5  N   UNL     1       4.078   5.041  19.227  0.00  0.00    +0.000 N 
ENDROOT
BRANCH   1   9
ATOM      6  N   UNL     1       6.614   5.842  15.239  0.00  0.00    +0.000 NA
ATOM      7  C   UNL     1       5.174   5.891  15.416  0.00  0.00    +0.000 C 
ATOM      8  C   UNL     1       4.631   6.792  16.521  0.00  0.00    +0.000 C 
ATOM      9  C   UNL     1       5.487   6.767  17.789  0.00  0.00    +0.000 C 
ATOM     10  C   UNL     1       6.886   7.217  17.371  0.00  0.00    +0.000 C 
ATOM     11  C   UNL     1       7.510   6.497  16.167  0.00  0.00    +0.000 C 
BRANCH   6  13
ATOM     12  C   UNL     1       6.067   3.793  13.801  0.00  0.00    +0.000 C 
ATOM     13  C   UNL     1       7.114   4.770  14.360  0.00  0.00    +0.000 C 
ATOM     14  C   UNL     1       7.931   5.326  13.182  0.00  0.00    +0.000 C 
ENDBRANCH   6  13
ENDBRANCH   1   9
BRANCH   5  15
ATOM     15  C   UNL     1       2.784   5.671  19.188  0.00  0.00    +0.000 C 
ATOM     16  C   UNL     1       2.069   6.113  20.448  0.00  0.00    +0.000 C 
ATOM     17  C   UNL     1       2.451   7.127  19.415  0.00  0.00    +0.000 C 
ENDBRANCH   5  15
BRANCH   4  18
ATOM     18  C   UNL     1       3.378   3.067  20.674  0.00  0.00    +0.000 C 
BRANCH  18  19
ATOM     19  N   UNL     1       2.348   2.251  20.052  0.00  0.00    +0.000 NA
ATOM     20  C   UNL     1       2.552   1.681  18.740  0.00  0.00    +0.000 C 
ATOM     21  C   UNL     1       1.543   2.392  17.861  0.00  0.00    +0.000 C 
ATOM     22  C   UNL     1       0.414   2.802  18.797  0.00  0.00    +0.000 C 
ATOM     23  C   UNL     1       0.955   2.617  20.205  0.00  0.00    +0.000 C 
ENDBRANCH  18  19
ENDBRANCH   4  18
TORSDOF 5
ENDMDL
MODEL 5
REMARK VINA RESULT:      -6.7      2.724      4.936
REMARK  Name = 
REMARK  7 active torsions:
REMARK  status: ('A' for Active; 'I' for Inactive)
REMARK    1  A    between atoms: C_1  and  C_2
REMARK    2  A    between atoms: C_2  and  C_3
REMARK    3  A    between atoms: C_2  and  N_4
REMARK    4  A    between atoms: C_7  and  C_8
REMARK    5  A    between atoms: C_11  and  C_12
REMARK    6  A    between atoms: C_12  and  N_13
REMARK    7  A    between atoms: N_18  and  C_19
REMARK                            x       y       z     vdW  Elec       q    Type
REMARK                         _______ _______ _______ _____ _____    ______ ____
ROOT
ATOM      1  C   UNL     1       4.437   4.866  17.214  0.00  0.00    +0.000 A 
ATOM      2  N   UNL     1       4.626   3.569  16.997  0.00  0.00    +0.000 NA
ATOM      3  N   UNL     1       3.494   2.863  17.361  0.00  0.00    +0.000 NA
ATOM      4  C   UNL     1       2.602   3.712  17.818  0.00  0.00    +0.000 A 
ATOM      5  N   UNL     1       3.131   4.994  17.656  0.00  0.00    +0.000 N 
ENDROOT
BRANCH   1   9
ATOM      6  N   UNL     1       6.685   5.072  14.282  0.00  0.00    +0.000 NA
ATOM      7  C   UNL     1       5.457   5.847  14.272  0.00  0.00    +0.000 C 
ATOM      8  C   UNL     1       5.123   6.654  15.523  0.00  0.00    +0.000 C 
ATOM      9  C   UNL     1       5.472   5.920  16.819  0.00  0.00    +0.000 C 
ATOM     10  C   UNL     1       6.969   5.626  16.757  0.00  0.00    +0.000 C 
ATOM     11  C   UNL     1       7.485   4.944  15.481  0.00  0.00    +0.000 C 
BRANCH   6  13
ATOM     12  C   UNL     1       5.564   3.376  12.723  0.00  0.00    +0.000 C 
ATOM     13  C   UNL     1       6.839   4.102  13.183  0.00  0.00    +0.000 C 
ATOM     14  C   UNL     1       7.506   4.731  11.949  0.00  0.00    +0.000 C 
ENDBRANCH   6  13
ENDBRANCH   1   9
BRANCH   5  15
ATOM     15  C   UNL     1       2.455   6.231  17.943  0.00  0.00    +0.000 C 
ATOM     16  C   UNL     1       2.618   6.945  19.270  0.00  0.00    +0.000 C 
ATOM     17  C   UNL     1       3.043   7.621  18.003  0.00  0.00    +0.000 C 
ENDBRANCH   5  15
BRANCH   4  18
ATOM     18  C   UNL     1       1.220   3.465  18.357  0.00  0.00    +0.000 C 
BRANCH  18  19
ATOM     19  N   UNL     1       0.949   3.260  19.771  0.00  0.00    +0.000 NA
ATOM     20  C   UNL     1       0.958   4.374  20.692  0.00  0.00    +0.000 C 
ATOM     21  C   UNL     1       2.148   4.106  21.593  0.00  0.00    +0.000 C 
ATOM     22  C   UNL     1       2.326   2.593  21.582  0.00  0.00    +0.000 C 
ATOM     23  C   UNL     1       1.469   2.083  20.436  0.00  0.00    +0.000 C 
ENDBRANCH  18  19
ENDBRANCH   4  18
TORSDOF 5
ENDMDL
MODEL 6
REMARK VINA RESULT:      -6.5      1.031      1.489
REMARK  Name = 
REMARK  7 active torsions:
REMARK  status: ('A' for Active; 'I' for Inactive)
REMARK    1  A    between atoms: C_1  and  C_2
REMARK    2  A    between atoms: C_2  and  C_3
REMARK    3  A    between atoms: C_2  and  N_4
REMARK    4  A    between atoms: C_7  and  C_8
REMARK    5  A    between atoms: C_11  and  C_12
REMARK    6  A    between atoms: C_12  and  N_13
REMARK    7  A    between atoms: N_18  and  C_19
REMARK                            x       y       z     vdW  Elec       q    Type
REMARK                         _______ _______ _______ _____ _____    ______ ____
ROOT
ATOM      1  C   UNL     1       2.809   5.882  18.743  0.00  0.00    +0.000 A 
ATOM      2  N   UNL     1       3.109   7.052  18.188  0.00  0.00    +0.000 NA
ATOM      3  N   UNL     1       2.515   8.076  18.902  0.00  0.00    +0.000 NA
ATOM      4  C   UNL     1       1.831   7.550  19.894  0.00  0.00    +0.000 A 
ATOM      5  N   UNL     1       2.068   6.174  19.875  0.00  0.00    +0.000 N 
ENDROOT
BRANCH   1   9
ATOM      6  N   UNL     1       6.281   4.969  17.846  0.00  0.00    +0.000 NA
ATOM      7  C   UNL     1       5.778   4.587  19.152  0.00  0.00    +0.000 C 
ATOM      8  C   UNL     1       4.398   3.939  19.214  0.00  0.00    +0.000 C 
ATOM      9  C   UNL     1       3.398   4.564  18.240  0.00  0.00    +0.000 C 
ATOM     10  C   UNL     1       4.001   4.406  16.846  0.00  0.00    +0.000 C 
ATOM     11  C   UNL     1       5.450   4.882  16.664  0.00  0.00    +0.000 C 
BRANCH   6  13
ATOM     12  C   UNL     1       7.293   7.264  17.325  0.00  0.00    +0.000 C 
ATOM     13  C   UNL     1       7.477   5.830  17.847  0.00  0.00    +0.000 C 
ATOM     14  C   UNL     1       8.132   5.903  19.236  0.00  0.00    +0.000 C 
ENDBRANCH   6  13
ENDBRANCH   1   9
BRANCH   5  15
ATOM     15  C   UNL     1       1.586   5.219  20.838  0.00  0.00    +0.000 C 
ATOM     16  C   UNL     1       0.858   3.958  20.421  0.00  0.00    +0.000 C 
ATOM     17  C   UNL     1       2.154   3.858  21.164  0.00  0.00    +0.000 C 
ENDBRANCH   5  15
BRANCH   4  18
ATOM     18  C   UNL     1       0.991   8.216  20.948  0.00  0.00    +0.000 C 
BRANCH  18  19
ATOM     19  N   UNL     1       0.326   9.492  20.739  0.00  0.00    +0.000 NA
ATOM     20  C   UNL     1      -0.522   9.700  19.588  0.00  0.00    +0.000 C 
ATOM     21  C   UNL     1       0.213  10.737  18.762  0.00  0.00    +0.000 C 
ATOM     22  C   UNL     1       1.046  11.528  19.761  0.00  0.00    +0.000 C 
ATOM     23  C   UNL     1       1.024  10.723  21.050  0.00  0.00    +0.000 C 
ENDBRANCH  18  19
ENDBRANCH   4  18
TORSDOF 5
ENDMDL
MODEL 7
REMARK VINA RESULT:      -6.5      5.966      8.788
REMARK  Name = 
REMARK  7 active torsions:
REMARK  status: ('A' for Active; 'I' for Inactive)
REMARK    1  A    between atoms: C_1  and  C_2
REMARK    2  A    between atoms: C_2  and  C_3
REMARK    3  A    between atoms: C_2  and  N_4
REMARK    4  A    between atoms: C_7  and  C_8
REMARK    5  A    between atoms: C_11  and  C_12
REMARK    6  A    between atoms: C_12  and  N_13
REMARK    7  A    between atoms: N_18  and  C_19
REMARK                            x       y       z     vdW  Elec       q    Type
REMARK                         _______ _______ _______ _____ _____    ______ ____
ROOT
ATOM      1  C   UNL     1      -1.942  12.001  18.553  0.00  0.00    +0.000 A 
ATOM      2  N   UNL     1      -2.621  12.324  19.649  0.00  0.00    +0.000 NA
ATOM      3  N   UNL     1      -3.978  12.220  19.408  0.00  0.00    +0.000 NA
ATOM      4  C   UNL     1      -4.152  11.847  18.160  0.00  0.00    +0.000 A 
ATOM      5  N   UNL     1      -2.886  11.614  17.619  0.00  0.00    +0.000 N 
ENDROOT
BRANCH   1   9
ATOM      6  N   UNL     1       0.442  10.513  20.961  0.00  0.00    +0.000 NA
ATOM      7  C   UNL     1       0.091   9.757  19.773  0.00  0.00    +0.000 C 
ATOM      8  C   UNL     1       0.116  10.492  18.437  0.00  0.00    +0.000 C 
ATOM      9  C   UNL     1      -0.415  11.924  18.531  0.00  0.00    +0.000 C 
ATOM     10  C   UNL     1       0.464  12.642  19.553  0.00  0.00    +0.000 C 
ATOM     11  C   UNL     1       0.657  11.943  20.907  0.00  0.00    +0.000 C 
BRANCH   6  13
ATOM     12  C   UNL     1      -0.865  10.567  23.164  0.00  0.00    +0.000 C 
ATOM     13  C   UNL     1       0.146   9.859  22.248  0.00  0.00    +0.000 C 
ATOM     14  C   UNL     1      -0.312   8.402  22.060  0.00  0.00    +0.000 C 
ENDBRANCH   6  13
ENDBRANCH   1   9
BRANCH   5  15
ATOM     15  C   UNL     1      -2.610  11.105  16.300  0.00  0.00    +0.000 C 
ATOM     16  C   UNL     1      -2.592   9.620  16.002  0.00  0.00    +0.000 C 
ATOM     17  C   UNL     1      -3.583  10.506  15.312  0.00  0.00    +0.000 C 
ENDBRANCH   5  15
BRANCH   4  18
ATOM     18  C   UNL     1      -5.422  11.609  17.390  0.00  0.00    +0.000 C 
BRANCH  18  19
ATOM     19  N   UNL     1      -6.706  11.384  18.035  0.00  0.00    +0.000 NA
ATOM     20  C   UNL     1      -7.466  12.492  18.567  0.00  0.00    +0.000 C 
ATOM     21  C   UNL     1      -7.458  12.268  20.066  0.00  0.00    +0.000 C 
ATOM     22  C   UNL     1      -7.297  10.764  20.246  0.00  0.00    +0.000 C 
ATOM     23  C   UNL     1      -6.887  10.225  18.885  0.00  0.00    +0.000 C 
ENDBRANCH  18  19
ENDBRANCH   4  18
TORSDOF 5
ENDMDL
MODEL 8
REMARK VINA RESULT:      -6.5      1.071      1.598
REMARK  Name = 
REMARK  7 active torsions:
REMARK  status: ('A' for Active; 'I' for Inactive)
REMARK    1  A    between atoms: C_1  and  C_2
REMARK    2  A    between atoms: C_2  and  C_3
REMARK    3  A    between atoms: C_2  and  N_4
REMARK    4  A    between atoms: C_7  and  C_8
REMARK    5  A    between atoms: C_11  and  C_12
REMARK    6  A    between atoms: C_12  and  N_13
REMARK    7  A    between atoms: N_18  and  C_19
REMARK                            x       y       z     vdW  Elec       q    Type
REMARK                         _______ _______ _______ _____ _____    ______ ____
ROOT
ATOM      1  C   UNL     1       3.478   5.949  18.724  0.00  0.00    +0.000 A 
ATOM      2  N   UNL     1       3.787   6.961  17.919  0.00  0.00    +0.000 NA
ATOM      3  N   UNL     1       2.956   8.036  18.176  0.00  0.00    +0.000 NA
ATOM      4  C   UNL     1       2.118   7.696  19.129  0.00  0.00    +0.000 A 
ATOM      5  N   UNL     1       2.478   6.417  19.559  0.00  0.00    +0.000 N 
ENDROOT
BRANCH   1   9
ATOM      6  N   UNL     1       5.659   4.402  16.167  0.00  0.00    +0.000 NA
ATOM      7  C   UNL     1       6.277   5.153  17.244  0.00  0.00    +0.000 C 
ATOM      8  C   UNL     1       5.794   4.875  18.665  0.00  0.00    +0.000 C 
ATOM      9  C   UNL     1       4.283   4.650  18.750  0.00  0.00    +0.000 C 
ATOM     10  C   UNL     1       3.973   3.466  17.838  0.00  0.00    +0.000 C 
ATOM     11  C   UNL     1       4.526   3.535  16.407  0.00  0.00    +0.000 C 
BRANCH   6  13
ATOM     12  C   UNL     1       7.405   5.264  14.502  0.00  0.00    +0.000 C 
ATOM     13  C   UNL     1       5.947   4.884  14.804  0.00  0.00    +0.000 C 
ATOM     14  C   UNL     1       5.478   3.887  13.731  0.00  0.00    +0.000 C 
ENDBRANCH   6  13
ENDBRANCH   1   9
BRANCH   5  15
ATOM     15  C   UNL     1       1.880   5.691  20.649  0.00  0.00    +0.000 C 
ATOM     16  C   UNL     1       1.012   4.471  20.420  0.00  0.00    +0.000 C 
ATOM     17  C   UNL     1       2.283   4.344  21.202  0.00  0.00    +0.000 C 
ENDBRANCH   5  15
BRANCH   4  18
ATOM     18  C   UNL     1       1.004   8.483  19.763  0.00  0.00    +0.000 C 
BRANCH  18  19
ATOM     19  N   UNL     1       1.226   9.442  20.833  0.00  0.00    +0.000 NA
ATOM     20  C   UNL     1       1.262   9.012  22.212  0.00  0.00    +0.000 C 
ATOM     21  C   UNL     1       0.035   9.649  22.836  0.00  0.00    +0.000 C 
ATOM     22  C   UNL     1      -0.235  10.896  22.004  0.00  0.00    +0.000 C 
ATOM     23  C   UNL     1       0.619  10.755  20.755  0.00  0.00    +0.000 C 
ENDBRANCH  18  19
ENDBRANCH   4  18
TORSDOF 5
ENDMDL
MODEL 9
REMARK VINA RESULT:      -6.5      1.055      1.546
REMARK  Name = 
REMARK  7 active torsions:
REMARK  status: ('A' for Active; 'I' for Inactive)
REMARK    1  A    between atoms: C_1  and  C_2
REMARK    2  A    between atoms: C_2  and  C_3
REMARK    3  A    between atoms: C_2  and  N_4
REMARK    4  A    between atoms: C_7  and  C_8
REMARK    5  A    between atoms: C_11  and  C_12
REMARK    6  A    between atoms: C_12  and  N_13
REMARK    7  A    between atoms: N_18  and  C_19
REMARK                            x       y       z     vdW  Elec       q    Type
REMARK                         _______ _______ _______ _____ _____    ______ ____
ROOT
ATOM      1  C   UNL     1       2.837   5.242  19.067  0.00  0.00    +0.000 A 
ATOM      2  N   UNL     1       3.055   6.415  18.483  0.00  0.00    +0.000 NA
ATOM      3  N   UNL     1       2.492   7.427  19.239  0.00  0.00    +0.000 NA
ATOM      4  C   UNL     1       1.910   6.890  20.287  0.00  0.00    +0.000 A 
ATOM      5  N   UNL     1       2.185   5.521  20.256  0.00  0.00    +0.000 N 
ENDROOT
BRANCH   1   9
ATOM      6  N   UNL     1       5.699   4.630  16.803  0.00  0.00    +0.000 NA
ATOM      7  C   UNL     1       5.896   4.468  18.231  0.00  0.00    +0.000 C 
ATOM      8  C   UNL     1       4.849   3.669  19.001  0.00  0.00    +0.000 C 
ATOM      9  C   UNL     1       3.421   3.938  18.523  0.00  0.00    +0.000 C 
ATOM     10  C   UNL     1       3.389   3.571  17.041  0.00  0.00    +0.000 C 
ATOM     11  C   UNL     1       4.483   4.186  16.156  0.00  0.00    +0.000 C 
BRANCH   6  13
ATOM     12  C   UNL     1       7.444   6.487  17.065  0.00  0.00    +0.000 C 
ATOM     13  C   UNL     1       6.567   5.622  16.145  0.00  0.00    +0.000 C 
ATOM     14  C   UNL     1       7.473   4.979  15.082  0.00  0.00    +0.000 C 
ENDBRANCH   6  13
ENDBRANCH   1   9
BRANCH   5  15
ATOM     15  C   UNL     1       1.814   4.560  21.261  0.00  0.00    +0.000 C 
ATOM     16  C   UNL     1       1.081   3.280  20.914  0.00  0.00    +0.000 C 
ATOM     17  C   UNL     1       2.441   3.214  21.538  0.00  0.00    +0.000 C 
ENDBRANCH   5  15
BRANCH   4  18
ATOM     18  C   UNL     1       1.142   7.539  21.405  0.00  0.00    +0.000 C 
BRANCH  18  19
ATOM     19  N   UNL     1       0.175   8.602  21.186  0.00  0.00    +0.000 NA
ATOM     20  C   UNL     1       0.468   9.688  20.278  0.00  0.00    +0.000 C 
ATOM     21  C   UNL     1       0.566  10.908  21.173  0.00  0.00    +0.000 C 
ATOM     22  C   UNL     1      -0.309  10.593  22.378  0.00  0.00    +0.000 C 
ATOM     23  C   UNL     1      -0.603   9.104  22.300  0.00  0.00    +0.000 C 
ENDBRANCH  18  19
ENDBRANCH   4  18
TORSDOF 5
ENDMDL
