MODEL 1
REMARK VINA RESULT:      -8.2      0.000      0.000
REMARK  Name = 
REMARK  9 active torsions:
REMARK  status: ('A' for Active; 'I' for Inactive)
REMARK    1  A    between atoms: C_1  and  C_2
REMARK    2  A    between atoms: C_3  and  C_4
REMARK    3  A    between atoms: C_9  and  N_10
REMARK    4  A    between atoms: N_10  and  C_11
REMARK    5  A    between atoms: C_12  and  O_14
REMARK    6  A    between atoms: O_14  and  C_15
REMARK    7  A    between atoms: C_15  and  C_16
REMARK    8  A    between atoms: C_15  and  C_17
REMARK    9  A    between atoms: C_15  and  C_18
REMARK                            x       y       z     vdW  Elec       q    Type
REMARK                         _______ _______ _______ _____ _____    ______ ____
ROOT
ATOM      1  C   UNL     1       0.691   8.584  21.302  0.00  0.00    +0.000 C 
ATOM      2  C   UNL     1       1.279   8.881  19.966  0.00  0.00    +0.000 A 
ATOM      3  C   UNL     1       1.343  10.065  19.235  0.00  0.00    +0.000 A 
ATOM      4  C   UNL     1       1.881   9.664  17.997  0.00  0.00    +0.000 A 
ATOM      5  N   UNL     1       2.251   8.391  17.969  0.00  0.00    +0.000 NA
ATOM      6  N   UNL     1       1.851   7.894  19.172  0.00  0.00    +0.000 N 
ATOM      7  C   UNL     1       2.051   6.518  19.434  0.00  0.00    +0.000 A 
ATOM      8  N   UNL     1       1.938   5.975  20.613  0.00  0.00    +0.000 NA
ATOM      9  C   UNL     1       2.081   4.578  20.571  0.00  0.00    +0.000 A 
ATOM     10  C   UNL     1       2.320   3.739  21.678  0.00  0.00    +0.000 A 
ATOM     11  C   UNL     1       2.360   2.413  21.281  0.00  0.00    +0.000 A 
ATOM     12  S   UNL     1       2.058   2.219  19.595  0.00  0.00    +0.000 S 
ATOM     13  C   UNL     1       1.990   3.890  19.393  0.00  0.00    +0.000 A 
ATOM     14  C   UNL     1       1.894   4.582  18.148  0.00  0.00    +0.000 A 
ATOM     15  O   UNL     1       1.388   4.162  17.114  0.00  0.00    +0.000 OA
ATOM     16  N   UNL     1       2.385   5.858  18.265  0.00  0.00    +0.000 N 
ATOM     17  H   UNL     1       3.396   5.772  18.294  0.00  0.00    +0.000 HD
ENDROOT
BRANCH   3  18
ATOM     18  C   UNL     1       0.889  11.392  19.634  0.00  0.00    +0.000 C 
ATOM     19  O   UNL     1       1.686  12.297  19.873  0.00  0.00    +0.000 OA
ATOM     20  N   UNL     1      -0.481  11.599  19.717  0.00  0.00    +0.000 N 
ATOM     21  C   UNL     1      -1.557  10.721  19.267  0.00  0.00    +0.000 C 
ATOM     22  C   UNL     1      -2.696  11.650  18.899  0.00  0.00    +0.000 C 
ATOM     23  C   UNL     1      -2.523  12.833  19.855  0.00  0.00    +0.000 C 
ATOM     24  C   UNL     1      -1.008  12.910  20.085  0.00  0.00    +0.000 C 
BRANCH  23  25
ATOM     25  N   UNL     1      -3.392  12.705  21.033  0.00  0.00    +0.000 N 
ATOM     26  C   UNL     1      -2.863  12.427  22.361  0.00  0.00    +0.000 C 
ATOM     27  C   UNL     1      -4.764  12.664  20.781  0.00  0.00    +0.000 C 
ATOM     28  O   UNL     1      -5.219  12.782  19.650  0.00  0.00    +0.000 OA
BRANCH  27  29
ATOM     29  O   UNL     1      -5.518  12.499  21.900  0.00  0.00    +0.000 OA
BRANCH  29  30
ATOM     30  C   UNL     1      -6.401  13.582  22.303  0.00  0.00    +0.000 C 
ATOM     31  C   UNL     1      -7.780  13.484  21.635  0.00  0.00    +0.000 C 
ATOM     32  C   UNL     1      -6.601  13.424  23.819  0.00  0.00    +0.000 C 
ATOM     33  C   UNL     1      -5.728  14.939  22.053  0.00  0.00    +0.000 C 
ENDBRANCH  29  30
ENDBRANCH  27  29
ENDBRANCH  23  25
ENDBRANCH   3  18
TORSDOF 4
ENDMDL
MODEL 2
REMARK VINA RESULT:      -7.8      1.264      1.760
REMARK  Name = 
REMARK  9 active torsions:
REMARK  status: ('A' for Active; 'I' for Inactive)
REMARK    1  A    between atoms: C_1  and  C_2
REMARK    2  A    between atoms: C_3  and  C_4
REMARK    3  A    between atoms: C_9  and  N_10
REMARK    4  A    between atoms: N_10  and  C_11
REMARK    5  A    between atoms: C_12  and  O_14
REMARK    6  A    between atoms: O_14  and  C_15
REMARK    7  A    between atoms: C_15  and  C_16
REMARK    8  A    between atoms: C_15  and  C_17
REMARK    9  A    between atoms: C_15  and  C_18
REMARK                            x       y       z     vdW  Elec       q    Type
REMARK                         _______ _______ _______ _____ _____    ______ ____
ROOT
ATOM      1  C   UNL     1       0.751   8.660  21.189  0.00  0.00    +0.000 C 
ATOM      2  C   UNL     1       1.338   8.896  19.840  0.00  0.00    +0.000 A 
ATOM      3  C   UNL     1       1.430  10.052  19.070  0.00  0.00    +0.000 A 
ATOM      4  C   UNL     1       1.950   9.596  17.843  0.00  0.00    +0.000 A 
ATOM      5  N   UNL     1       2.285   8.313  17.856  0.00  0.00    +0.000 NA
ATOM      6  N   UNL     1       1.879   7.867  19.078  0.00  0.00    +0.000 N 
ATOM      7  C   UNL     1       2.044   6.496  19.385  0.00  0.00    +0.000 A 
ATOM      8  N   UNL     1       1.923   5.996  20.581  0.00  0.00    +0.000 NA
ATOM      9  C   UNL     1       2.028   4.595  20.586  0.00  0.00    +0.000 A 
ATOM     10  C   UNL     1       2.252   3.788  21.719  0.00  0.00    +0.000 A 
ATOM     11  C   UNL     1       2.254   2.448  21.367  0.00  0.00    +0.000 A 
ATOM     12  S   UNL     1       1.937   2.206  19.690  0.00  0.00    +0.000 S 
ATOM     13  C   UNL     1       1.912   3.871  19.432  0.00  0.00    +0.000 A 
ATOM     14  C   UNL     1       1.828   4.523  18.164  0.00  0.00    +0.000 A 
ATOM     15  O   UNL     1       1.305   4.082  17.148  0.00  0.00    +0.000 OA
ATOM     16  N   UNL     1       2.353   5.789  18.236  0.00  0.00    +0.000 N 
ATOM     17  H   UNL     1       3.362   5.677  18.263  0.00  0.00    +0.000 HD
ENDROOT
BRANCH   3  18
ATOM     18  C   UNL     1       1.013  11.404  19.426  0.00  0.00    +0.000 C 
ATOM     19  O   UNL     1       1.832  12.261  19.751  0.00  0.00    +0.000 OA
ATOM     20  N   UNL     1      -0.343  11.689  19.368  0.00  0.00    +0.000 N 
ATOM     21  C   UNL     1      -1.416  10.875  18.804  0.00  0.00    +0.000 C 
ATOM     22  C   UNL     1      -2.455  11.867  18.326  0.00  0.00    +0.000 C 
ATOM     23  C   UNL     1      -2.315  13.039  19.301  0.00  0.00    +0.000 C 
ATOM     24  C   UNL     1      -0.830  13.029  19.686  0.00  0.00    +0.000 C 
BRANCH  23  25
ATOM     25  N   UNL     1      -3.307  12.962  20.382  0.00  0.00    +0.000 N 
ATOM     26  C   UNL     1      -4.533  12.187  20.256  0.00  0.00    +0.000 C 
ATOM     27  C   UNL     1      -3.110  13.831  21.456  0.00  0.00    +0.000 C 
ATOM     28  O   UNL     1      -2.138  14.574  21.520  0.00  0.00    +0.000 OA
BRANCH  27  29
ATOM     29  O   UNL     1      -4.080  13.751  22.405  0.00  0.00    +0.000 OA
BRANCH  29  30
ATOM     30  C   UNL     1      -3.757  13.111  23.670  0.00  0.00    +0.000 C 
ATOM     31  C   UNL     1      -2.681  12.026  23.512  0.00  0.00    +0.000 C 
ATOM     32  C   UNL     1      -3.181  14.216  24.570  0.00  0.00    +0.000 C 
ATOM     33  C   UNL     1      -5.031  12.574  24.337  0.00  0.00    +0.000 C 
ENDBRANCH  29  30
ENDBRANCH  27  29
ENDBRANCH  23  25
ENDBRANCH   3  18
TORSDOF 4
ENDMDL
MODEL 3
REMARK VINA RESULT:      -7.5      0.970      1.386
REMARK  Name = 
REMARK  9 active torsions:
REMARK  status: ('A' for Active; 'I' for Inactive)
REMARK    1  A    between atoms: C_1  and  C_2
REMARK    2  A    between atoms: C_3  and  C_4
REMARK    3  A    between atoms: C_9  and  N_10
REMARK    4  A    between atoms: N_10  and  C_11
REMARK    5  A    between atoms: C_12  and  O_14
REMARK    6  A    between atoms: O_14  and  C_15
REMARK    7  A    between atoms: C_15  and  C_16
REMARK    8  A    between atoms: C_15  and  C_17
REMARK    9  A    between atoms: C_15  and  C_18
REMARK                            x       y       z     vdW  Elec       q    Type
REMARK                         _______ _______ _______ _____ _____    ______ ____
ROOT
ATOM      1  C   UNL     1       0.510   8.403  21.215  0.00  0.00    +0.000 C 
ATOM      2  C   UNL     1       1.173   8.728  19.921  0.00  0.00    +0.000 A 
ATOM      3  C   UNL     1       1.239   9.917  19.198  0.00  0.00    +0.000 A 
ATOM      4  C   UNL     1       1.873   9.542  17.997  0.00  0.00    +0.000 A 
ATOM      5  N   UNL     1       2.292   8.284  17.992  0.00  0.00    +0.000 NA
ATOM      6  N   UNL     1       1.833   7.767  19.165  0.00  0.00    +0.000 N 
ATOM      7  C   UNL     1       2.068   6.398  19.437  0.00  0.00    +0.000 A 
ATOM      8  N   UNL     1       1.898   5.847  20.605  0.00  0.00    +0.000 NA
ATOM      9  C   UNL     1       2.098   4.456  20.570  0.00  0.00    +0.000 A 
ATOM     10  C   UNL     1       2.296   3.623  21.689  0.00  0.00    +0.000 A 
ATOM     11  C   UNL     1       2.412   2.300  21.294  0.00  0.00    +0.000 A 
ATOM     12  S   UNL     1       2.229   2.102  19.591  0.00  0.00    +0.000 S 
ATOM     13  C   UNL     1       2.111   3.770  19.388  0.00  0.00    +0.000 A 
ATOM     14  C   UNL     1       2.070   4.464  18.140  0.00  0.00    +0.000 A 
ATOM     15  O   UNL     1       1.650   4.029  17.075  0.00  0.00    +0.000 OA
ATOM     16  N   UNL     1       2.503   5.757  18.291  0.00  0.00    +0.000 N 
ATOM     17  H   UNL     1       3.513   5.710  18.387  0.00  0.00    +0.000 HD
ENDROOT
BRANCH   3  18
ATOM     18  C   UNL     1       0.709  11.224  19.568  0.00  0.00    +0.000 C 
ATOM     19  O   UNL     1       1.443  12.119  19.982  0.00  0.00    +0.000 OA
ATOM     20  N   UNL     1      -0.656  11.423  19.419  0.00  0.00    +0.000 N 
ATOM     21  C   UNL     1      -1.628  10.565  18.750  0.00  0.00    +0.000 C 
ATOM     22  C   UNL     1      -2.695  11.506  18.230  0.00  0.00    +0.000 C 
ATOM     23  C   UNL     1      -2.703  12.646  19.252  0.00  0.00    +0.000 C 
ATOM     24  C   UNL     1      -1.253  12.716  19.746  0.00  0.00    +0.000 C 
BRANCH  23  25
ATOM     25  N   UNL     1      -3.763  12.464  20.253  0.00  0.00    +0.000 N 
ATOM     26  C   UNL     1      -5.165  12.328  19.883  0.00  0.00    +0.000 C 
ATOM     27  C   UNL     1      -3.382  12.630  21.586  0.00  0.00    +0.000 C 
ATOM     28  O   UNL     1      -2.222  12.859  21.905  0.00  0.00    +0.000 OA
BRANCH  27  29
ATOM     29  O   UNL     1      -4.409  12.495  22.465  0.00  0.00    +0.000 OA
BRANCH  29  30
ATOM     30  C   UNL     1      -4.717  13.613  23.344  0.00  0.00    +0.000 C 
ATOM     31  C   UNL     1      -4.668  14.960  22.606  0.00  0.00    +0.000 C 
ATOM     32  C   UNL     1      -6.160  13.392  23.824  0.00  0.00    +0.000 C 
ATOM     33  C   UNL     1      -3.800  13.591  24.575  0.00  0.00    +0.000 C 
ENDBRANCH  29  30
ENDBRANCH  27  29
ENDBRANCH  23  25
ENDBRANCH   3  18
TORSDOF 4
ENDMDL
MODEL 4
REMARK VINA RESULT:      -7.5      3.262      9.953
REMARK  Name = 
REMARK  9 active torsions:
REMARK  status: ('A' for Active; 'I' for Inactive)
REMARK    1  A    between atoms: C_1  and  C_2
REMARK    2  A    between atoms: C_3  and  C_4
REMARK    3  A    between atoms: C_9  and  N_10
REMARK    4  A    between atoms: N_10  and  C_11
REMARK    5  A    between atoms: C_12  and  O_14
REMARK    6  A    between atoms: O_14  and  C_15
REMARK    7  A    between atoms: C_15  and  C_16
REMARK    8  A    between atoms: C_15  and  C_17
REMARK    9  A    between atoms: C_15  and  C_18
REMARK                            x       y       z     vdW  Elec       q    Type
REMARK                         _______ _______ _______ _____ _____    ______ ____
ROOT
ATOM      1  C   UNL     1      -1.957   9.731  17.413  0.00  0.00    +0.000 C 
ATOM      2  C   UNL     1      -1.237  10.624  18.363  0.00  0.00    +0.000 A 
ATOM      3  C   UNL     1       0.084  10.617  18.806  0.00  0.00    +0.000 A 
ATOM      4  C   UNL     1       0.107  11.612  19.803  0.00  0.00    +0.000 A 
ATOM      5  N   UNL     1      -1.032  12.283  19.906  0.00  0.00    +0.000 NA
ATOM      6  N   UNL     1      -1.877  11.655  19.041  0.00  0.00    +0.000 N 
ATOM      7  C   UNL     1      -3.216  12.104  18.960  0.00  0.00    +0.000 A 
ATOM      8  N   UNL     1      -4.046  11.757  18.019  0.00  0.00    +0.000 NA
ATOM      9  C   UNL     1      -5.340  12.259  18.240  0.00  0.00    +0.000 A 
ATOM     10  C   UNL     1      -6.372  12.332  17.282  0.00  0.00    +0.000 A 
ATOM     11  C   UNL     1      -7.528  12.836  17.853  0.00  0.00    +0.000 A 
ATOM     12  S   UNL     1      -7.346  13.158  19.537  0.00  0.00    +0.000 S 
ATOM     13  C   UNL     1      -5.718  12.735  19.465  0.00  0.00    +0.000 A 
ATOM     14  C   UNL     1      -4.765  12.874  20.520  0.00  0.00    +0.000 A 
ATOM     15  O   UNL     1      -4.998  12.857  21.722  0.00  0.00    +0.000 OA
ATOM     16  N   UNL     1      -3.492  12.957  20.014  0.00  0.00    +0.000 N 
ATOM     17  H   UNL     1      -3.401  13.890  19.625  0.00  0.00    +0.000 HD
ENDROOT
BRANCH   3  18
ATOM     18  C   UNL     1       1.166   9.734  18.387  0.00  0.00    +0.000 C 
ATOM     19  O   UNL     1       1.796   9.940  17.352  0.00  0.00    +0.000 OA
ATOM     20  N   UNL     1       1.469   8.660  19.213  0.00  0.00    +0.000 N 
ATOM     21  C   UNL     1       0.981   8.391  20.562  0.00  0.00    +0.000 C 
ATOM     22  C   UNL     1       2.098   7.622  21.239  0.00  0.00    +0.000 C 
ATOM     23  C   UNL     1       2.750   6.844  20.093  0.00  0.00    +0.000 C 
ATOM     24  C   UNL     1       2.558   7.749  18.869  0.00  0.00    +0.000 C 
BRANCH  23  25
ATOM     25  N   UNL     1       2.240   5.468  20.017  0.00  0.00    +0.000 N 
ATOM     26  C   UNL     1       0.877   5.123  20.396  0.00  0.00    +0.000 C 
ATOM     27  C   UNL     1       3.188   4.477  19.755  0.00  0.00    +0.000 C 
ATOM     28  O   UNL     1       4.364   4.745  19.545  0.00  0.00    +0.000 OA
BRANCH  27  29
ATOM     29  O   UNL     1       2.670   3.221  19.741  0.00  0.00    +0.000 OA
BRANCH  29  30
ATOM     30  C   UNL     1       2.498   2.559  18.457  0.00  0.00    +0.000 C 
ATOM     31  C   UNL     1       3.552   1.465  18.225  0.00  0.00    +0.000 C 
ATOM     32  C   UNL     1       1.120   1.880  18.510  0.00  0.00    +0.000 C 
ATOM     33  C   UNL     1       2.473   3.593  17.323  0.00  0.00    +0.000 C 
ENDBRANCH  29  30
ENDBRANCH  27  29
ENDBRANCH  23  25
ENDBRANCH   3  18
TORSDOF 4
ENDMDL
MODEL 5
REMARK VINA RESULT:      -7.4      2.496      3.391
REMARK  Name = 
REMARK  9 active torsions:
REMARK  status: ('A' for Active; 'I' for Inactive)
REMARK    1  A    between atoms: C_1  and  C_2
REMARK    2  A    between atoms: C_3  and  C_4
REMARK    3  A    between atoms: C_9  and  N_10
REMARK    4  A    between atoms: N_10  and  C_11
REMARK    5  A    between atoms: C_12  and  O_14
REMARK    6  A    between atoms: O_14  and  C_15
REMARK    7  A    between atoms: C_15  and  C_16
REMARK    8  A    between atoms: C_15  and  C_17
REMARK    9  A    between atoms: C_15  and  C_18
REMARK                            x       y       z     vdW  Elec       q    Type
REMARK                         _______ _______ _______ _____ _____    ______ ____
ROOT
ATOM      1  C   UNL     1       2.348   9.770  18.115  0.00  0.00    +0.000 C 
ATOM      2  C   UNL     1       1.880   8.870  19.205  0.00  0.00    +0.000 A 
ATOM      3  C   UNL     1       0.997   9.089  20.259  0.00  0.00    +0.000 A 
ATOM      4  C   UNL     1       1.090   7.908  21.023  0.00  0.00    +0.000 A 
ATOM      5  N   UNL     1       1.844   6.974  20.461  0.00  0.00    +0.000 NA
ATOM      6  N   UNL     1       2.362   7.574  19.353  0.00  0.00    +0.000 N 
ATOM      7  C   UNL     1       3.273   6.845  18.554  0.00  0.00    +0.000 A 
ATOM      8  N   UNL     1       3.649   7.206  17.361  0.00  0.00    +0.000 NA
ATOM      9  C   UNL     1       4.642   6.361  16.837  0.00  0.00    +0.000 A 
ATOM     10  C   UNL     1       5.032   6.284  15.485  0.00  0.00    +0.000 A 
ATOM     11  C   UNL     1       6.070   5.381  15.330  0.00  0.00    +0.000 A 
ATOM     12  S   UNL     1       6.574   4.692  16.829  0.00  0.00    +0.000 S 
ATOM     13  C   UNL     1       5.345   5.509  17.642  0.00  0.00    +0.000 A 
ATOM     14  C   UNL     1       4.993   5.342  19.016  0.00  0.00    +0.000 A 
ATOM     15  O   UNL     1       5.735   4.992  19.924  0.00  0.00    +0.000 OA
ATOM     16  N   UNL     1       3.687   5.709  19.227  0.00  0.00    +0.000 N 
ATOM     17  H   UNL     1       3.116   4.959  18.849  0.00  0.00    +0.000 HD
ENDROOT
BRANCH   3  18
ATOM     18  C   UNL     1       0.218  10.288  20.544  0.00  0.00    +0.000 C 
ATOM     19  O   UNL     1       0.482  11.010  21.503  0.00  0.00    +0.000 OA
ATOM     20  N   UNL     1      -0.823  10.592  19.679  0.00  0.00    +0.000 N 
ATOM     21  C   UNL     1      -1.137   9.982  18.391  0.00  0.00    +0.000 C 
ATOM     22  C   UNL     1      -1.799  11.080  17.585  0.00  0.00    +0.000 C 
ATOM     23  C   UNL     1      -2.513  11.927  18.642  0.00  0.00    +0.000 C 
ATOM     24  C   UNL     1      -1.629  11.793  19.888  0.00  0.00    +0.000 C 
BRANCH  23  25
ATOM     25  N   UNL     1      -3.931  11.558  18.761  0.00  0.00    +0.000 N 
ATOM     26  C   UNL     1      -4.501  10.428  18.042  0.00  0.00    +0.000 C 
ATOM     27  C   UNL     1      -4.745  12.466  19.439  0.00  0.00    +0.000 C 
ATOM     28  O   UNL     1      -4.295  13.483  19.953  0.00  0.00    +0.000 OA
BRANCH  27  29
ATOM     29  O   UNL     1      -6.053  12.098  19.480  0.00  0.00    +0.000 OA
BRANCH  29  30
ATOM     30  C   UNL     1      -6.814  12.384  20.686  0.00  0.00    +0.000 C 
ATOM     31  C   UNL     1      -7.719  13.614  20.521  0.00  0.00    +0.000 C 
ATOM     32  C   UNL     1      -7.718  11.163  20.919  0.00  0.00    +0.000 C 
ATOM     33  C   UNL     1      -5.873  12.513  21.892  0.00  0.00    +0.000 C 
ENDBRANCH  29  30
ENDBRANCH  27  29
ENDBRANCH  23  25
ENDBRANCH   3  18
TORSDOF 4
ENDMDL
MODEL 6
REMARK VINA RESULT:      -7.3      1.139      1.455
REMARK  Name = 
REMARK  9 active torsions:
REMARK  status: ('A' for Active; 'I' for Inactive)
REMARK    1  A    between atoms: C_1  and  C_2
REMARK    2  A    between atoms: C_3  and  C_4
REMARK    3  A    between atoms: C_9  and  N_10
REMARK    4  A    between atoms: N_10  and  C_11
REMARK    5  A    between atoms: C_12  and  O_14
REMARK    6  A    between atoms: O_14  and  C_15
REMARK    7  A    between atoms: C_15  and  C_16
REMARK    8  A    between atoms: C_15  and  C_17
REMARK    9  A    between atoms: C_15  and  C_18
REMARK                            x       y       z     vdW  Elec       q    Type
REMARK                         _______ _______ _______ _____ _____    ______ ____
ROOT
ATOM      1  C   UNL     1       0.344   8.312  20.853  0.00  0.00    +0.000 C 
ATOM      2  C   UNL     1       1.198   8.694  19.694  0.00  0.00    +0.000 A 
ATOM      3  C   UNL     1       1.285   9.881  18.972  0.00  0.00    +0.000 A 
ATOM      4  C   UNL     1       2.159   9.564  17.913  0.00  0.00    +0.000 A 
ATOM      5  N   UNL     1       2.686   8.352  18.009  0.00  0.00    +0.000 NA
ATOM      6  N   UNL     1       2.071   7.797  19.090  0.00  0.00    +0.000 N 
ATOM      7  C   UNL     1       2.378   6.458  19.428  0.00  0.00    +0.000 A 
ATOM      8  N   UNL     1       2.050   5.896  20.556  0.00  0.00    +0.000 NA
ATOM      9  C   UNL     1       2.380   4.530  20.586  0.00  0.00    +0.000 A 
ATOM     10  C   UNL     1       2.447   3.722  21.738  0.00  0.00    +0.000 A 
ATOM     11  C   UNL     1       2.755   2.416  21.397  0.00  0.00    +0.000 A 
ATOM     12  S   UNL     1       2.905   2.197  19.694  0.00  0.00    +0.000 S 
ATOM     13  C   UNL     1       2.672   3.845  19.439  0.00  0.00    +0.000 A 
ATOM     14  C   UNL     1       2.795   4.528  18.191  0.00  0.00    +0.000 A 
ATOM     15  O   UNL     1       2.618   4.052  17.076  0.00  0.00    +0.000 OA
ATOM     16  N   UNL     1       3.072   5.857  18.392  0.00  0.00    +0.000 N 
ATOM     17  H   UNL     1       4.047   5.906  18.670  0.00  0.00    +0.000 HD
ENDROOT
BRANCH   3  18
ATOM     18  C   UNL     1       0.578  11.133  19.214  0.00  0.00    +0.000 C 
ATOM     19  O   UNL     1       1.137  12.094  19.739  0.00  0.00    +0.000 OA
ATOM     20  N   UNL     1      -0.749  11.204  18.812  0.00  0.00    +0.000 N 
ATOM     21  C   UNL     1      -1.498  10.257  17.992  0.00  0.00    +0.000 C 
ATOM     22  C   UNL     1      -2.531  11.094  17.267  0.00  0.00    +0.000 C 
ATOM     23  C   UNL     1      -2.833  12.229  18.249  0.00  0.00    +0.000 C 
ATOM     24  C   UNL     1      -1.512  12.436  19.000  0.00  0.00    +0.000 C 
BRANCH  23  25
ATOM     25  N   UNL     1      -4.039  11.950  19.041  0.00  0.00    +0.000 N 
ATOM     26  C   UNL     1      -5.094  11.067  18.565  0.00  0.00    +0.000 C 
ATOM     27  C   UNL     1      -4.214  12.731  20.185  0.00  0.00    +0.000 C 
ATOM     28  O   UNL     1      -3.385  13.561  20.537  0.00  0.00    +0.000 OA
BRANCH  27  29
ATOM     29  O   UNL     1      -5.366  12.463  20.854  0.00  0.00    +0.000 OA
BRANCH  29  30
ATOM     30  C   UNL     1      -6.365  13.516  20.960  0.00  0.00    +0.000 C 
ATOM     31  C   UNL     1      -6.385  14.421  19.719  0.00  0.00    +0.000 C 
ATOM     32  C   UNL     1      -7.725  12.804  21.045  0.00  0.00    +0.000 C 
ATOM     33  C   UNL     1      -6.165  14.311  22.258  0.00  0.00    +0.000 C 
ENDBRANCH  29  30
ENDBRANCH  27  29
ENDBRANCH  23  25
ENDBRANCH   3  18
TORSDOF 4
ENDMDL
MODEL 7
REMARK VINA RESULT:      -7.2      1.107      1.618
REMARK  Name = 
REMARK  9 active torsions:
REMARK  status: ('A' for Active; 'I' for Inactive)
REMARK    1  A    between atoms: C_1  and  C_2
REMARK    2  A    between atoms: C_3  and  C_4
REMARK    3  A    between atoms: C_9  and  N_10
REMARK    4  A    between atoms: N_10  and  C_11
REMARK    5  A    between atoms: C_12  and  O_14
REMARK    6  A    between atoms: O_14  and  C_15
REMARK    7  A    between atoms: C_15  and  C_16
REMARK    8  A    between atoms: C_15  and  C_17
REMARK    9  A    between atoms: C_15  and  C_18
REMARK                            x       y       z     vdW  Elec       q    Type
REMARK                         _______ _______ _______ _____ _____    ______ ____
ROOT
ATOM      1  C   UNL     1       0.760   8.662  21.339  0.00  0.00    +0.000 C 
ATOM      2  C   UNL     1       1.312   8.937  19.983  0.00  0.00    +0.000 A 
ATOM      3  C   UNL     1       1.384  10.115  19.244  0.00  0.00    +0.000 A 
ATOM      4  C   UNL     1       1.871   9.694  17.991  0.00  0.00    +0.000 A 
ATOM      5  N   UNL     1       2.205   8.411  17.958  0.00  0.00    +0.000 NA
ATOM      6  N   UNL     1       1.831   7.931  19.177  0.00  0.00    +0.000 N 
ATOM      7  C   UNL     1       2.003   6.551  19.440  0.00  0.00    +0.000 A 
ATOM      8  N   UNL     1       1.914   6.017  20.624  0.00  0.00    +0.000 NA
ATOM      9  C   UNL     1       2.019   4.617  20.586  0.00  0.00    +0.000 A 
ATOM     10  C   UNL     1       2.272   3.778  21.689  0.00  0.00    +0.000 A 
ATOM     11  C   UNL     1       2.263   2.448  21.299  0.00  0.00    +0.000 A 
ATOM     12  S   UNL     1       1.902   2.255  19.625  0.00  0.00    +0.000 S 
ATOM     13  C   UNL     1       1.872   3.926  19.415  0.00  0.00    +0.000 A 
ATOM     14  C   UNL     1       1.754   4.614  18.170  0.00  0.00    +0.000 A 
ATOM     15  O   UNL     1       1.204   4.203  17.156  0.00  0.00    +0.000 OA
ATOM     16  N   UNL     1       2.282   5.878  18.264  0.00  0.00    +0.000 N 
ATOM     17  H   UNL     1       3.291   5.765  18.261  0.00  0.00    +0.000 HD
ENDROOT
BRANCH   3  18
ATOM     18  C   UNL     1       0.977  11.456  19.649  0.00  0.00    +0.000 C 
ATOM     19  O   UNL     1       1.805  12.307  19.966  0.00  0.00    +0.000 OA
ATOM     20  N   UNL     1      -0.381  11.738  19.647  0.00  0.00    +0.000 N 
ATOM     21  C   UNL     1      -1.472  10.935  19.103  0.00  0.00    +0.000 C 
ATOM     22  C   UNL     1      -2.530  11.936  18.687  0.00  0.00    +0.000 C 
ATOM     23  C   UNL     1      -2.356  13.083  19.686  0.00  0.00    +0.000 C 
ATOM     24  C   UNL     1      -0.859  13.068  20.018  0.00  0.00    +0.000 C 
BRANCH  23  25
ATOM     25  N   UNL     1      -3.309  12.976  20.801  0.00  0.00    +0.000 N 
ATOM     26  C   UNL     1      -4.589  12.296  20.665  0.00  0.00    +0.000 C 
ATOM     27  C   UNL     1      -3.011  13.732  21.936  0.00  0.00    +0.000 C 
ATOM     28  O   UNL     1      -1.989  14.402  22.019  0.00  0.00    +0.000 OA
BRANCH  27  29
ATOM     29  O   UNL     1      -3.946  13.632  22.916  0.00  0.00    +0.000 OA
BRANCH  29  30
ATOM     30  C   UNL     1      -4.651  14.837  23.325  0.00  0.00    +0.000 C 
ATOM     31  C   UNL     1      -3.921  15.580  24.454  0.00  0.00    +0.000 C 
ATOM     32  C   UNL     1      -4.669  15.757  22.093  0.00  0.00    +0.000 C 
ATOM     33  C   UNL     1      -6.105  14.507  23.690  0.00  0.00    +0.000 C 
ENDBRANCH  29  30
ENDBRANCH  27  29
ENDBRANCH  23  25
ENDBRANCH   3  18
TORSDOF 4
ENDMDL
MODEL 8
REMARK VINA RESULT:      -6.8      3.394     10.227
REMARK  Name = 
REMARK  9 active torsions:
REMARK  status: ('A' for Active; 'I' for Inactive)
REMARK    1  A    between atoms: C_1  and  C_2
REMARK    2  A    between atoms: C_3  and  C_4
REMARK    3  A    between atoms: C_9  and  N_10
REMARK    4  A    between atoms: N_10  and  C_11
REMARK    5  A    between atoms: C_12  and  O_14
REMARK    6  A    between atoms: O_14  and  C_15
REMARK    7  A    between atoms: C_15  and  C_16
REMARK    8  A    between atoms: C_15  and  C_17
REMARK    9  A    between atoms: C_15  and  C_18
REMARK                            x       y       z     vdW  Elec       q    Type
REMARK                         _______ _______ _______ _____ _____    ______ ____
ROOT
ATOM      1  C   UNL     1      -1.846  12.034  23.180  0.00  0.00    +0.000 C 
ATOM      2  C   UNL     1      -1.922  12.134  21.695  0.00  0.00    +0.000 A 
ATOM      3  C   UNL     1      -0.970  11.888  20.709  0.00  0.00    +0.000 A 
ATOM      4  C   UNL     1      -1.602  12.307  19.523  0.00  0.00    +0.000 A 
ATOM      5  N   UNL     1      -2.868  12.661  19.695  0.00  0.00    +0.000 NA
ATOM      6  N   UNL     1      -3.062  12.587  21.041  0.00  0.00    +0.000 N 
ATOM      7  C   UNL     1      -4.321  12.967  21.564  0.00  0.00    +0.000 A 
ATOM      8  N   UNL     1      -4.711  12.720  22.781  0.00  0.00    +0.000 NA
ATOM      9  C   UNL     1      -5.956  13.303  23.070  0.00  0.00    +0.000 A 
ATOM     10  C   UNL     1      -6.787  12.977  24.161  0.00  0.00    +0.000 A 
ATOM     11  C   UNL     1      -7.917  13.779  24.165  0.00  0.00    +0.000 A 
ATOM     12  S   UNL     1      -7.913  14.931  22.883  0.00  0.00    +0.000 S 
ATOM     13  C   UNL     1      -6.481  14.284  22.276  0.00  0.00    +0.000 A 
ATOM     14  C   UNL     1      -5.851  14.645  21.047  0.00  0.00    +0.000 A 
ATOM     15  O   UNL     1      -5.925  15.727  20.477  0.00  0.00    +0.000 OA
ATOM     16  N   UNL     1      -5.056  13.623  20.592  0.00  0.00    +0.000 N 
ATOM     17  H   UNL     1      -5.684  12.918  20.221  0.00  0.00    +0.000 HD
ENDROOT
BRANCH   3  18
ATOM     18  C   UNL     1       0.389  11.385  20.879  0.00  0.00    +0.000 C 
ATOM     19  O   UNL     1       1.319  12.138  21.158  0.00  0.00    +0.000 OA
ATOM     20  N   UNL     1       0.587  10.020  20.728  0.00  0.00    +0.000 N 
ATOM     21  C   UNL     1      -0.417   8.967  20.614  0.00  0.00    +0.000 C 
ATOM     22  C   UNL     1       0.233   7.735  21.209  0.00  0.00    +0.000 C 
ATOM     23  C   UNL     1       1.720   7.922  20.895  0.00  0.00    +0.000 C 
ATOM     24  C   UNL     1       1.917   9.443  20.909  0.00  0.00    +0.000 C 
BRANCH  23  25
ATOM     25  N   UNL     1       2.111   7.189  19.683  0.00  0.00    +0.000 N 
ATOM     26  C   UNL     1       2.146   7.820  18.372  0.00  0.00    +0.000 C 
ATOM     27  C   UNL     1       2.253   5.807  19.823  0.00  0.00    +0.000 C 
ATOM     28  O   UNL     1       2.114   5.246  20.903  0.00  0.00    +0.000 OA
BRANCH  27  29
ATOM     29  O   UNL     1       2.571   5.174  18.663  0.00  0.00    +0.000 OA
BRANCH  29  30
ATOM     30  C   UNL     1       3.893   4.580  18.540  0.00  0.00    +0.000 C 
ATOM     31  C   UNL     1       4.915   5.244  19.475  0.00  0.00    +0.000 C 
ATOM     32  C   UNL     1       3.741   3.113  18.976  0.00  0.00    +0.000 C 
ATOM     33  C   UNL     1       4.350   4.593  17.075  0.00  0.00    +0.000 C 
ENDBRANCH  29  30
ENDBRANCH  27  29
ENDBRANCH  23  25
ENDBRANCH   3  18
TORSDOF 4
ENDMDL
MODEL 9
REMARK VINA RESULT:      -6.7      3.955      5.330
REMARK  Name = 
REMARK  9 active torsions:
REMARK  status: ('A' for Active; 'I' for Inactive)
REMARK    1  A    between atoms: C_1  and  C_2
REMARK    2  A    between atoms: C_3  and  C_4
REMARK    3  A    between atoms: C_9  and  N_10
REMARK    4  A    between atoms: N_10  and  C_11
REMARK    5  A    between atoms: C_12  and  O_14
REMARK    6  A    between atoms: O_14  and  C_15
REMARK    7  A    between atoms: C_15  and  C_16
REMARK    8  A    between atoms: C_15  and  C_17
REMARK    9  A    between atoms: C_15  and  C_18
REMARK                            x       y       z     vdW  Elec       q    Type
REMARK                         _______ _______ _______ _____ _____    ______ ____
ROOT
ATOM      1  C   UNL     1       2.119   9.181  17.478  0.00  0.00    +0.000 C 
ATOM      2  C   UNL     1       1.887   8.474  18.768  0.00  0.00    +0.000 A 
ATOM      3  C   UNL     1       1.046   8.771  19.839  0.00  0.00    +0.000 A 
ATOM      4  C   UNL     1       1.394   7.813  20.811  0.00  0.00    +0.000 A 
ATOM      5  N   UNL     1       2.264   6.911  20.378  0.00  0.00    +0.000 NA
ATOM      6  N   UNL     1       2.596   7.334  19.126  0.00  0.00    +0.000 N 
ATOM      7  C   UNL     1       3.570   6.603  18.404  0.00  0.00    +0.000 A 
ATOM      8  N   UNL     1       3.800   6.754  17.131  0.00  0.00    +0.000 NA
ATOM      9  C   UNL     1       4.891   5.985  16.693  0.00  0.00    +0.000 A 
ATOM     10  C   UNL     1       5.202   5.683  15.352  0.00  0.00    +0.000 A 
ATOM     11  C   UNL     1       6.372   4.943  15.281  0.00  0.00    +0.000 A 
ATOM     12  S   UNL     1       7.082   4.682  16.830  0.00  0.00    +0.000 S 
ATOM     13  C   UNL     1       5.783   5.449  17.580  0.00  0.00    +0.000 A 
ATOM     14  C   UNL     1       5.552   5.527  18.987  0.00  0.00    +0.000 A 
ATOM     15  O   UNL     1       6.401   5.503  19.870  0.00  0.00    +0.000 OA
ATOM     16  N   UNL     1       4.218   5.719  19.248  0.00  0.00    +0.000 N 
ATOM     17  H   UNL     1       3.765   4.825  19.087  0.00  0.00    +0.000 HD
ENDROOT
BRANCH   3  18
ATOM     18  C   UNL     1       0.089   9.865  19.952  0.00  0.00    +0.000 C 
ATOM     19  O   UNL     1      -1.116   9.651  20.066  0.00  0.00    +0.000 OA
ATOM     20  N   UNL     1       0.593  11.158  19.941  0.00  0.00    +0.000 N 
ATOM     21  C   UNL     1       1.985  11.587  20.031  0.00  0.00    +0.000 C 
ATOM     22  C   UNL     1       1.938  12.942  20.707  0.00  0.00    +0.000 C 
ATOM     23  C   UNL     1       0.598  13.527  20.252  0.00  0.00    +0.000 C 
ATOM     24  C   UNL     1      -0.306  12.301  20.076  0.00  0.00    +0.000 C 
BRANCH  23  25
ATOM     25  N   UNL     1       0.766  14.429  19.103  0.00  0.00    +0.000 N 
ATOM     26  C   UNL     1       1.975  14.434  18.292  0.00  0.00    +0.000 C 
ATOM     27  C   UNL     1      -0.208  15.417  18.952  0.00  0.00    +0.000 C 
ATOM     28  O   UNL     1      -1.175  15.494  19.700  0.00  0.00    +0.000 OA
BRANCH  27  29
ATOM     29  O   UNL     1       0.021  16.249  17.902  0.00  0.00    +0.000 OA
BRANCH  29  30
ATOM     30  C   UNL     1       0.254  17.658  18.177  0.00  0.00    +0.000 C 
ATOM     31  C   UNL     1       1.085  18.333  17.075  0.00  0.00    +0.000 C 
ATOM     32  C   UNL     1      -1.132  18.323  18.193  0.00  0.00    +0.000 C 
ATOM     33  C   UNL     1       0.880  17.834  19.567  0.00  0.00    +0.000 C 
ENDBRANCH  29  30
ENDBRANCH  27  29
ENDBRANCH  23  25
ENDBRANCH   3  18
TORSDOF 4
ENDMDL
