MODEL 1
REMARK VINA RESULT:      -8.3      0.000      0.000
REMARK  Name = 
REMARK  4 active torsions:
REMARK  status: ('A' for Active; 'I' for Inactive)
REMARK    1  A    between atoms: N_8  and  C_9
REMARK    2  A    between atoms: C_11  and  C_12
REMARK    3  A    between atoms: C_12  and  O_13
REMARK    4  A    between atoms: C_14  and  O_15
REMARK                            x       y       z     vdW  Elec       q    Type
REMARK                         _______ _______ _______ _____ _____    ______ ____
ROOT
ATOM      1  N   UNL     1       8.619   5.188  20.523  0.00  0.00    +0.000 N 
ATOM      2  C   UNL     1       7.654   5.567  19.650  0.00  0.00    +0.000 A 
ATOM      3  N   UNL     1       6.422   5.167  19.825  0.00  0.00    +0.000 NA
ATOM      4  C   UNL     1       5.573   5.619  18.871  0.00  0.00    +0.000 A 
ATOM      5  C   UNL     1       5.851   6.417  17.787  0.00  0.00    +0.000 A 
ATOM      6  N   UNL     1       4.727   6.637  17.031  0.00  0.00    +0.000 NA
ATOM      7  C   UNL     1       3.774   5.962  17.649  0.00  0.00    +0.000 A 
ATOM      8  N   UNL     1       4.239   5.336  18.774  0.00  0.00    +0.000 N 
ATOM      9  C   UNL     1       7.220   6.851  17.605  0.00  0.00    +0.000 A 
ATOM     10  O   UNL     1       7.638   7.552  16.689  0.00  0.00    +0.000 OA
ATOM     11  N   UNL     1       8.058   6.376  18.607  0.00  0.00    +0.000 N 
ATOM     12  H   UNL     1       8.247   4.829  21.397  0.00  0.00    +0.000 HD
ATOM     13  H   UNL     1       9.412   5.804  20.650  0.00  0.00    +0.000 HD
ATOM     14  H   UNL     1       9.028   6.624  18.501  0.00  0.00    +0.000 HD
ENDROOT
BRANCH   8  15
ATOM     15  C   UNL     1       3.520   4.465  19.673  0.00  0.00    +0.000 C 
ATOM     16  O   UNL     1       3.570   3.091  19.200  0.00  0.00    +0.000 OA
ATOM     17  C   UNL     1       2.437   2.401  19.795  0.00  0.00    +0.000 C 
ATOM     18  C   UNL     1       1.584   3.459  20.516  0.00  0.00    +0.000 C 
ATOM     19  C   UNL     1       2.043   4.770  19.871  0.00  0.00    +0.000 C 
ATOM     20  F   UNL     1       1.434   4.924  18.663  0.00  0.00    +0.000 F 
ATOM     21 CL   UNL     1       1.699   6.201  20.858  0.00  0.00    +0.000 Cl
BRANCH  18  22
ATOM     22  O   UNL     1       1.855   3.387  21.933  0.00  0.00    +0.000 OA
ATOM     23  H   UNL     1       2.024   2.472  22.210  0.00  0.00    +0.000 HD
ENDBRANCH  18  22
BRANCH  17  24
ATOM     24  C   UNL     1       1.677   1.616  18.723  0.00  0.00    +0.000 C 
BRANCH  24  25
ATOM     25  O   UNL     1       2.178   1.872  17.421  0.00  0.00    +0.000 OA
ATOM     26  H   UNL     1       2.771   1.136  17.182  0.00  0.00    +0.000 HD
ENDBRANCH  24  25
ENDBRANCH  17  24
ENDBRANCH   8  15
TORSDOF 4
ENDMDL
MODEL 2
REMARK VINA RESULT:      -8.2      2.158      2.711
REMARK  Name = 
REMARK  4 active torsions:
REMARK  status: ('A' for Active; 'I' for Inactive)
REMARK    1  A    between atoms: N_8  and  C_9
REMARK    2  A    between atoms: C_11  and  C_12
REMARK    3  A    between atoms: C_12  and  O_13
REMARK    4  A    between atoms: C_14  and  O_15
REMARK                            x       y       z     vdW  Elec       q    Type
REMARK                         _______ _______ _______ _____ _____    ______ ____
ROOT
ATOM      1  N   UNL     1       7.573   8.154  17.463  0.00  0.00    +0.000 N 
ATOM      2  C   UNL     1       6.961   6.987  17.146  0.00  0.00    +0.000 A 
ATOM      3  N   UNL     1       5.918   6.591  17.828  0.00  0.00    +0.000 NA
ATOM      4  C   UNL     1       5.420   5.405  17.402  0.00  0.00    +0.000 A 
ATOM      5  C   UNL     1       5.868   4.608  16.375  0.00  0.00    +0.000 A 
ATOM      6  N   UNL     1       5.115   3.467  16.267  0.00  0.00    +0.000 NA
ATOM      7  C   UNL     1       4.221   3.567  17.235  0.00  0.00    +0.000 A 
ATOM      8  N   UNL     1       4.362   4.729  17.943  0.00  0.00    +0.000 N 
ATOM      9  C   UNL     1       7.025   5.059  15.630  0.00  0.00    +0.000 A 
ATOM     10  O   UNL     1       7.558   4.466  14.698  0.00  0.00    +0.000 OA
ATOM     11  N   UNL     1       7.501   6.281  16.090  0.00  0.00    +0.000 N 
ATOM     12  H   UNL     1       7.004   8.756  18.050  0.00  0.00    +0.000 HD
ATOM     13  H   UNL     1       8.053   8.653  16.725  0.00  0.00    +0.000 HD
ATOM     14  H   UNL     1       8.327   6.617  15.624  0.00  0.00    +0.000 HD
ENDROOT
BRANCH   8  15
ATOM     15  C   UNL     1       3.618   5.166  19.100  0.00  0.00    +0.000 C 
ATOM     16  O   UNL     1       3.439   4.068  20.036  0.00  0.00    +0.000 OA
ATOM     17  C   UNL     1       2.283   4.397  20.853  0.00  0.00    +0.000 C 
ATOM     18  C   UNL     1       1.650   5.668  20.260  0.00  0.00    +0.000 C 
ATOM     19  C   UNL     1       2.220   5.706  18.839  0.00  0.00    +0.000 C 
ATOM     20  F   UNL     1       1.529   4.842  18.045  0.00  0.00    +0.000 F 
ATOM     21 CL   UNL     1       2.163   7.315  18.098  0.00  0.00    +0.000 Cl
BRANCH  18  22
ATOM     22  O   UNL     1       2.038   6.801  21.068  0.00  0.00    +0.000 OA
ATOM     23  H   UNL     1       2.991   6.786  21.255  0.00  0.00    +0.000 HD
ENDBRANCH  18  22
BRANCH  17  24
ATOM     24  C   UNL     1       1.330   3.203  20.922  0.00  0.00    +0.000 C 
BRANCH  24  25
ATOM     25  O   UNL     1       1.431   2.512  22.158  0.00  0.00    +0.000 OA
ATOM     26  H   UNL     1       2.081   2.985  22.709  0.00  0.00    +0.000 HD
ENDBRANCH  24  25
ENDBRANCH  17  24
ENDBRANCH   8  15
TORSDOF 4
ENDMDL
MODEL 3
REMARK VINA RESULT:      -7.7      2.420      3.527
REMARK  Name = 
REMARK  4 active torsions:
REMARK  status: ('A' for Active; 'I' for Inactive)
REMARK    1  A    between atoms: N_8  and  C_9
REMARK    2  A    between atoms: C_11  and  C_12
REMARK    3  A    between atoms: C_12  and  O_13
REMARK    4  A    between atoms: C_14  and  O_15
REMARK                            x       y       z     vdW  Elec       q    Type
REMARK                         _______ _______ _______ _____ _____    ______ ____
ROOT
ATOM      1  N   UNL     1       5.329   4.027  13.804  0.00  0.00    +0.000 N 
ATOM      2  C   UNL     1       5.533   4.503  15.056  0.00  0.00    +0.000 A 
ATOM      3  N   UNL     1       4.740   4.139  16.030  0.00  0.00    +0.000 NA
ATOM      4  C   UNL     1       5.063   4.700  17.220  0.00  0.00    +0.000 A 
ATOM      5  C   UNL     1       6.088   5.570  17.506  0.00  0.00    +0.000 A 
ATOM      6  N   UNL     1       6.072   5.939  18.827  0.00  0.00    +0.000 NA
ATOM      7  C   UNL     1       5.032   5.305  19.337  0.00  0.00    +0.000 A 
ATOM      8  N   UNL     1       4.394   4.535  18.401  0.00  0.00    +0.000 N 
ATOM      9  C   UNL     1       6.958   5.965  16.418  0.00  0.00    +0.000 A 
ATOM     10  O   UNL     1       7.907   6.738  16.497  0.00  0.00    +0.000 OA
ATOM     11  N   UNL     1       6.602   5.363  15.217  0.00  0.00    +0.000 N 
ATOM     12  H   UNL     1       4.721   3.214  13.780  0.00  0.00    +0.000 HD
ATOM     13  H   UNL     1       6.131   3.943  13.192  0.00  0.00    +0.000 HD
ATOM     14  H   UNL     1       7.157   5.636  14.424  0.00  0.00    +0.000 HD
ENDROOT
BRANCH   8  15
ATOM     15  C   UNL     1       3.195   3.748  18.560  0.00  0.00    +0.000 C 
ATOM     16  O   UNL     1       2.284   4.388  19.495  0.00  0.00    +0.000 OA
ATOM     17  C   UNL     1       1.410   3.347  20.008  0.00  0.00    +0.000 C 
ATOM     18  C   UNL     1       1.939   2.002  19.480  0.00  0.00    +0.000 C 
ATOM     19  C   UNL     1       3.382   2.332  19.082  0.00  0.00    +0.000 C 
ATOM     20  F   UNL     1       4.170   2.346  20.193  0.00  0.00    +0.000 F 
ATOM     21 CL   UNL     1       4.073   1.187  17.920  0.00  0.00    +0.000 Cl
BRANCH  18  22
ATOM     22  O   UNL     1       1.116   1.583  18.369  0.00  0.00    +0.000 OA
ATOM     23  H   UNL     1       0.988   2.309  17.737  0.00  0.00    +0.000 HD
ENDBRANCH  18  22
BRANCH  17  24
ATOM     24  C   UNL     1       1.335   3.428  21.534  0.00  0.00    +0.000 C 
BRANCH  24  25
ATOM     25  O   UNL     1       1.706   2.205  22.151  0.00  0.00    +0.000 OA
ATOM     26  H   UNL     1       1.257   1.484  21.672  0.00  0.00    +0.000 HD
ENDBRANCH  24  25
ENDBRANCH  17  24
ENDBRANCH   8  15
TORSDOF 4
ENDMDL
MODEL 4
REMARK VINA RESULT:      -7.7      1.315      1.315
REMARK  Name = 
REMARK  4 active torsions:
REMARK  status: ('A' for Active; 'I' for Inactive)
REMARK    1  A    between atoms: N_8  and  C_9
REMARK    2  A    between atoms: C_11  and  C_12
REMARK    3  A    between atoms: C_12  and  O_13
REMARK    4  A    between atoms: C_14  and  O_15
REMARK                            x       y       z     vdW  Elec       q    Type
REMARK                         _______ _______ _______ _____ _____    ______ ____
ROOT
ATOM      1  N   UNL     1       8.315   5.683  19.986  0.00  0.00    +0.000 N 
ATOM      2  C   UNL     1       7.444   5.387  18.990  0.00  0.00    +0.000 A 
ATOM      3  N   UNL     1       6.255   4.928  19.279  0.00  0.00    +0.000 NA
ATOM      4  C   UNL     1       5.501   4.671  18.183  0.00  0.00    +0.000 A 
ATOM      5  C   UNL     1       5.832   4.835  16.859  0.00  0.00    +0.000 A 
ATOM      6  N   UNL     1       4.808   4.438  16.038  0.00  0.00    +0.000 NA
ATOM      7  C   UNL     1       3.864   4.022  16.862  0.00  0.00    +0.000 A 
ATOM      8  N   UNL     1       4.236   4.152  18.173  0.00  0.00    +0.000 N 
ATOM      9  C   UNL     1       7.153   5.343  16.554  0.00  0.00    +0.000 A 
ATOM     10  O   UNL     1       7.611   5.536  15.433  0.00  0.00    +0.000 OA
ATOM     11  N   UNL     1       7.893   5.603  17.702  0.00  0.00    +0.000 N 
ATOM     12  H   UNL     1       7.869   5.765  20.895  0.00  0.00    +0.000 HD
ATOM     13  H   UNL     1       9.005   6.403  19.814  0.00  0.00    +0.000 HD
ATOM     14  H   UNL     1       8.831   5.925  17.538  0.00  0.00    +0.000 HD
ENDROOT
BRANCH   8  15
ATOM     15  C   UNL     1       3.505   3.756  19.353  0.00  0.00    +0.000 C 
ATOM     16  O   UNL     1       2.950   2.422  19.185  0.00  0.00    +0.000 OA
ATOM     17  C   UNL     1       1.834   2.313  20.110  0.00  0.00    +0.000 C 
ATOM     18  C   UNL     1       1.615   3.704  20.730  0.00  0.00    +0.000 C 
ATOM     19  C   UNL     1       2.329   4.636  19.746  0.00  0.00    +0.000 C 
ATOM     20  F   UNL     1       1.532   4.857  18.665  0.00  0.00    +0.000 F 
ATOM     21 CL   UNL     1       2.766   6.203  20.448  0.00  0.00    +0.000 Cl
BRANCH  18  22
ATOM     22  O   UNL     1       2.188   3.717  22.056  0.00  0.00    +0.000 OA
ATOM     23  H   UNL     1       1.618   4.200  22.677  0.00  0.00    +0.000 HD
ENDBRANCH  18  22
BRANCH  17  24
ATOM     24  C   UNL     1       0.606   1.755  19.388  0.00  0.00    +0.000 C 
BRANCH  24  25
ATOM     25  O   UNL     1       0.763   1.774  17.978  0.00  0.00    +0.000 OA
ATOM     26  H   UNL     1       1.719   1.768  17.786  0.00  0.00    +0.000 HD
ENDBRANCH  24  25
ENDBRANCH  17  24
ENDBRANCH   8  15
TORSDOF 4
ENDMDL
MODEL 5
REMARK VINA RESULT:      -7.6      2.928      5.795
REMARK  Name = 
REMARK  4 active torsions:
REMARK  status: ('A' for Active; 'I' for Inactive)
REMARK    1  A    between atoms: N_8  and  C_9
REMARK    2  A    between atoms: C_11  and  C_12
REMARK    3  A    between atoms: C_12  and  O_13
REMARK    4  A    between atoms: C_14  and  O_15
REMARK                            x       y       z     vdW  Elec       q    Type
REMARK                         _______ _______ _______ _____ _____    ______ ____
ROOT
ATOM      1  N   UNL     1       1.764   7.228  20.951  0.00  0.00    +0.000 N 
ATOM      2  C   UNL     1       2.086   6.049  20.364  0.00  0.00    +0.000 A 
ATOM      3  N   UNL     1       3.066   5.997  19.500  0.00  0.00    +0.000 NA
ATOM      4  C   UNL     1       3.266   4.756  18.993  0.00  0.00    +0.000 A 
ATOM      5  C   UNL     1       2.583   3.597  19.276  0.00  0.00    +0.000 A 
ATOM      6  N   UNL     1       3.064   2.545  18.537  0.00  0.00    +0.000 NA
ATOM      7  C   UNL     1       4.026   3.070  17.800  0.00  0.00    +0.000 A 
ATOM      8  N   UNL     1       4.190   4.406  18.048  0.00  0.00    +0.000 N 
ATOM      9  C   UNL     1       1.500   3.670  20.233  0.00  0.00    +0.000 A 
ATOM     10  O   UNL     1       0.786   2.738  20.588  0.00  0.00    +0.000 OA
ATOM     11  N   UNL     1       1.332   4.955  20.737  0.00  0.00    +0.000 N 
ATOM     12  H   UNL     1       2.490   7.931  20.858  0.00  0.00    +0.000 HD
ATOM     13  H   UNL     1       1.351   7.200  21.874  0.00  0.00    +0.000 HD
ATOM     14  H   UNL     1       0.566   5.061  21.381  0.00  0.00    +0.000 HD
ENDROOT
BRANCH   8  15
ATOM     15  C   UNL     1       5.092   5.330  17.405  0.00  0.00    +0.000 C 
ATOM     16  O   UNL     1       5.012   5.198  15.959  0.00  0.00    +0.000 OA
ATOM     17  C   UNL     1       6.260   5.714  15.422  0.00  0.00    +0.000 C 
ATOM     18  C   UNL     1       7.186   6.009  16.614  0.00  0.00    +0.000 C 
ATOM     19  C   UNL     1       6.567   5.180  17.744  0.00  0.00    +0.000 C 
ATOM     20  F   UNL     1       6.943   3.878  17.615  0.00  0.00    +0.000 F 
ATOM     21 CL   UNL     1       7.026   5.738  19.362  0.00  0.00    +0.000 Cl
BRANCH  18  22
ATOM     22  O   UNL     1       7.176   7.431  16.870  0.00  0.00    +0.000 OA
ATOM     23  H   UNL     1       6.269   7.778  16.874  0.00  0.00    +0.000 HD
ENDBRANCH  18  22
BRANCH  17  24
ATOM     24  C   UNL     1       6.845   4.727  14.409  0.00  0.00    +0.000 C 
BRANCH  24  25
ATOM     25  O   UNL     1       6.283   3.432  14.544  0.00  0.00    +0.000 OA
ATOM     26  H   UNL     1       6.728   2.992  15.292  0.00  0.00    +0.000 HD
ENDBRANCH  24  25
ENDBRANCH  17  24
ENDBRANCH   8  15
TORSDOF 4
ENDMDL
MODEL 6
REMARK VINA RESULT:      -7.5      1.694      2.027
REMARK  Name = 
REMARK  4 active torsions:
REMARK  status: ('A' for Active; 'I' for Inactive)
REMARK    1  A    between atoms: N_8  and  C_9
REMARK    2  A    between atoms: C_11  and  C_12
REMARK    3  A    between atoms: C_12  and  O_13
REMARK    4  A    between atoms: C_14  and  O_15
REMARK                            x       y       z     vdW  Elec       q    Type
REMARK                         _______ _______ _______ _____ _____    ______ ____
ROOT
ATOM      1  N   UNL     1       8.560   5.200  20.524  0.00  0.00    +0.000 N 
ATOM      2  C   UNL     1       7.660   5.642  19.613  0.00  0.00    +0.000 A 
ATOM      3  N   UNL     1       6.430   5.202  19.644  0.00  0.00    +0.000 NA
ATOM      4  C   UNL     1       5.649   5.726  18.669  0.00  0.00    +0.000 A 
ATOM      5  C   UNL     1       5.993   6.631  17.693  0.00  0.00    +0.000 A 
ATOM      6  N   UNL     1       4.929   6.900  16.869  0.00  0.00    +0.000 NA
ATOM      7  C   UNL     1       3.949   6.149  17.337  0.00  0.00    +0.000 A 
ATOM      8  N   UNL     1       4.336   5.426  18.433  0.00  0.00    +0.000 N 
ATOM      9  C   UNL     1       7.359   7.109  17.669  0.00  0.00    +0.000 A 
ATOM     10  O   UNL     1       7.831   7.904  16.863  0.00  0.00    +0.000 OA
ATOM     11  N   UNL     1       8.125   6.557  18.689  0.00  0.00    +0.000 N 
ATOM     12  H   UNL     1       8.128   4.750  21.326  0.00  0.00    +0.000 HD
ATOM     13  H   UNL     1       9.323   5.817  20.776  0.00  0.00    +0.000 HD
ATOM     14  H   UNL     1       9.093   6.833  18.690  0.00  0.00    +0.000 HD
ENDROOT
BRANCH   8  15
ATOM     15  C   UNL     1       3.571   4.458  19.180  0.00  0.00    +0.000 C 
ATOM     16  O   UNL     1       4.421   3.762  20.133  0.00  0.00    +0.000 OA
ATOM     17  C   UNL     1       3.766   2.500  20.435  0.00  0.00    +0.000 C 
ATOM     18  C   UNL     1       2.560   2.371  19.489  0.00  0.00    +0.000 C 
ATOM     19  C   UNL     1       2.892   3.364  18.371  0.00  0.00    +0.000 C 
ATOM     20  F   UNL     1       3.785   2.801  17.510  0.00  0.00    +0.000 F 
ATOM     21 CL   UNL     1       1.474   3.886  17.445  0.00  0.00    +0.000 Cl
BRANCH  18  22
ATOM     22  O   UNL     1       1.359   2.706  20.219  0.00  0.00    +0.000 OA
ATOM     23  H   UNL     1       1.513   2.672  21.177  0.00  0.00    +0.000 HD
ENDBRANCH  18  22
BRANCH  17  24
ATOM     24  C   UNL     1       4.768   1.348  20.325  0.00  0.00    +0.000 C 
BRANCH  24  25
ATOM     25  O   UNL     1       5.588   1.245  21.478  0.00  0.00    +0.000 OA
ATOM     26  H   UNL     1       5.725   2.145  21.826  0.00  0.00    +0.000 HD
ENDBRANCH  24  25
ENDBRANCH  17  24
ENDBRANCH   8  15
TORSDOF 4
ENDMDL
MODEL 7
REMARK VINA RESULT:      -7.4      1.858      2.212
REMARK  Name = 
REMARK  4 active torsions:
REMARK  status: ('A' for Active; 'I' for Inactive)
REMARK    1  A    between atoms: N_8  and  C_9
REMARK    2  A    between atoms: C_11  and  C_12
REMARK    3  A    between atoms: C_12  and  O_13
REMARK    4  A    between atoms: C_14  and  O_15
REMARK                            x       y       z     vdW  Elec       q    Type
REMARK                         _______ _______ _______ _____ _____    ______ ____
ROOT
ATOM      1  N   UNL     1       8.636   5.224  20.318  0.00  0.00    +0.000 N 
ATOM      2  C   UNL     1       7.734   5.125  19.311  0.00  0.00    +0.000 A 
ATOM      3  N   UNL     1       6.469   5.356  19.544  0.00  0.00    +0.000 NA
ATOM      4  C   UNL     1       5.688   5.212  18.446  0.00  0.00    +0.000 A 
ATOM      5  C   UNL     1       6.063   4.867  17.170  0.00  0.00    +0.000 A 
ATOM      6  N   UNL     1       4.977   4.797  16.335  0.00  0.00    +0.000 NA
ATOM      7  C   UNL     1       3.945   5.086  17.107  0.00  0.00    +0.000 A 
ATOM      8  N   UNL     1       4.329   5.353  18.394  0.00  0.00    +0.000 N 
ATOM      9  C   UNL     1       7.467   4.613  16.926  0.00  0.00    +0.000 A 
ATOM     10  O   UNL     1       7.966   4.285  15.855  0.00  0.00    +0.000 OA
ATOM     11  N   UNL     1       8.237   4.779  18.073  0.00  0.00    +0.000 N 
ATOM     12  H   UNL     1       8.280   5.727  21.125  0.00  0.00    +0.000 HD
ATOM     13  H   UNL     1       9.587   5.475  20.079  0.00  0.00    +0.000 HD
ATOM     14  H   UNL     1       9.216   4.578  17.959  0.00  0.00    +0.000 HD
ENDROOT
BRANCH   8  15
ATOM     15  C   UNL     1       3.493   5.649  19.532  0.00  0.00    +0.000 C 
ATOM     16  O   UNL     1       3.315   4.464  20.356  0.00  0.00    +0.000 OA
ATOM     17  C   UNL     1       2.095   4.664  21.120  0.00  0.00    +0.000 C 
ATOM     18  C   UNL     1       1.433   5.951  20.599  0.00  0.00    +0.000 C 
ATOM     19  C   UNL     1       2.088   6.144  19.227  0.00  0.00    +0.000 C 
ATOM     20  F   UNL     1       1.494   5.322  18.318  0.00  0.00    +0.000 F 
ATOM     21 CL   UNL     1       1.992   7.807  18.626  0.00  0.00    +0.000 Cl
BRANCH  18  22
ATOM     22  O   UNL     1       1.710   7.024  21.525  0.00  0.00    +0.000 OA
ATOM     23  H   UNL     1       0.887   7.413  21.864  0.00  0.00    +0.000 HD
ENDBRANCH  18  22
BRANCH  17  24
ATOM     24  C   UNL     1       1.204   3.424  21.023  0.00  0.00    +0.000 C 
BRANCH  24  25
ATOM     25  O   UNL     1       1.331   2.587  22.161  0.00  0.00    +0.000 OA
ATOM     26  H   UNL     1       1.411   3.162  22.944  0.00  0.00    +0.000 HD
ENDBRANCH  24  25
ENDBRANCH  17  24
ENDBRANCH   8  15
TORSDOF 4
ENDMDL
MODEL 8
REMARK VINA RESULT:      -7.4      2.773      5.303
REMARK  Name = 
REMARK  4 active torsions:
REMARK  status: ('A' for Active; 'I' for Inactive)
REMARK    1  A    between atoms: N_8  and  C_9
REMARK    2  A    between atoms: C_11  and  C_12
REMARK    3  A    between atoms: C_12  and  O_13
REMARK    4  A    between atoms: C_14  and  O_15
REMARK                            x       y       z     vdW  Elec       q    Type
REMARK                         _______ _______ _______ _____ _____    ______ ____
ROOT
ATOM      1  N   UNL     1       5.473   1.443  20.613  0.00  0.00    +0.000 N 
ATOM      2  C   UNL     1       4.369   2.205  20.416  0.00  0.00    +0.000 A 
ATOM      3  N   UNL     1       4.316   3.027  19.400  0.00  0.00    +0.000 NA
ATOM      4  C   UNL     1       3.158   3.725  19.337  0.00  0.00    +0.000 A 
ATOM      5  C   UNL     1       2.077   3.667  20.185  0.00  0.00    +0.000 A 
ATOM      6  N   UNL     1       1.099   4.551  19.804  0.00  0.00    +0.000 NA
ATOM      7  C   UNL     1       1.593   5.152  18.737  0.00  0.00    +0.000 A 
ATOM      8  N   UNL     1       2.835   4.678  18.411  0.00  0.00    +0.000 N 
ATOM      9  C   UNL     1       2.149   2.754  21.306  0.00  0.00    +0.000 A 
ATOM     10  O   UNL     1       1.284   2.589  22.159  0.00  0.00    +0.000 OA
ATOM     11  N   UNL     1       3.348   2.050  21.332  0.00  0.00    +0.000 N 
ATOM     12  H   UNL     1       6.071   1.389  19.795  0.00  0.00    +0.000 HD
ATOM     13  H   UNL     1       5.357   0.554  21.083  0.00  0.00    +0.000 HD
ATOM     14  H   UNL     1       3.457   1.428  22.115  0.00  0.00    +0.000 HD
ENDROOT
BRANCH   8  15
ATOM     15  C   UNL     1       3.712   5.123  17.355  0.00  0.00    +0.000 C 
ATOM     16  O   UNL     1       4.730   4.121  17.083  0.00  0.00    +0.000 OA
ATOM     17  C   UNL     1       5.841   4.814  16.452  0.00  0.00    +0.000 C 
ATOM     18  C   UNL     1       5.534   6.320  16.508  0.00  0.00    +0.000 C 
ATOM     19  C   UNL     1       4.474   6.414  17.610  0.00  0.00    +0.000 C 
ATOM     20  F   UNL     1       5.077   6.365  18.830  0.00  0.00    +0.000 F 
ATOM     21 CL   UNL     1       3.498   7.891  17.526  0.00  0.00    +0.000 Cl
BRANCH  18  22
ATOM     22  O   UNL     1       5.059   6.746  15.212  0.00  0.00    +0.000 OA
ATOM     23  H   UNL     1       4.412   7.466  15.298  0.00  0.00    +0.000 HD
ENDBRANCH  18  22
BRANCH  17  24
ATOM     24  C   UNL     1       7.157   4.422  17.127  0.00  0.00    +0.000 C 
BRANCH  24  25
ATOM     25  O   UNL     1       6.974   4.082  18.492  0.00  0.00    +0.000 OA
ATOM     26  H   UNL     1       6.517   3.222  18.525  0.00  0.00    +0.000 HD
ENDBRANCH  24  25
ENDBRANCH  17  24
ENDBRANCH   8  15
TORSDOF 4
ENDMDL
MODEL 9
REMARK VINA RESULT:      -7.4      2.773      5.670
REMARK  Name = 
REMARK  4 active torsions:
REMARK  status: ('A' for Active; 'I' for Inactive)
REMARK    1  A    between atoms: N_8  and  C_9
REMARK    2  A    between atoms: C_11  and  C_12
REMARK    3  A    between atoms: C_12  and  O_13
REMARK    4  A    between atoms: C_14  and  O_15
REMARK                            x       y       z     vdW  Elec       q    Type
REMARK                         _______ _______ _______ _____ _____    ______ ____
ROOT
ATOM      1  N   UNL     1       5.203   1.271  21.253  0.00  0.00    +0.000 N 
ATOM      2  C   UNL     1       4.384   2.116  20.581  0.00  0.00    +0.000 A 
ATOM      3  N   UNL     1       4.862   2.859  19.617  0.00  0.00    +0.000 NA
ATOM      4  C   UNL     1       3.929   3.657  19.044  0.00  0.00    +0.000 A 
ATOM      5  C   UNL     1       2.593   3.766  19.349  0.00  0.00    +0.000 A 
ATOM      6  N   UNL     1       1.979   4.707  18.562  0.00  0.00    +0.000 NA
ATOM      7  C   UNL     1       2.944   5.175  17.792  0.00  0.00    +0.000 A 
ATOM      8  N   UNL     1       4.142   4.563  18.043  0.00  0.00    +0.000 N 
ATOM      9  C   UNL     1       2.078   2.938  20.419  0.00  0.00    +0.000 A 
ATOM     10  O   UNL     1       0.920   2.920  20.824  0.00  0.00    +0.000 OA
ATOM     11  N   UNL     1       3.061   2.127  20.975  0.00  0.00    +0.000 N 
ATOM     12  H   UNL     1       6.080   1.098  20.771  0.00  0.00    +0.000 HD
ATOM     13  H   UNL     1       4.796   0.435  21.653  0.00  0.00    +0.000 HD
ATOM     14  H   UNL     1       2.756   1.560  21.748  0.00  0.00    +0.000 HD
ENDROOT
BRANCH   8  15
ATOM     15  C   UNL     1       5.429   4.841  17.451  0.00  0.00    +0.000 C 
ATOM     16  O   UNL     1       6.497   4.562  18.398  0.00  0.00    +0.000 OA
ATOM     17  C   UNL     1       7.648   5.340  17.973  0.00  0.00    +0.000 C 
ATOM     18  C   UNL     1       7.186   6.250  16.821  0.00  0.00    +0.000 C 
ATOM     19  C   UNL     1       5.664   6.270  16.987  0.00  0.00    +0.000 C 
ATOM     20  F   UNL     1       5.323   7.141  17.976  0.00  0.00    +0.000 F 
ATOM     21 CL   UNL     1       4.798   6.732  15.511  0.00  0.00    +0.000 Cl
BRANCH  18  22
ATOM     22  O   UNL     1       7.623   5.673  15.570  0.00  0.00    +0.000 OA
ATOM     23  H   UNL     1       7.780   6.363  14.905  0.00  0.00    +0.000 HD
ENDBRANCH  18  22
BRANCH  17  24
ATOM     24  C   UNL     1       8.239   6.098  19.164  0.00  0.00    +0.000 C 
BRANCH  24  25
ATOM     25  O   UNL     1       7.879   5.506  20.402  0.00  0.00    +0.000 OA
ATOM     26  H   UNL     1       7.101   5.984  20.744  0.00  0.00    +0.000 HD
ENDBRANCH  24  25
ENDBRANCH  17  24
ENDBRANCH   8  15
TORSDOF 4
ENDMDL
