MODEL 1
REMARK VINA RESULT:      -8.1      0.000      0.000
REMARK  Name = 
REMARK  4 active torsions:
REMARK  status: ('A' for Active; 'I' for Inactive)
REMARK    1  A    between atoms: C_2  and  C_3
REMARK    2  A    between atoms: C_13  and  N_14
REMARK    3  A    between atoms: N_14  and  C_15
REMARK    4  A    between atoms: C_15  and  C_16
REMARK                            x       y       z     vdW  Elec       q    Type
REMARK                         _______ _______ _______ _____ _____    ______ ____
ROOT
ATOM      1  C   UNL     1       2.846   6.890  18.325  0.00  0.00    +0.000 A 
ATOM      2  C   UNL     1       2.546   7.981  17.534  0.00  0.00    +0.000 A 
ATOM      3  N   UNL     1       1.794   9.037  17.903  0.00  0.00    +0.000 NA
ATOM      4  C   UNL     1       1.377   9.107  19.165  0.00  0.00    +0.000 A 
ATOM      5  C   UNL     1       0.583  10.210  19.469  0.00  0.00    +0.000 A 
ATOM      6  C   UNL     1       0.112  10.457  20.754  0.00  0.00    +0.000 A 
ATOM      7  C   UNL     1       0.492   9.600  21.757  0.00  0.00    +0.000 A 
ATOM      8  F   UNL     1       0.086   9.819  23.015  0.00  0.00    +0.000 F 
ATOM      9  C   UNL     1       1.297   8.502  21.477  0.00  0.00    +0.000 A 
ATOM     10  C   UNL     1       1.725   8.152  20.154  0.00  0.00    +0.000 A 
ATOM     11  C   UNL     1       2.479   6.975  19.705  0.00  0.00    +0.000 A 
ENDROOT
BRANCH   1  13
ATOM     12  O   UNL     1       2.974   4.747  17.371  0.00  0.00    +0.000 OA
ATOM     13  C   UNL     1       3.609   5.750  17.703  0.00  0.00    +0.000 C 
ATOM     14  N   UNL     1       5.007   5.804  17.538  0.00  0.00    +0.000 N 
ATOM     15  C   UNL     1       5.713   4.676  16.940  0.00  0.00    +0.000 C 
ATOM     16  C   UNL     1       7.191   4.954  17.189  0.00  0.00    +0.000 C 
ATOM     17  C   UNL     1       7.267   6.471  17.142  0.00  0.00    +0.000 C 
ATOM     18  C   UNL     1       5.944   6.907  17.764  0.00  0.00    +0.000 C 
ENDBRANCH   1  13
BRANCH  11  19
ATOM     19  N   UNL     1       2.802   5.873  20.550  0.00  0.00    +0.000 N 
ATOM     20  H   UNL     1       3.367   6.193  21.345  0.00  0.00    +0.000 HD
BRANCH  19  21
ATOM     21  C   UNL     1       1.823   4.859  20.898  0.00  0.00    +0.000 C 
BRANCH  21  22
ATOM     22  C   UNL     1       1.748   3.562  20.180  0.00  0.00    +0.000 A 
ATOM     23  C   UNL     1       2.592   2.502  19.954  0.00  0.00    +0.000 A 
ATOM     24  C   UNL     1       1.934   1.662  19.016  0.00  0.00    +0.000 A 
ATOM     25  C   UNL     1       0.727   2.256  18.741  0.00  0.00    +0.000 A 
ATOM     26  O   UNL     1       0.598   3.399  19.454  0.00  0.00    +0.000 OA
ENDBRANCH  21  22
ENDBRANCH  19  21
ENDBRANCH  11  19
TORSDOF 4
ENDMDL
MODEL 2
REMARK VINA RESULT:      -7.8      3.809      6.848
REMARK  Name = 
REMARK  4 active torsions:
REMARK  status: ('A' for Active; 'I' for Inactive)
REMARK    1  A    between atoms: C_2  and  C_3
REMARK    2  A    between atoms: C_13  and  N_14
REMARK    3  A    between atoms: N_14  and  C_15
REMARK    4  A    between atoms: C_15  and  C_16
REMARK                            x       y       z     vdW  Elec       q    Type
REMARK                         _______ _______ _______ _____ _____    ______ ____
ROOT
ATOM      1  C   UNL     1       5.643   5.033  17.037  0.00  0.00    +0.000 A 
ATOM      2  C   UNL     1       6.786   5.717  16.673  0.00  0.00    +0.000 A 
ATOM      3  N   UNL     1       7.425   5.607  15.491  0.00  0.00    +0.000 NA
ATOM      4  C   UNL     1       6.872   4.860  14.540  0.00  0.00    +0.000 A 
ATOM      5  C   UNL     1       7.598   4.770  13.355  0.00  0.00    +0.000 A 
ATOM      6  C   UNL     1       7.133   4.073  12.246  0.00  0.00    +0.000 A 
ATOM      7  C   UNL     1       5.888   3.497  12.320  0.00  0.00    +0.000 A 
ATOM      8  F   UNL     1       5.388   2.842  11.264  0.00  0.00    +0.000 F 
ATOM      9  C   UNL     1       5.140   3.589  13.488  0.00  0.00    +0.000 A 
ATOM     10  C   UNL     1       5.619   4.212  14.687  0.00  0.00    +0.000 A 
ATOM     11  C   UNL     1       4.985   4.285  16.010  0.00  0.00    +0.000 A 
ENDROOT
BRANCH   1  13
ATOM     12  O   UNL     1       5.740   4.619  19.348  0.00  0.00    +0.000 OA
ATOM     13  C   UNL     1       5.134   5.199  18.445  0.00  0.00    +0.000 C 
ATOM     14  N   UNL     1       3.981   5.958  18.725  0.00  0.00    +0.000 N 
ATOM     15  C   UNL     1       3.513   6.089  20.100  0.00  0.00    +0.000 C 
ATOM     16  C   UNL     1       2.123   6.706  19.991  0.00  0.00    +0.000 C 
ATOM     17  C   UNL     1       2.238   7.592  18.761  0.00  0.00    +0.000 C 
ATOM     18  C   UNL     1       3.167   6.801  17.846  0.00  0.00    +0.000 C 
ENDBRANCH   1  13
BRANCH  11  19
ATOM     19  N   UNL     1       3.787   3.592  16.352  0.00  0.00    +0.000 N 
ATOM     20  H   UNL     1       3.297   3.294  15.501  0.00  0.00    +0.000 HD
BRANCH  19  21
ATOM     21  C   UNL     1       3.745   2.615  17.426  0.00  0.00    +0.000 C 
BRANCH  21  22
ATOM     22  C   UNL     1       2.696   2.647  18.474  0.00  0.00    +0.000 A 
ATOM     23  C   UNL     1       1.356   2.945  18.531  0.00  0.00    +0.000 A 
ATOM     24  C   UNL     1       1.006   2.950  19.908  0.00  0.00    +0.000 A 
ATOM     25  C   UNL     1       2.151   2.642  20.601  0.00  0.00    +0.000 A 
ATOM     26  O   UNL     1       3.176   2.440  19.741  0.00  0.00    +0.000 OA
ENDBRANCH  21  22
ENDBRANCH  19  21
ENDBRANCH  11  19
TORSDOF 4
ENDMDL
MODEL 3
REMARK VINA RESULT:      -7.4      3.335      6.356
REMARK  Name = 
REMARK  4 active torsions:
REMARK  status: ('A' for Active; 'I' for Inactive)
REMARK    1  A    between atoms: C_2  and  C_3
REMARK    2  A    between atoms: C_13  and  N_14
REMARK    3  A    between atoms: N_14  and  C_15
REMARK    4  A    between atoms: C_15  and  C_16
REMARK                            x       y       z     vdW  Elec       q    Type
REMARK                         _______ _______ _______ _____ _____    ______ ____
ROOT
ATOM      1  C   UNL     1       4.478   6.070  17.754  0.00  0.00    +0.000 A 
ATOM      2  C   UNL     1       5.571   6.869  17.483  0.00  0.00    +0.000 A 
ATOM      3  N   UNL     1       6.484   6.651  16.515  0.00  0.00    +0.000 NA
ATOM      4  C   UNL     1       6.282   5.643  15.670  0.00  0.00    +0.000 A 
ATOM      5  C   UNL     1       7.277   5.460  14.713  0.00  0.00    +0.000 A 
ATOM      6  C   UNL     1       7.190   4.486  13.725  0.00  0.00    +0.000 A 
ATOM      7  C   UNL     1       6.054   3.716  13.674  0.00  0.00    +0.000 A 
ATOM      8  F   UNL     1       5.916   2.787  12.719  0.00  0.00    +0.000 F 
ATOM      9  C   UNL     1       5.042   3.893  14.611  0.00  0.00    +0.000 A 
ATOM     10  C   UNL     1       5.130   4.816  15.705  0.00  0.00    +0.000 A 
ATOM     11  C   UNL     1       4.194   5.027  16.816  0.00  0.00    +0.000 A 
ENDROOT
BRANCH   1  13
ATOM     12  O   UNL     1       3.741   5.705  19.955  0.00  0.00    +0.000 OA
ATOM     13  C   UNL     1       3.629   6.410  18.950  0.00  0.00    +0.000 C 
ATOM     14  N   UNL     1       2.705   7.472  18.917  0.00  0.00    +0.000 N 
ATOM     15  C   UNL     1       1.892   7.767  20.092  0.00  0.00    +0.000 C 
ATOM     16  C   UNL     1       0.833   8.751  19.608  0.00  0.00    +0.000 C 
ATOM     17  C   UNL     1       1.562   9.535  18.530  0.00  0.00    +0.000 C 
ATOM     18  C   UNL     1       2.469   8.489  17.889  0.00  0.00    +0.000 C 
ENDBRANCH   1  13
BRANCH  11  19
ATOM     19  N   UNL     1       3.055   4.205  17.058  0.00  0.00    +0.000 N 
ATOM     20  H   UNL     1       2.498   4.113  16.200  0.00  0.00    +0.000 HD
BRANCH  19  21
ATOM     21  C   UNL     1       3.142   2.981  17.834  0.00  0.00    +0.000 C 
BRANCH  21  22
ATOM     22  C   UNL     1       2.465   2.834  19.146  0.00  0.00    +0.000 A 
ATOM     23  C   UNL     1       1.196   3.032  19.637  0.00  0.00    +0.000 A 
ATOM     24  C   UNL     1       1.285   2.874  21.046  0.00  0.00    +0.000 A 
ATOM     25  C   UNL     1       2.598   2.577  21.322  0.00  0.00    +0.000 A 
ATOM     26  O   UNL     1       3.316   2.534  20.176  0.00  0.00    +0.000 OA
ENDBRANCH  21  22
ENDBRANCH  19  21
ENDBRANCH  11  19
TORSDOF 4
ENDMDL
MODEL 4
REMARK VINA RESULT:      -7.3      1.114      1.237
REMARK  Name = 
REMARK  4 active torsions:
REMARK  status: ('A' for Active; 'I' for Inactive)
REMARK    1  A    between atoms: C_2  and  C_3
REMARK    2  A    between atoms: C_13  and  N_14
REMARK    3  A    between atoms: N_14  and  C_15
REMARK    4  A    between atoms: C_15  and  C_16
REMARK                            x       y       z     vdW  Elec       q    Type
REMARK                         _______ _______ _______ _____ _____    ______ ____
ROOT
ATOM      1  C   UNL     1       2.784   7.245  18.253  0.00  0.00    +0.000 A 
ATOM      2  C   UNL     1       2.629   8.287  17.362  0.00  0.00    +0.000 A 
ATOM      3  N   UNL     1       1.903   9.404  17.575  0.00  0.00    +0.000 NA
ATOM      4  C   UNL     1       1.364   9.587  18.778  0.00  0.00    +0.000 A 
ATOM      5  C   UNL     1       0.606  10.747  18.920  0.00  0.00    +0.000 A 
ATOM      6  C   UNL     1       0.021  11.112  20.127  0.00  0.00    +0.000 A 
ATOM      7  C   UNL     1       0.246  10.314  21.221  0.00  0.00    +0.000 A 
ATOM      8  F   UNL     1      -0.274  10.644  22.411  0.00  0.00    +0.000 F 
ATOM      9  C   UNL     1       1.012   9.160  21.105  0.00  0.00    +0.000 A 
ATOM     10  C   UNL     1       1.553   8.692  19.862  0.00  0.00    +0.000 A 
ATOM     11  C   UNL     1       2.281   7.449  19.577  0.00  0.00    +0.000 A 
ENDROOT
BRANCH   1  13
ATOM     12  O   UNL     1       2.898   4.995  17.587  0.00  0.00    +0.000 OA
ATOM     13  C   UNL     1       3.541   6.026  17.796  0.00  0.00    +0.000 C 
ATOM     14  N   UNL     1       4.941   6.043  17.647  0.00  0.00    +0.000 N 
ATOM     15  C   UNL     1       5.641   4.840  17.211  0.00  0.00    +0.000 C 
ATOM     16  C   UNL     1       7.119   5.132  17.445  0.00  0.00    +0.000 C 
ATOM     17  C   UNL     1       7.215   6.629  17.202  0.00  0.00    +0.000 C 
ATOM     18  C   UNL     1       5.889   7.156  17.742  0.00  0.00    +0.000 C 
ENDBRANCH   1  13
BRANCH  11  19
ATOM     19  N   UNL     1       2.453   6.399  20.526  0.00  0.00    +0.000 N 
ATOM     20  H   UNL     1       2.801   6.779  21.413  0.00  0.00    +0.000 HD
BRANCH  19  21
ATOM     21  C   UNL     1       1.472   5.341  20.686  0.00  0.00    +0.000 C 
BRANCH  21  22
ATOM     22  C   UNL     1       1.870   3.934  20.940  0.00  0.00    +0.000 A 
ATOM     23  C   UNL     1       1.369   2.874  21.656  0.00  0.00    +0.000 A 
ATOM     24  C   UNL     1       2.363   1.860  21.615  0.00  0.00    +0.000 A 
ATOM     25  C   UNL     1       3.399   2.361  20.865  0.00  0.00    +0.000 A 
ATOM     26  O   UNL     1       3.102   3.610  20.438  0.00  0.00    +0.000 OA
ENDBRANCH  21  22
ENDBRANCH  19  21
ENDBRANCH  11  19
TORSDOF 4
ENDMDL
MODEL 5
REMARK VINA RESULT:      -7.2      1.169      1.271
REMARK  Name = 
REMARK  4 active torsions:
REMARK  status: ('A' for Active; 'I' for Inactive)
REMARK    1  A    between atoms: C_2  and  C_3
REMARK    2  A    between atoms: C_13  and  N_14
REMARK    3  A    between atoms: N_14  and  C_15
REMARK    4  A    between atoms: C_15  and  C_16
REMARK                            x       y       z     vdW  Elec       q    Type
REMARK                         _______ _______ _______ _____ _____    ______ ____
ROOT
ATOM      1  C   UNL     1       3.358   6.841  18.499  0.00  0.00    +0.000 A 
ATOM      2  C   UNL     1       3.376   7.804  17.509  0.00  0.00    +0.000 A 
ATOM      3  N   UNL     1       2.543   8.861  17.425  0.00  0.00    +0.000 NA
ATOM      4  C   UNL     1       1.687   9.073  18.422  0.00  0.00    +0.000 A 
ATOM      5  C   UNL     1       0.840  10.166  18.257  0.00  0.00    +0.000 A 
ATOM      6  C   UNL     1      -0.074  10.554  19.230  0.00  0.00    +0.000 A 
ATOM      7  C   UNL     1      -0.096   9.854  20.412  0.00  0.00    +0.000 A 
ATOM      8  F   UNL     1      -0.939  10.214  21.389  0.00  0.00    +0.000 F 
ATOM      9  C   UNL     1       0.753   8.770  20.603  0.00  0.00    +0.000 A 
ATOM     10  C   UNL     1       1.641   8.273  19.593  0.00  0.00    +0.000 A 
ATOM     11  C   UNL     1       2.505   7.086  19.620  0.00  0.00    +0.000 A 
ENDROOT
BRANCH   1  13
ATOM     12  O   UNL     1       4.407   4.911  19.331  0.00  0.00    +0.000 OA
ATOM     13  C   UNL     1       4.295   5.670  18.366  0.00  0.00    +0.000 C 
ATOM     14  N   UNL     1       5.052   5.463  17.196  0.00  0.00    +0.000 N 
ATOM     15  C   UNL     1       5.956   4.321  17.108  0.00  0.00    +0.000 C 
ATOM     16  C   UNL     1       6.801   4.577  15.864  0.00  0.00    +0.000 C 
ATOM     17  C   UNL     1       5.841   5.316  14.946  0.00  0.00    +0.000 C 
ATOM     18  C   UNL     1       5.015   6.161  15.909  0.00  0.00    +0.000 C 
ENDBRANCH   1  13
BRANCH  11  19
ATOM     19  N   UNL     1       2.489   6.121  20.669  0.00  0.00    +0.000 N 
ATOM     20  H   UNL     1       2.794   6.552  21.550  0.00  0.00    +0.000 HD
BRANCH  19  21
ATOM     21  C   UNL     1       1.398   5.176  20.827  0.00  0.00    +0.000 C 
BRANCH  21  22
ATOM     22  C   UNL     1       1.397   3.858  20.146  0.00  0.00    +0.000 A 
ATOM     23  C   UNL     1       1.633   2.553  20.507  0.00  0.00    +0.000 A 
ATOM     24  C   UNL     1       1.643   1.802  19.301  0.00  0.00    +0.000 A 
ATOM     25  C   UNL     1       1.400   2.693  18.285  0.00  0.00    +0.000 A 
ATOM     26  O   UNL     1       1.232   3.938  18.789  0.00  0.00    +0.000 OA
ENDBRANCH  21  22
ENDBRANCH  19  21
ENDBRANCH  11  19
TORSDOF 4
ENDMDL
MODEL 6
REMARK VINA RESULT:      -7.1      2.690      3.840
REMARK  Name = 
REMARK  4 active torsions:
REMARK  status: ('A' for Active; 'I' for Inactive)
REMARK    1  A    between atoms: C_2  and  C_3
REMARK    2  A    between atoms: C_13  and  N_14
REMARK    3  A    between atoms: N_14  and  C_15
REMARK    4  A    between atoms: C_15  and  C_16
REMARK                            x       y       z     vdW  Elec       q    Type
REMARK                         _______ _______ _______ _____ _____    ______ ____
ROOT
ATOM      1  C   UNL     1       5.396   5.523  16.252  0.00  0.00    +0.000 A 
ATOM      2  C   UNL     1       5.140   6.816  15.840  0.00  0.00    +0.000 A 
ATOM      3  N   UNL     1       4.241   7.654  16.394  0.00  0.00    +0.000 NA
ATOM      4  C   UNL     1       3.607   7.263  17.497  0.00  0.00    +0.000 A 
ATOM      5  C   UNL     1       2.674   8.167  18.000  0.00  0.00    +0.000 A 
ATOM      6  C   UNL     1       1.967   7.933  19.173  0.00  0.00    +0.000 A 
ATOM      7  C   UNL     1       2.243   6.786  19.877  0.00  0.00    +0.000 A 
ATOM      8  F   UNL     1       1.607   6.535  21.029  0.00  0.00    +0.000 F 
ATOM      9  C   UNL     1       3.182   5.878  19.400  0.00  0.00    +0.000 A 
ATOM     10  C   UNL     1       3.863   6.029  18.147  0.00  0.00    +0.000 A 
ATOM     11  C   UNL     1       4.788   5.105  17.478  0.00  0.00    +0.000 A 
ENDROOT
BRANCH   1  13
ATOM     12  O   UNL     1       7.465   4.459  15.924  0.00  0.00    +0.000 OA
ATOM     13  C   UNL     1       6.356   4.696  15.439  0.00  0.00    +0.000 C 
ATOM     14  N   UNL     1       6.023   4.240  14.149  0.00  0.00    +0.000 N 
ATOM     15  C   UNL     1       6.984   3.449  13.387  0.00  0.00    +0.000 C 
ATOM     16  C   UNL     1       6.418   3.389  11.972  0.00  0.00    +0.000 C 
ATOM     17  C   UNL     1       4.916   3.402  12.204  0.00  0.00    +0.000 C 
ATOM     18  C   UNL     1       4.757   4.314  13.417  0.00  0.00    +0.000 C 
ENDBRANCH   1  13
BRANCH  11  19
ATOM     19  N   UNL     1       5.059   3.785  17.941  0.00  0.00    +0.000 N 
ATOM     20  H   UNL     1       5.614   3.820  18.804  0.00  0.00    +0.000 HD
BRANCH  19  21
ATOM     21  C   UNL     1       4.043   2.747  17.940  0.00  0.00    +0.000 C 
BRANCH  21  22
ATOM     22  C   UNL     1       3.085   2.587  19.060  0.00  0.00    +0.000 A 
ATOM     23  C   UNL     1       1.720   2.504  19.196  0.00  0.00    +0.000 A 
ATOM     24  C   UNL     1       1.455   2.544  20.591  0.00  0.00    +0.000 A 
ATOM     25  C   UNL     1       2.674   2.636  21.217  0.00  0.00    +0.000 A 
ATOM     26  O   UNL     1       3.668   2.644  20.299  0.00  0.00    +0.000 OA
ENDBRANCH  21  22
ENDBRANCH  19  21
ENDBRANCH  11  19
TORSDOF 4
ENDMDL
MODEL 7
REMARK VINA RESULT:      -7.0      1.721      2.385
REMARK  Name = 
REMARK  4 active torsions:
REMARK  status: ('A' for Active; 'I' for Inactive)
REMARK    1  A    between atoms: C_2  and  C_3
REMARK    2  A    between atoms: C_13  and  N_14
REMARK    3  A    between atoms: N_14  and  C_15
REMARK    4  A    between atoms: C_15  and  C_16
REMARK                            x       y       z     vdW  Elec       q    Type
REMARK                         _______ _______ _______ _____ _____    ______ ____
ROOT
ATOM      1  C   UNL     1       2.718   7.536  18.388  0.00  0.00    +0.000 A 
ATOM      2  C   UNL     1       2.494   8.533  17.459  0.00  0.00    +0.000 A 
ATOM      3  N   UNL     1       1.616   9.548  17.591  0.00  0.00    +0.000 NA
ATOM      4  C   UNL     1       0.972   9.681  18.749  0.00  0.00    +0.000 A 
ATOM      5  C   UNL     1       0.062  10.734  18.806  0.00  0.00    +0.000 A 
ATOM      6  C   UNL     1      -0.650  11.041  19.959  0.00  0.00    +0.000 A 
ATOM      7  C   UNL     1      -0.402  10.300  21.089  0.00  0.00    +0.000 A 
ATOM      8  F   UNL     1      -1.044  10.582  22.231  0.00  0.00    +0.000 F 
ATOM      9  C   UNL     1       0.514   9.255  21.057  0.00  0.00    +0.000 A 
ATOM     10  C   UNL     1       1.199   8.840  19.868  0.00  0.00    +0.000 A 
ATOM     11  C   UNL     1       2.101   7.698  19.668  0.00  0.00    +0.000 A 
ENDROOT
BRANCH   1  13
ATOM     12  O   UNL     1       4.866   6.667  17.997  0.00  0.00    +0.000 OA
ATOM     13  C   UNL     1       3.658   6.420  18.017  0.00  0.00    +0.000 C 
ATOM     14  N   UNL     1       3.180   5.143  17.665  0.00  0.00    +0.000 N 
ATOM     15  C   UNL     1       4.121   4.088  17.302  0.00  0.00    +0.000 C 
ATOM     16  C   UNL     1       3.263   2.975  16.711  0.00  0.00    +0.000 C 
ATOM     17  C   UNL     1       1.964   3.093  17.492  0.00  0.00    +0.000 C 
ATOM     18  C   UNL     1       1.822   4.596  17.709  0.00  0.00    +0.000 C 
ENDBRANCH   1  13
BRANCH  11  19
ATOM     19  N   UNL     1       2.339   6.697  20.655  0.00  0.00    +0.000 N 
ATOM     20  H   UNL     1       2.722   7.125  21.506  0.00  0.00    +0.000 HD
BRANCH  19  21
ATOM     21  C   UNL     1       1.389   5.630  20.912  0.00  0.00    +0.000 C 
BRANCH  21  22
ATOM     22  C   UNL     1       1.812   4.212  21.018  0.00  0.00    +0.000 A 
ATOM     23  C   UNL     1       1.252   3.038  21.462  0.00  0.00    +0.000 A 
ATOM     24  C   UNL     1       2.292   2.070  21.448  0.00  0.00    +0.000 A 
ATOM     25  C   UNL     1       3.414   2.711  20.985  0.00  0.00    +0.000 A 
ATOM     26  O   UNL     1       3.130   4.004  20.705  0.00  0.00    +0.000 OA
ENDBRANCH  21  22
ENDBRANCH  19  21
ENDBRANCH  11  19
TORSDOF 4
ENDMDL
MODEL 8
REMARK VINA RESULT:      -6.9      2.038      4.447
REMARK  Name = 
REMARK  4 active torsions:
REMARK  status: ('A' for Active; 'I' for Inactive)
REMARK    1  A    between atoms: C_2  and  C_3
REMARK    2  A    between atoms: C_13  and  N_14
REMARK    3  A    between atoms: N_14  and  C_15
REMARK    4  A    between atoms: C_15  and  C_16
REMARK                            x       y       z     vdW  Elec       q    Type
REMARK                         _______ _______ _______ _____ _____    ______ ____
ROOT
ATOM      1  C   UNL     1       2.586   6.425  19.683  0.00  0.00    +0.000 A 
ATOM      2  C   UNL     1       1.918   6.632  20.873  0.00  0.00    +0.000 A 
ATOM      3  N   UNL     1       1.316   7.780  21.247  0.00  0.00    +0.000 NA
ATOM      4  C   UNL     1       1.261   8.779  20.371  0.00  0.00    +0.000 A 
ATOM      5  C   UNL     1       0.649   9.943  20.833  0.00  0.00    +0.000 A 
ATOM      6  C   UNL     1       0.463  11.058  20.026  0.00  0.00    +0.000 A 
ATOM      7  C   UNL     1       0.859  10.979  18.713  0.00  0.00    +0.000 A 
ATOM      8  F   UNL     1       0.670  12.020  17.891  0.00  0.00    +0.000 F 
ATOM      9  C   UNL     1       1.457   9.822  18.227  0.00  0.00    +0.000 A 
ATOM     10  C   UNL     1       1.758   8.684  19.046  0.00  0.00    +0.000 A 
ATOM     11  C   UNL     1       2.476   7.452  18.694  0.00  0.00    +0.000 A 
ENDROOT
BRANCH   1  13
ATOM     12  O   UNL     1       4.506   5.070  19.712  0.00  0.00    +0.000 OA
ATOM     13  C   UNL     1       3.294   5.110  19.487  0.00  0.00    +0.000 C 
ATOM     14  N   UNL     1       2.611   3.969  19.023  0.00  0.00    +0.000 N 
ATOM     15  C   UNL     1       3.333   2.715  18.836  0.00  0.00    +0.000 C 
ATOM     16  C   UNL     1       2.374   1.814  18.066  0.00  0.00    +0.000 C 
ATOM     17  C   UNL     1       1.010   2.253  18.574  0.00  0.00    +0.000 C 
ATOM     18  C   UNL     1       1.182   3.754  18.786  0.00  0.00    +0.000 C 
ENDBRANCH   1  13
BRANCH  11  19
ATOM     19  N   UNL     1       3.134   7.251  17.446  0.00  0.00    +0.000 N 
ATOM     20  H   UNL     1       2.737   7.873  16.733  0.00  0.00    +0.000 HD
BRANCH  19  21
ATOM     21  C   UNL     1       4.575   7.098  17.353  0.00  0.00    +0.000 C 
BRANCH  21  22
ATOM     22  C   UNL     1       5.199   6.032  16.532  0.00  0.00    +0.000 A 
ATOM     23  C   UNL     1       4.891   4.739  16.181  0.00  0.00    +0.000 A 
ATOM     24  C   UNL     1       6.035   4.225  15.513  0.00  0.00    +0.000 A 
ATOM     25  C   UNL     1       6.961   5.239  15.489  0.00  0.00    +0.000 A 
ATOM     26  O   UNL     1       6.458   6.342  16.088  0.00  0.00    +0.000 OA
ENDBRANCH  21  22
ENDBRANCH  19  21
ENDBRANCH  11  19
TORSDOF 4
ENDMDL
MODEL 9
REMARK VINA RESULT:      -6.9      2.720      5.559
REMARK  Name = 
REMARK  4 active torsions:
REMARK  status: ('A' for Active; 'I' for Inactive)
REMARK    1  A    between atoms: C_2  and  C_3
REMARK    2  A    between atoms: C_13  and  N_14
REMARK    3  A    between atoms: N_14  and  C_15
REMARK    4  A    between atoms: C_15  and  C_16
REMARK                            x       y       z     vdW  Elec       q    Type
REMARK                         _______ _______ _______ _____ _____    ______ ____
ROOT
ATOM      1  C   UNL     1       5.108   4.354  16.838  0.00  0.00    +0.000 A 
ATOM      2  C   UNL     1       4.867   3.001  16.702  0.00  0.00    +0.000 A 
ATOM      3  N   UNL     1       3.949   2.292  17.390  0.00  0.00    +0.000 NA
ATOM      4  C   UNL     1       3.123   2.948  18.202  0.00  0.00    +0.000 A 
ATOM      5  C   UNL     1       2.219   2.151  18.901  0.00  0.00    +0.000 A 
ATOM      6  C   UNL     1       1.255   2.685  19.748  0.00  0.00    +0.000 A 
ATOM      7  C   UNL     1       1.171   4.052  19.852  0.00  0.00    +0.000 A 
ATOM      8  F   UNL     1       0.237   4.610  20.633  0.00  0.00    +0.000 F 
ATOM      9  C   UNL     1       2.054   4.866  19.151  0.00  0.00    +0.000 A 
ATOM     10  C   UNL     1       3.126   4.359  18.344  0.00  0.00    +0.000 A 
ATOM     11  C   UNL     1       4.186   5.094  17.643  0.00  0.00    +0.000 A 
ENDROOT
BRANCH   1  13
ATOM     12  O   UNL     1       7.009   5.722  16.660  0.00  0.00    +0.000 OA
ATOM     13  C   UNL     1       6.253   4.952  16.064  0.00  0.00    +0.000 C 
ATOM     14  N   UNL     1       6.437   4.679  14.695  0.00  0.00    +0.000 N 
ATOM     15  C   UNL     1       7.553   5.285  13.976  0.00  0.00    +0.000 C 
ATOM     16  C   UNL     1       7.271   5.014  12.502  0.00  0.00    +0.000 C 
ATOM     17  C   UNL     1       6.558   3.672  12.531  0.00  0.00    +0.000 C 
ATOM     18  C   UNL     1       5.737   3.740  13.815  0.00  0.00    +0.000 C 
ENDBRANCH   1  13
BRANCH  11  19
ATOM     19  N   UNL     1       4.396   6.498  17.778  0.00  0.00    +0.000 N 
ATOM     20  H   UNL     1       5.387   6.721  17.637  0.00  0.00    +0.000 HD
BRANCH  19  21
ATOM     21  C   UNL     1       3.488   7.470  17.194  0.00  0.00    +0.000 C 
BRANCH  21  22
ATOM     22  C   UNL     1       2.596   8.311  18.030  0.00  0.00    +0.000 A 
ATOM     23  C   UNL     1       2.000   8.206  19.264  0.00  0.00    +0.000 A 
ATOM     24  C   UNL     1       1.113   9.310  19.373  0.00  0.00    +0.000 A 
ATOM     25  C   UNL     1       1.234  10.024  18.206  0.00  0.00    +0.000 A 
ATOM     26  O   UNL     1       2.143   9.436  17.394  0.00  0.00    +0.000 OA
ENDBRANCH  21  22
ENDBRANCH  19  21
ENDBRANCH  11  19
TORSDOF 4
ENDMDL
