MODEL 1
REMARK VINA RESULT:      -7.5      0.000      0.000
REMARK  Name = 
REMARK  7 active torsions:
REMARK  status: ('A' for Active; 'I' for Inactive)
REMARK    1  A    between atoms: C_2  and  C_3
REMARK    2  A    between atoms: C_3  and  O_4
REMARK    3  A    between atoms: O_4  and  C_5
REMARK    4  A    between atoms: N_11  and  C_12
REMARK    5  A    between atoms: C_12  and  C_13
REMARK    6  A    between atoms: N_16  and  C_17
REMARK    7  A    between atoms: C_17  and  C_18
REMARK                            x       y       z     vdW  Elec       q    Type
REMARK                         _______ _______ _______ _____ _____    ______ ____
ROOT
ATOM      1  C   UNL     1       7.030   5.503  16.152  0.00  0.00    +0.000 C 
ENDROOT
BRANCH   1   2
ATOM      2  C   UNL     1       5.495   5.477  15.950  0.00  0.00    +0.000 C 
ATOM      3  C   UNL     1       4.740   6.803  16.158  0.00  0.00    +0.000 C 
ATOM      4  C   UNL     1       3.950   6.944  17.469  0.00  0.00    +0.000 C 
ATOM      5  N   UNL     1       3.249   5.712  17.873  0.00  0.00    +0.000 NA
ATOM      6  C   UNL     1       4.238   4.633  18.011  0.00  0.00    +0.000 C 
ATOM      7  C   UNL     1       4.802   4.298  16.636  0.00  0.00    +0.000 C 
BRANCH   5   8
ATOM      8  C   UNL     1       2.498   5.950  19.121  0.00  0.00    +0.000 C 
BRANCH   8   9
ATOM      9  C   UNL     1       2.023   4.670  19.766  0.00  0.00    +0.000 A 
ATOM     10  C   UNL     1       1.166   3.692  19.154  0.00  0.00    +0.000 A 
ATOM     11  C   UNL     1       0.875   2.634  19.992  0.00  0.00    +0.000 A 
ATOM     12  S   UNL     1       1.634   2.795  21.511  0.00  0.00    +0.000 S 
ATOM     13  C   UNL     1       2.350   4.278  21.055  0.00  0.00    +0.000 A 
ENDBRANCH   8   9
ENDBRANCH   5   8
ENDBRANCH   1   2
BRANCH   1  16
ATOM     14  O   UNL     1       7.223   6.076  18.923  0.00  0.00    +0.000 OA
ATOM     15  C   UNL     1       7.748   6.838  18.117  0.00  0.00    +0.000 C 
ATOM     16  N   UNL     1       7.627   6.689  16.741  0.00  0.00    +0.000 N 
ATOM     17  H   UNL     1       8.379   7.110  16.206  0.00  0.00    +0.000 HD
BRANCH  15  18
ATOM     18  C   UNL     1       8.551   8.074  18.560  0.00  0.00    +0.000 C 
BRANCH  18  19
ATOM     19  O   UNL     1       8.084   9.272  17.947  0.00  0.00    +0.000 OA
BRANCH  19  20
ATOM     20  C   UNL     1       8.695  10.432  18.374  0.00  0.00    +0.000 A 
ATOM     21  C   UNL     1       9.508  10.315  19.506  0.00  0.00    +0.000 A 
ATOM     22  C   UNL     1      10.195  11.430  20.011  0.00  0.00    +0.000 A 
ATOM     23  C   UNL     1      10.081  12.662  19.366  0.00  0.00    +0.000 A 
ATOM     24  C   UNL     1       9.293  12.779  18.231  0.00  0.00    +0.000 A 
ATOM     25  C   UNL     1       8.590  11.669  17.734  0.00  0.00    +0.000 A 
ENDBRANCH  19  20
ENDBRANCH  18  19
ENDBRANCH  15  18
ENDBRANCH   1  16
TORSDOF 7
ENDMDL
MODEL 2
REMARK VINA RESULT:      -7.3      1.385      1.938
REMARK  Name = 
REMARK  7 active torsions:
REMARK  status: ('A' for Active; 'I' for Inactive)
REMARK    1  A    between atoms: C_2  and  C_3
REMARK    2  A    between atoms: C_3  and  O_4
REMARK    3  A    between atoms: O_4  and  C_5
REMARK    4  A    between atoms: N_11  and  C_12
REMARK    5  A    between atoms: C_12  and  C_13
REMARK    6  A    between atoms: N_16  and  C_17
REMARK    7  A    between atoms: C_17  and  C_18
REMARK                            x       y       z     vdW  Elec       q    Type
REMARK                         _______ _______ _______ _____ _____    ______ ____
ROOT
ATOM      1  C   UNL     1       7.107   6.645  16.571  0.00  0.00    +0.000 C 
ENDROOT
BRANCH   1   2
ATOM      2  C   UNL     1       5.613   6.280  16.383  0.00  0.00    +0.000 C 
ATOM      3  C   UNL     1       4.723   6.313  17.639  0.00  0.00    +0.000 C 
ATOM      4  C   UNL     1       4.346   4.952  18.247  0.00  0.00    +0.000 C 
ATOM      5  N   UNL     1       4.037   3.920  17.242  0.00  0.00    +0.000 NA
ATOM      6  C   UNL     1       5.203   3.757  16.363  0.00  0.00    +0.000 C 
ATOM      7  C   UNL     1       5.386   5.025  15.539  0.00  0.00    +0.000 C 
BRANCH   5   8
ATOM      8  C   UNL     1       3.658   2.663  17.916  0.00  0.00    +0.000 C 
BRANCH   8   9
ATOM      9  C   UNL     1       2.725   2.886  19.081  0.00  0.00    +0.000 A 
ATOM     10  C   UNL     1       1.386   3.402  18.994  0.00  0.00    +0.000 A 
ATOM     11  C   UNL     1       0.777   3.525  20.227  0.00  0.00    +0.000 A 
ATOM     12  S   UNL     1       1.795   3.012  21.496  0.00  0.00    +0.000 S 
ATOM     13  C   UNL     1       3.052   2.628  20.403  0.00  0.00    +0.000 A 
ENDBRANCH   8   9
ENDBRANCH   5   8
ENDBRANCH   1   2
BRANCH   1  16
ATOM     14  O   UNL     1       8.576   7.323  18.900  0.00  0.00    +0.000 OA
ATOM     15  C   UNL     1       8.237   8.215  18.127  0.00  0.00    +0.000 C 
ATOM     16  N   UNL     1       7.437   7.989  17.013  0.00  0.00    +0.000 N 
ATOM     17  H   UNL     1       7.544   8.677  16.275  0.00  0.00    +0.000 HD
BRANCH  15  18
ATOM     18  C   UNL     1       8.620   9.688  18.353  0.00  0.00    +0.000 C 
BRANCH  18  19
ATOM     19  O   UNL     1       9.332   9.882  19.570  0.00  0.00    +0.000 OA
BRANCH  19  20
ATOM     20  C   UNL     1       9.920  11.120  19.721  0.00  0.00    +0.000 A 
ATOM     21  C   UNL     1      10.812  11.500  18.714  0.00  0.00    +0.000 A 
ATOM     22  C   UNL     1      11.449  12.750  18.756  0.00  0.00    +0.000 A 
ATOM     23  C   UNL     1      11.173  13.630  19.804  0.00  0.00    +0.000 A 
ATOM     24  C   UNL     1      10.273  13.267  20.795  0.00  0.00    +0.000 A 
ATOM     25  C   UNL     1       9.649  12.009  20.763  0.00  0.00    +0.000 A 
ENDBRANCH  19  20
ENDBRANCH  18  19
ENDBRANCH  15  18
ENDBRANCH   1  16
TORSDOF 7
ENDMDL
MODEL 3
REMARK VINA RESULT:      -7.1      1.460      2.036
REMARK  Name = 
REMARK  7 active torsions:
REMARK  status: ('A' for Active; 'I' for Inactive)
REMARK    1  A    between atoms: C_2  and  C_3
REMARK    2  A    between atoms: C_3  and  O_4
REMARK    3  A    between atoms: O_4  and  C_5
REMARK    4  A    between atoms: N_11  and  C_12
REMARK    5  A    between atoms: C_12  and  C_13
REMARK    6  A    between atoms: N_16  and  C_17
REMARK    7  A    between atoms: C_17  and  C_18
REMARK                            x       y       z     vdW  Elec       q    Type
REMARK                         _______ _______ _______ _____ _____    ______ ____
ROOT
ATOM      1  C   UNL     1       7.042   6.591  16.621  0.00  0.00    +0.000 C 
ENDROOT
BRANCH   1   2
ATOM      2  C   UNL     1       5.561   6.214  16.372  0.00  0.00    +0.000 C 
ATOM      3  C   UNL     1       4.629   6.196  17.598  0.00  0.00    +0.000 C 
ATOM      4  C   UNL     1       4.250   4.813  18.151  0.00  0.00    +0.000 C 
ATOM      5  N   UNL     1       3.989   3.809  17.105  0.00  0.00    +0.000 NA
ATOM      6  C   UNL     1       5.186   3.687  16.261  0.00  0.00    +0.000 C 
ATOM      7  C   UNL     1       5.379   4.983  15.483  0.00  0.00    +0.000 C 
BRANCH   5   8
ATOM      8  C   UNL     1       3.605   2.526  17.727  0.00  0.00    +0.000 C 
BRANCH   8   9
ATOM      9  C   UNL     1       2.938   2.708  19.068  0.00  0.00    +0.000 A 
ATOM     10  C   UNL     1       3.563   2.516  20.348  0.00  0.00    +0.000 A 
ATOM     11  C   UNL     1       2.700   2.728  21.405  0.00  0.00    +0.000 A 
ATOM     12  S   UNL     1       1.141   3.171  20.876  0.00  0.00    +0.000 S 
ATOM     13  C   UNL     1       1.612   3.077  19.236  0.00  0.00    +0.000 A 
ENDBRANCH   8   9
ENDBRANCH   5   8
ENDBRANCH   1   2
BRANCH   1  16
ATOM     14  O   UNL     1       8.500   7.384  18.922  0.00  0.00    +0.000 OA
ATOM     15  C   UNL     1       8.145   8.239  18.116  0.00  0.00    +0.000 C 
ATOM     16  N   UNL     1       7.349   7.957  17.011  0.00  0.00    +0.000 N 
ATOM     17  H   UNL     1       7.443   8.618  16.249  0.00  0.00    +0.000 HD
BRANCH  15  18
ATOM     18  C   UNL     1       8.502   9.726  18.285  0.00  0.00    +0.000 C 
BRANCH  18  19
ATOM     19  O   UNL     1       9.505   9.933  19.274  0.00  0.00    +0.000 OA
BRANCH  19  20
ATOM     20  C   UNL     1      10.192  11.125  19.179  0.00  0.00    +0.000 A 
ATOM     21  C   UNL     1      10.300  11.865  20.360  0.00  0.00    +0.000 A 
ATOM     22  C   UNL     1      11.000  13.082  20.381  0.00  0.00    +0.000 A 
ATOM     23  C   UNL     1      11.611  13.546  19.215  0.00  0.00    +0.000 A 
ATOM     24  C   UNL     1      11.526  12.805  18.046  0.00  0.00    +0.000 A 
ATOM     25  C   UNL     1      10.810  11.597  18.019  0.00  0.00    +0.000 A 
ENDBRANCH  19  20
ENDBRANCH  18  19
ENDBRANCH  15  18
ENDBRANCH   1  16
TORSDOF 7
ENDMDL
MODEL 4
REMARK VINA RESULT:      -6.9      1.471      1.861
REMARK  Name = 
REMARK  7 active torsions:
REMARK  status: ('A' for Active; 'I' for Inactive)
REMARK    1  A    between atoms: C_2  and  C_3
REMARK    2  A    between atoms: C_3  and  O_4
REMARK    3  A    between atoms: O_4  and  C_5
REMARK    4  A    between atoms: N_11  and  C_12
REMARK    5  A    between atoms: C_12  and  C_13
REMARK    6  A    between atoms: N_16  and  C_17
REMARK    7  A    between atoms: C_17  and  C_18
REMARK                            x       y       z     vdW  Elec       q    Type
REMARK                         _______ _______ _______ _____ _____    ______ ____
ROOT
ATOM      1  C   UNL     1       7.456   5.698  18.292  0.00  0.00    +0.000 C 
ENDROOT
BRANCH   1   2
ATOM      2  C   UNL     1       6.250   5.868  17.336  0.00  0.00    +0.000 C 
ATOM      3  C   UNL     1       4.931   6.364  17.957  0.00  0.00    +0.000 C 
ATOM      4  C   UNL     1       3.833   5.309  18.165  0.00  0.00    +0.000 C 
ATOM      5  N   UNL     1       3.722   4.342  17.059  0.00  0.00    +0.000 NA
ATOM      6  C   UNL     1       5.019   3.672  16.891  0.00  0.00    +0.000 C 
ATOM      7  C   UNL     1       6.041   4.685  16.390  0.00  0.00    +0.000 C 
BRANCH   5   8
ATOM      8  C   UNL     1       2.628   3.391  17.333  0.00  0.00    +0.000 C 
BRANCH   8   9
ATOM      9  C   UNL     1       2.317   3.270  18.805  0.00  0.00    +0.000 A 
ATOM     10  C   UNL     1       1.193   3.866  19.475  0.00  0.00    +0.000 A 
ATOM     11  C   UNL     1       1.179   3.609  20.831  0.00  0.00    +0.000 A 
ATOM     12  S   UNL     1       2.500   2.643  21.312  0.00  0.00    +0.000 S 
ATOM     13  C   UNL     1       3.096   2.569  19.712  0.00  0.00    +0.000 A 
ENDBRANCH   8   9
ENDBRANCH   5   8
ENDBRANCH   1   2
BRANCH   1  16
ATOM     14  O   UNL     1       7.863   8.131  16.893  0.00  0.00    +0.000 OA
ATOM     15  C   UNL     1       8.168   8.067  18.080  0.00  0.00    +0.000 C 
ATOM     16  N   UNL     1       8.091   6.893  18.821  0.00  0.00    +0.000 N 
ATOM     17  H   UNL     1       7.991   7.035  19.820  0.00  0.00    +0.000 HD
BRANCH  15  18
ATOM     18  C   UNL     1       8.722   9.277  18.853  0.00  0.00    +0.000 C 
BRANCH  18  19
ATOM     19  O   UNL     1       9.041  10.367  17.995  0.00  0.00    +0.000 OA
BRANCH  19  20
ATOM     20  C   UNL     1      10.050  11.195  18.442  0.00  0.00    +0.000 A 
ATOM     21  C   UNL     1      10.192  11.293  19.830  0.00  0.00    +0.000 A 
ATOM     22  C   UNL     1      11.202  12.090  20.391  0.00  0.00    +0.000 A 
ATOM     23  C   UNL     1      12.084  12.776  19.555  0.00  0.00    +0.000 A 
ATOM     24  C   UNL     1      11.961  12.666  18.179  0.00  0.00    +0.000 A 
ATOM     25  C   UNL     1      10.940  11.883  17.615  0.00  0.00    +0.000 A 
ENDBRANCH  19  20
ENDBRANCH  18  19
ENDBRANCH  15  18
ENDBRANCH   1  16
TORSDOF 7
ENDMDL
MODEL 5
REMARK VINA RESULT:      -6.8      1.405      2.049
REMARK  Name = 
REMARK  7 active torsions:
REMARK  status: ('A' for Active; 'I' for Inactive)
REMARK    1  A    between atoms: C_2  and  C_3
REMARK    2  A    between atoms: C_3  and  O_4
REMARK    3  A    between atoms: O_4  and  C_5
REMARK    4  A    between atoms: N_11  and  C_12
REMARK    5  A    between atoms: C_12  and  C_13
REMARK    6  A    between atoms: N_16  and  C_17
REMARK    7  A    between atoms: C_17  and  C_18
REMARK                            x       y       z     vdW  Elec       q    Type
REMARK                         _______ _______ _______ _____ _____    ______ ____
ROOT
ATOM      1  C   UNL     1       6.891   6.478  16.858  0.00  0.00    +0.000 C 
ENDROOT
BRANCH   1   2
ATOM      2  C   UNL     1       5.454   6.108  16.415  0.00  0.00    +0.000 C 
ATOM      3  C   UNL     1       4.351   6.190  17.486  0.00  0.00    +0.000 C 
ATOM      4  C   UNL     1       3.858   4.855  18.067  0.00  0.00    +0.000 C 
ATOM      5  N   UNL     1       3.728   3.785  17.062  0.00  0.00    +0.000 NA
ATOM      6  C   UNL     1       5.034   3.586  16.417  0.00  0.00    +0.000 C 
ATOM      7  C   UNL     1       5.373   4.821  15.593  0.00  0.00    +0.000 C 
BRANCH   5   8
ATOM      8  C   UNL     1       3.224   2.555  17.703  0.00  0.00    +0.000 C 
BRANCH   8   9
ATOM      9  C   UNL     1       2.538   2.826  19.020  0.00  0.00    +0.000 A 
ATOM     10  C   UNL     1       1.223   3.384  19.180  0.00  0.00    +0.000 A 
ATOM     11  C   UNL     1       0.865   3.545  20.504  0.00  0.00    +0.000 A 
ATOM     12  S   UNL     1       2.091   3.017  21.565  0.00  0.00    +0.000 S 
ATOM     13  C   UNL     1       3.104   2.576  20.261  0.00  0.00    +0.000 A 
ENDBRANCH   8   9
ENDBRANCH   5   8
ENDBRANCH   1   2
BRANCH   1  16
ATOM     14  O   UNL     1       8.509   7.620  18.889  0.00  0.00    +0.000 OA
ATOM     15  C   UNL     1       8.102   8.334  17.977  0.00  0.00    +0.000 C 
ATOM     16  N   UNL     1       7.231   7.884  16.992  0.00  0.00    +0.000 N 
ATOM     17  H   UNL     1       7.275   8.407  16.124  0.00  0.00    +0.000 HD
BRANCH  15  18
ATOM     18  C   UNL     1       8.477   9.823  17.870  0.00  0.00    +0.000 C 
BRANCH  18  19
ATOM     19  O   UNL     1       9.612  10.154  18.662  0.00  0.00    +0.000 OA
BRANCH  19  20
ATOM     20  C   UNL     1       9.440  11.211  19.530  0.00  0.00    +0.000 A 
ATOM     21  C   UNL     1       9.283  12.469  18.940  0.00  0.00    +0.000 A 
ATOM     22  C   UNL     1       9.077  13.610  19.731  0.00  0.00    +0.000 A 
ATOM     23  C   UNL     1       9.009  13.484  21.119  0.00  0.00    +0.000 A 
ATOM     24  C   UNL     1       9.143  12.236  21.709  0.00  0.00    +0.000 A 
ATOM     25  C   UNL     1       9.367  11.096  20.920  0.00  0.00    +0.000 A 
ENDBRANCH  19  20
ENDBRANCH  18  19
ENDBRANCH  15  18
ENDBRANCH   1  16
TORSDOF 7
ENDMDL
MODEL 6
REMARK VINA RESULT:      -6.7      4.977      7.002
REMARK  Name = 
REMARK  7 active torsions:
REMARK  status: ('A' for Active; 'I' for Inactive)
REMARK    1  A    between atoms: C_2  and  C_3
REMARK    2  A    between atoms: C_3  and  O_4
REMARK    3  A    between atoms: O_4  and  C_5
REMARK    4  A    between atoms: N_11  and  C_12
REMARK    5  A    between atoms: C_12  and  C_13
REMARK    6  A    between atoms: N_16  and  C_17
REMARK    7  A    between atoms: C_17  and  C_18
REMARK                            x       y       z     vdW  Elec       q    Type
REMARK                         _______ _______ _______ _____ _____    ______ ____
ROOT
ATOM      1  C   UNL     1       0.766   2.760  19.780  0.00  0.00    +0.000 C 
ENDROOT
BRANCH   1   2
ATOM      2  C   UNL     1       1.634   2.381  18.555  0.00  0.00    +0.000 C 
ATOM      3  C   UNL     1       2.991   1.713  18.841  0.00  0.00    +0.000 C 
ATOM      4  C   UNL     1       4.238   2.597  18.680  0.00  0.00    +0.000 C 
ATOM      5  N   UNL     1       4.176   3.502  17.519  0.00  0.00    +0.000 NA
ATOM      6  C   UNL     1       2.986   4.354  17.650  0.00  0.00    +0.000 C 
ATOM      7  C   UNL     1       1.739   3.490  17.507  0.00  0.00    +0.000 C 
BRANCH   5   8
ATOM      8  C   UNL     1       5.423   4.287  17.428  0.00  0.00    +0.000 C 
BRANCH   8   9
ATOM      9  C   UNL     1       5.964   4.357  16.021  0.00  0.00    +0.000 A 
ATOM     10  C   UNL     1       7.046   5.195  15.581  0.00  0.00    +0.000 A 
ATOM     11  C   UNL     1       7.307   5.070  14.230  0.00  0.00    +0.000 A 
ATOM     12  S   UNL     1       6.271   3.942  13.482  0.00  0.00    +0.000 S 
ATOM     13  C   UNL     1       5.469   3.620  14.956  0.00  0.00    +0.000 A 
ENDBRANCH   8   9
ENDBRANCH   5   8
ENDBRANCH   1   2
BRANCH   1  16
ATOM     14  O   UNL     1       2.602   4.166  21.424  0.00  0.00    +0.000 OA
ATOM     15  C   UNL     1       1.677   4.780  20.900  0.00  0.00    +0.000 C 
ATOM     16  N   UNL     1       0.679   4.160  20.157  0.00  0.00    +0.000 N 
ATOM     17  H   UNL     1       0.222   4.766  19.484  0.00  0.00    +0.000 HD
BRANCH  15  18
ATOM     18  C   UNL     1       1.502   6.300  21.066  0.00  0.00    +0.000 C 
BRANCH  18  19
ATOM     19  O   UNL     1       2.303   7.040  20.150  0.00  0.00    +0.000 OA
BRANCH  19  20
ATOM     20  C   UNL     1       1.758   8.230  19.716  0.00  0.00    +0.000 A 
ATOM     21  C   UNL     1       2.004   8.564  18.380  0.00  0.00    +0.000 A 
ATOM     22  C   UNL     1       1.476   9.742  17.828  0.00  0.00    +0.000 A 
ATOM     23  C   UNL     1       0.682  10.577  18.615  0.00  0.00    +0.000 A 
ATOM     24  C   UNL     1       0.418  10.240  19.934  0.00  0.00    +0.000 A 
ATOM     25  C   UNL     1       0.960   9.071  20.493  0.00  0.00    +0.000 A 
ENDBRANCH  19  20
ENDBRANCH  18  19
ENDBRANCH  15  18
ENDBRANCH   1  16
TORSDOF 7
ENDMDL
MODEL 7
REMARK VINA RESULT:      -6.7      4.727      6.235
REMARK  Name = 
REMARK  7 active torsions:
REMARK  status: ('A' for Active; 'I' for Inactive)
REMARK    1  A    between atoms: C_2  and  C_3
REMARK    2  A    between atoms: C_3  and  O_4
REMARK    3  A    between atoms: O_4  and  C_5
REMARK    4  A    between atoms: N_11  and  C_12
REMARK    5  A    between atoms: C_12  and  C_13
REMARK    6  A    between atoms: N_16  and  C_17
REMARK    7  A    between atoms: C_17  and  C_18
REMARK                            x       y       z     vdW  Elec       q    Type
REMARK                         _______ _______ _______ _____ _____    ______ ____
ROOT
ATOM      1  C   UNL     1       3.872   2.760  18.771  0.00  0.00    +0.000 C 
ENDROOT
BRANCH   1   2
ATOM      2  C   UNL     1       2.573   3.530  19.113  0.00  0.00    +0.000 C 
ATOM      3  C   UNL     1       1.927   4.348  17.979  0.00  0.00    +0.000 C 
ATOM      4  C   UNL     1       2.119   5.872  18.037  0.00  0.00    +0.000 C 
ATOM      5  N   UNL     1       2.017   6.430  19.397  0.00  0.00    +0.000 NA
ATOM      6  C   UNL     1       3.022   5.777  20.248  0.00  0.00    +0.000 C 
ATOM      7  C   UNL     1       2.646   4.312  20.426  0.00  0.00    +0.000 C 
BRANCH   5   8
ATOM      8  C   UNL     1       2.184   7.895  19.350  0.00  0.00    +0.000 C 
BRANCH   8   9
ATOM      9  C   UNL     1       1.251   8.616  20.293  0.00  0.00    +0.000 A 
ATOM     10  C   UNL     1       0.341   9.668  19.929  0.00  0.00    +0.000 A 
ATOM     11  C   UNL     1      -0.369  10.160  21.006  0.00  0.00    +0.000 A 
ATOM     12  S   UNL     1       0.036   9.360  22.457  0.00  0.00    +0.000 S 
ATOM     13  C   UNL     1       1.163   8.358  21.652  0.00  0.00    +0.000 A 
ENDBRANCH   8   9
ENDBRANCH   5   8
ENDBRANCH   1   2
BRANCH   1  16
ATOM     14  O   UNL     1       6.032   4.539  19.234  0.00  0.00    +0.000 OA
ATOM     15  C   UNL     1       5.842   4.114  18.098  0.00  0.00    +0.000 C 
ATOM     16  N   UNL     1       4.756   3.314  17.760  0.00  0.00    +0.000 N 
ATOM     17  H   UNL     1       4.904   2.731  16.944  0.00  0.00    +0.000 HD
BRANCH  15  18
ATOM     18  C   UNL     1       6.763   4.476  16.920  0.00  0.00    +0.000 C 
BRANCH  18  19
ATOM     19  O   UNL     1       6.074   5.175  15.889  0.00  0.00    +0.000 OA
BRANCH  19  20
ATOM     20  C   UNL     1       6.322   4.733  14.606  0.00  0.00    +0.000 A 
ATOM     21  C   UNL     1       7.412   5.320  13.956  0.00  0.00    +0.000 A 
ATOM     22  C   UNL     1       7.768   4.927  12.657  0.00  0.00    +0.000 A 
ATOM     23  C   UNL     1       7.038   3.925  12.016  0.00  0.00    +0.000 A 
ATOM     24  C   UNL     1       5.970   3.323  12.663  0.00  0.00    +0.000 A 
ATOM     25  C   UNL     1       5.601   3.729  13.957  0.00  0.00    +0.000 A 
ENDBRANCH  19  20
ENDBRANCH  18  19
ENDBRANCH  15  18
ENDBRANCH   1  16
TORSDOF 7
ENDMDL
MODEL 8
REMARK VINA RESULT:      -6.7      1.233      1.754
REMARK  Name = 
REMARK  7 active torsions:
REMARK  status: ('A' for Active; 'I' for Inactive)
REMARK    1  A    between atoms: C_2  and  C_3
REMARK    2  A    between atoms: C_3  and  O_4
REMARK    3  A    between atoms: O_4  and  C_5
REMARK    4  A    between atoms: N_11  and  C_12
REMARK    5  A    between atoms: C_12  and  C_13
REMARK    6  A    between atoms: N_16  and  C_17
REMARK    7  A    between atoms: C_17  and  C_18
REMARK                            x       y       z     vdW  Elec       q    Type
REMARK                         _______ _______ _______ _____ _____    ______ ____
ROOT
ATOM      1  C   UNL     1       6.825   5.233  17.971  0.00  0.00    +0.000 C 
ENDROOT
BRANCH   1   2
ATOM      2  C   UNL     1       5.667   5.053  16.959  0.00  0.00    +0.000 C 
ATOM      3  C   UNL     1       4.570   6.134  16.954  0.00  0.00    +0.000 C 
ATOM      4  C   UNL     1       3.235   5.758  17.615  0.00  0.00    +0.000 C 
ATOM      5  N   UNL     1       2.805   4.376  17.338  0.00  0.00    +0.000 NA
ATOM      6  C   UNL     1       3.855   3.457  17.799  0.00  0.00    +0.000 C 
ATOM      7  C   UNL     1       5.090   3.637  16.926  0.00  0.00    +0.000 C 
BRANCH   5   8
ATOM      8  C   UNL     1       1.505   4.117  17.986  0.00  0.00    +0.000 C 
BRANCH   8   9
ATOM      9  C   UNL     1       1.643   3.778  19.451  0.00  0.00    +0.000 A 
ATOM     10  C   UNL     1       2.112   4.670  20.476  0.00  0.00    +0.000 A 
ATOM     11  C   UNL     1       2.159   4.079  21.723  0.00  0.00    +0.000 A 
ATOM     12  S   UNL     1       1.630   2.458  21.680  0.00  0.00    +0.000 S 
ATOM     13  C   UNL     1       1.341   2.540  19.997  0.00  0.00    +0.000 A 
ENDBRANCH   8   9
ENDBRANCH   5   8
ENDBRANCH   1   2
BRANCH   1  16
ATOM     14  O   UNL     1       8.030   7.174  16.290  0.00  0.00    +0.000 OA
ATOM     15  C   UNL     1       7.711   7.489  17.432  0.00  0.00    +0.000 C 
ATOM     16  N   UNL     1       7.202   6.582  18.355  0.00  0.00    +0.000 N 
ATOM     17  H   UNL     1       6.637   7.002  19.085  0.00  0.00    +0.000 HD
BRANCH  15  18
ATOM     18  C   UNL     1       7.899   8.917  17.974  0.00  0.00    +0.000 C 
BRANCH  18  19
ATOM     19  O   UNL     1       8.931   8.994  18.951  0.00  0.00    +0.000 OA
BRANCH  19  20
ATOM     20  C   UNL     1       9.399  10.264  19.218  0.00  0.00    +0.000 A 
ATOM     21  C   UNL     1       9.745  11.036  18.105  0.00  0.00    +0.000 A 
ATOM     22  C   UNL     1      10.209  12.351  18.263  0.00  0.00    +0.000 A 
ATOM     23  C   UNL     1      10.308  12.899  19.543  0.00  0.00    +0.000 A 
ATOM     24  C   UNL     1       9.946  12.145  20.649  0.00  0.00    +0.000 A 
ATOM     25  C   UNL     1       9.498  10.823  20.494  0.00  0.00    +0.000 A 
ENDBRANCH  19  20
ENDBRANCH  18  19
ENDBRANCH  15  18
ENDBRANCH   1  16
TORSDOF 7
ENDMDL
MODEL 9
REMARK VINA RESULT:      -6.6      4.746      6.324
REMARK  Name = 
REMARK  7 active torsions:
REMARK  status: ('A' for Active; 'I' for Inactive)
REMARK    1  A    between atoms: C_2  and  C_3
REMARK    2  A    between atoms: C_3  and  O_4
REMARK    3  A    between atoms: O_4  and  C_5
REMARK    4  A    between atoms: N_11  and  C_12
REMARK    5  A    between atoms: C_12  and  C_13
REMARK    6  A    between atoms: N_16  and  C_17
REMARK    7  A    between atoms: C_17  and  C_18
REMARK                            x       y       z     vdW  Elec       q    Type
REMARK                         _______ _______ _______ _____ _____    ______ ____
ROOT
ATOM      1  C   UNL     1       4.232   3.078  18.825  0.00  0.00    +0.000 C 
ENDROOT
BRANCH   1   2
ATOM      2  C   UNL     1       2.992   3.903  19.247  0.00  0.00    +0.000 C 
ATOM      3  C   UNL     1       1.976   4.251  18.144  0.00  0.00    +0.000 C 
ATOM      4  C   UNL     1       1.998   5.697  17.623  0.00  0.00    +0.000 C 
ATOM      5  N   UNL     1       2.200   6.704  18.679  0.00  0.00    +0.000 NA
ATOM      6  C   UNL     1       3.464   6.413  19.370  0.00  0.00    +0.000 C 
ATOM      7  C   UNL     1       3.321   5.103  20.136  0.00  0.00    +0.000 C 
BRANCH   5   8
ATOM      8  C   UNL     1       2.177   8.058  18.092  0.00  0.00    +0.000 C 
BRANCH   8   9
ATOM      9  C   UNL     1       1.490   9.065  18.981  0.00  0.00    +0.000 A 
ATOM     10  C   UNL     1       1.071   8.838  20.337  0.00  0.00    +0.000 A 
ATOM     11  C   UNL     1       0.444   9.933  20.897  0.00  0.00    +0.000 A 
ATOM     12  S   UNL     1       0.363  11.245  19.811  0.00  0.00    +0.000 S 
ATOM     13  C   UNL     1       1.161  10.354  18.591  0.00  0.00    +0.000 A 
ENDBRANCH   8   9
ENDBRANCH   5   8
ENDBRANCH   1   2
BRANCH   1  16
ATOM     14  O   UNL     1       6.588   4.614  19.192  0.00  0.00    +0.000 OA
ATOM     15  C   UNL     1       6.266   4.276  18.057  0.00  0.00    +0.000 C 
ATOM     16  N   UNL     1       5.083   3.604  17.772  0.00  0.00    +0.000 N 
ATOM     17  H   UNL     1       5.107   3.059  16.917  0.00  0.00    +0.000 HD
BRANCH  15  18
ATOM     18  C   UNL     1       7.122   4.617  16.824  0.00  0.00    +0.000 C 
BRANCH  18  19
ATOM     19  O   UNL     1       6.377   5.293  15.817  0.00  0.00    +0.000 OA
BRANCH  19  20
ATOM     20  C   UNL     1       6.582   4.845  14.529  0.00  0.00    +0.000 A 
ATOM     21  C   UNL     1       5.672   3.893  14.059  0.00  0.00    +0.000 A 
ATOM     22  C   UNL     1       5.774   3.388  12.754  0.00  0.00    +0.000 A 
ATOM     23  C   UNL     1       6.783   3.856  11.910  0.00  0.00    +0.000 A 
ATOM     24  C   UNL     1       7.675   4.816  12.363  0.00  0.00    +0.000 A 
ATOM     25  C   UNL     1       7.585   5.309  13.675  0.00  0.00    +0.000 A 
ENDBRANCH  19  20
ENDBRANCH  18  19
ENDBRANCH  15  18
ENDBRANCH   1  16
TORSDOF 7
ENDMDL
