MODEL 1
REMARK VINA RESULT:      -8.1      0.000      0.000
REMARK  Name = 
REMARK  7 active torsions:
REMARK  status: ('A' for Active; 'I' for Inactive)
REMARK    1  A    between atoms: C_1  and  N_2
REMARK    2  A    between atoms: N_2  and  C_19
REMARK    3  A    between atoms: C_3  and  C_5
REMARK    4  A    between atoms: N_21  and  C_22
REMARK    5  A    between atoms: C_22  and  C_23
REMARK    6  A    between atoms: C_23  and  C_24
REMARK    7  A    between atoms: C_24  and  N_25
REMARK                            x       y       z     vdW  Elec       q    Type
REMARK                         _______ _______ _______ _____ _____    ______ ____
ROOT
ATOM      1  C   UNL     1       1.564   8.464  17.727  0.00  0.00    +0.000 C 
ATOM      2  N   UNL     1       2.114   8.016  18.996  0.00  0.00    +0.000 N 
ATOM      3  C   UNL     1       2.647   6.727  19.196  0.00  0.00    +0.000 C 
ATOM      4  O   UNL     1       2.944   6.373  20.344  0.00  0.00    +0.000 OA
ENDROOT
BRANCH   3   5
ATOM      5  C   UNL     1       2.954   5.794  17.992  0.00  0.00    +0.000 C 
ATOM      6  C   UNL     1       2.444   4.391  18.243  0.00  0.00    +0.000 A 
ATOM      7  C   UNL     1       1.125   4.163  18.673  0.00  0.00    +0.000 A 
ATOM      8  C   UNL     1       0.691   2.871  18.969  0.00  0.00    +0.000 A 
ATOM      9  C   UNL     1       1.563   1.794  18.830  0.00  0.00    +0.000 A 
ATOM     10  C   UNL     1       2.865   2.008  18.382  0.00  0.00    +0.000 A 
ATOM     11  C   UNL     1       3.302   3.300  18.080  0.00  0.00    +0.000 A 
ATOM     12  O   UNL     1       4.610   3.411  17.669  0.00  0.00    +0.000 OA
ATOM     13  C   UNL     1       5.137   4.660  17.445  0.00  0.00    +0.000 A 
ATOM     14  C   UNL     1       6.497   4.699  17.120  0.00  0.00    +0.000 A 
ATOM     15  C   UNL     1       7.128   5.918  16.892  0.00  0.00    +0.000 A 
ATOM     16  C   UNL     1       6.400   7.105  16.986  0.00  0.00    +0.000 A 
ATOM     17  C   UNL     1       5.050   7.072  17.322  0.00  0.00    +0.000 A 
ATOM     18  C   UNL     1       4.408   5.846  17.574  0.00  0.00    +0.000 A 
ENDBRANCH   3   5
BRANCH   2  19
ATOM     19  C   UNL     1       1.885   8.828  20.215  0.00  0.00    +0.000 C 
ATOM     20  C   UNL     1       1.267  10.215  19.868  0.00  0.00    +0.000 C 
ATOM     21  N   UNL     1      -0.048  10.435  20.657  0.00  0.00    +0.000 N 
ATOM     22  C   UNL     1      -0.987   9.244  20.369  0.00  0.00    +0.000 C 
ATOM     23  C   UNL     1      -0.422   7.990  21.018  0.00  0.00    +0.000 C 
ATOM     24  C   UNL     1       1.058   8.186  21.369  0.00  0.00    +0.000 C 
ATOM     25  C   UNL     1       1.043   9.187  22.543  0.00  0.00    +0.000 C 
ATOM     26  C   UNL     1       0.287  10.466  22.160  0.00  0.00    +0.000 C 
BRANCH  21  27
ATOM     27  C   UNL     1      -0.771  11.710  20.179  0.00  0.00    +0.000 C 
BRANCH  27  28
ATOM     28  C   UNL     1      -1.076  11.694  18.689  0.00  0.00    +0.000 C 
BRANCH  28  29
ATOM     29  C   UNL     1      -2.576  11.732  18.410  0.00  0.00    +0.000 C 
BRANCH  29  30
ATOM     30  N   UNL     1      -2.832  11.109  17.121  0.00  0.00    +0.000 N 
ATOM     31  C   UNL     1      -2.150  10.033  16.622  0.00  0.00    +0.000 A 
ATOM     32  C   UNL     1      -2.790   9.632  15.469  0.00  0.00    +0.000 A 
ATOM     33  C   UNL     1      -3.888  10.504  15.268  0.00  0.00    +0.000 A 
ATOM     34  C   UNL     1      -3.886  11.412  16.303  0.00  0.00    +0.000 A 
ENDBRANCH  29  30
ENDBRANCH  28  29
ENDBRANCH  27  28
ENDBRANCH  21  27
ENDBRANCH   2  19
TORSDOF 6
ENDMDL
MODEL 2
REMARK VINA RESULT:      -7.7      1.926      2.949
REMARK  Name = 
REMARK  7 active torsions:
REMARK  status: ('A' for Active; 'I' for Inactive)
REMARK    1  A    between atoms: C_1  and  N_2
REMARK    2  A    between atoms: N_2  and  C_19
REMARK    3  A    between atoms: C_3  and  C_5
REMARK    4  A    between atoms: N_21  and  C_22
REMARK    5  A    between atoms: C_22  and  C_23
REMARK    6  A    between atoms: C_23  and  C_24
REMARK    7  A    between atoms: C_24  and  N_25
REMARK                            x       y       z     vdW  Elec       q    Type
REMARK                         _______ _______ _______ _____ _____    ______ ____
ROOT
ATOM      1  C   UNL     1       1.655   8.489  17.749  0.00  0.00    +0.000 C 
ATOM      2  N   UNL     1       2.144   8.015  19.034  0.00  0.00    +0.000 N 
ATOM      3  C   UNL     1       2.651   6.717  19.239  0.00  0.00    +0.000 C 
ATOM      4  O   UNL     1       2.892   6.344  20.393  0.00  0.00    +0.000 OA
ENDROOT
BRANCH   3   5
ATOM      5  C   UNL     1       2.998   5.797  18.036  0.00  0.00    +0.000 C 
ATOM      6  C   UNL     1       2.499   4.387  18.265  0.00  0.00    +0.000 A 
ATOM      7  C   UNL     1       1.173   4.140  18.659  0.00  0.00    +0.000 A 
ATOM      8  C   UNL     1       0.746   2.840  18.936  0.00  0.00    +0.000 A 
ATOM      9  C   UNL     1       1.634   1.775  18.810  0.00  0.00    +0.000 A 
ATOM     10  C   UNL     1       2.945   2.008  18.396  0.00  0.00    +0.000 A 
ATOM     11  C   UNL     1       3.374   3.306  18.115  0.00  0.00    +0.000 A 
ATOM     12  O   UNL     1       4.690   3.435  17.738  0.00  0.00    +0.000 OA
ATOM     13  C   UNL     1       5.208   4.692  17.536  0.00  0.00    +0.000 A 
ATOM     14  C   UNL     1       6.574   4.748  17.245  0.00  0.00    +0.000 A 
ATOM     15  C   UNL     1       7.198   5.977  17.041  0.00  0.00    +0.000 A 
ATOM     16  C   UNL     1       6.453   7.155  17.126  0.00  0.00    +0.000 A 
ATOM     17  C   UNL     1       5.096   7.103  17.428  0.00  0.00    +0.000 A 
ATOM     18  C   UNL     1       4.461   5.868  17.655  0.00  0.00    +0.000 A 
ENDBRANCH   3   5
BRANCH   2  19
ATOM     19  C   UNL     1       1.871   8.814  20.253  0.00  0.00    +0.000 C 
ATOM     20  C   UNL     1       1.430  10.265  19.898  0.00  0.00    +0.000 C 
ATOM     21  N   UNL     1       0.069  10.595  20.560  0.00  0.00    +0.000 N 
ATOM     22  C   UNL     1      -0.946   9.513  20.138  0.00  0.00    +0.000 C 
ATOM     23  C   UNL     1      -0.576   8.192  20.792  0.00  0.00    +0.000 C 
ATOM     24  C   UNL     1       0.872   8.228  21.295  0.00  0.00    +0.000 C 
ATOM     25  C   UNL     1       0.835   9.194  22.498  0.00  0.00    +0.000 C 
ATOM     26  C   UNL     1       0.250  10.552  22.089  0.00  0.00    +0.000 C 
BRANCH  21  27
ATOM     27  C   UNL     1      -0.473  11.948  20.060  0.00  0.00    +0.000 C 
BRANCH  27  28
ATOM     28  C   UNL     1      -1.282  12.688  21.113  0.00  0.00    +0.000 C 
BRANCH  28  29
ATOM     29  C   UNL     1      -2.781  12.633  20.829  0.00  0.00    +0.000 C 
BRANCH  29  30
ATOM     30  N   UNL     1      -3.500  12.604  22.092  0.00  0.00    +0.000 N 
ATOM     31  C   UNL     1      -2.966  12.212  23.289  0.00  0.00    +0.000 A 
ATOM     32  C   UNL     1      -3.895  12.485  24.270  0.00  0.00    +0.000 A 
ATOM     33  C   UNL     1      -5.026  13.053  23.637  0.00  0.00    +0.000 A 
ATOM     34  C   UNL     1      -4.757  13.109  22.288  0.00  0.00    +0.000 A 
ENDBRANCH  29  30
ENDBRANCH  28  29
ENDBRANCH  27  28
ENDBRANCH  21  27
ENDBRANCH   2  19
TORSDOF 6
ENDMDL
MODEL 3
REMARK VINA RESULT:      -7.6      1.568      2.045
REMARK  Name = 
REMARK  7 active torsions:
REMARK  status: ('A' for Active; 'I' for Inactive)
REMARK    1  A    between atoms: C_1  and  N_2
REMARK    2  A    between atoms: N_2  and  C_19
REMARK    3  A    between atoms: C_3  and  C_5
REMARK    4  A    between atoms: N_21  and  C_22
REMARK    5  A    between atoms: C_22  and  C_23
REMARK    6  A    between atoms: C_23  and  C_24
REMARK    7  A    between atoms: C_24  and  N_25
REMARK                            x       y       z     vdW  Elec       q    Type
REMARK                         _______ _______ _______ _____ _____    ______ ____
ROOT
ATOM      1  C   UNL     1       1.631   8.446  17.705  0.00  0.00    +0.000 C 
ATOM      2  N   UNL     1       2.141   7.996  18.990  0.00  0.00    +0.000 N 
ATOM      3  C   UNL     1       2.653   6.702  19.210  0.00  0.00    +0.000 C 
ATOM      4  O   UNL     1       2.914   6.349  20.367  0.00  0.00    +0.000 OA
ENDROOT
BRANCH   3   5
ATOM      5  C   UNL     1       2.983   5.761  18.018  0.00  0.00    +0.000 C 
ATOM      6  C   UNL     1       2.479   4.357  18.274  0.00  0.00    +0.000 A 
ATOM      7  C   UNL     1       1.155   4.124  18.687  0.00  0.00    +0.000 A 
ATOM      8  C   UNL     1       0.725   2.831  18.989  0.00  0.00    +0.000 A 
ATOM      9  C   UNL     1       1.606   1.759  18.870  0.00  0.00    +0.000 A 
ATOM     10  C   UNL     1       2.913   1.978  18.439  0.00  0.00    +0.000 A 
ATOM     11  C   UNL     1       3.345   3.270  18.132  0.00  0.00    +0.000 A 
ATOM     12  O   UNL     1       4.658   3.386  17.738  0.00  0.00    +0.000 OA
ATOM     13  C   UNL     1       5.180   4.636  17.511  0.00  0.00    +0.000 A 
ATOM     14  C   UNL     1       6.544   4.681  17.204  0.00  0.00    +0.000 A 
ATOM     15  C   UNL     1       7.171   5.902  16.975  0.00  0.00    +0.000 A 
ATOM     16  C   UNL     1       6.434   7.085  17.049  0.00  0.00    +0.000 A 
ATOM     17  C   UNL     1       5.080   7.046  17.366  0.00  0.00    +0.000 A 
ATOM     18  C   UNL     1       4.442   5.818  17.620  0.00  0.00    +0.000 A 
ENDBRANCH   3   5
BRANCH   2  19
ATOM     19  C   UNL     1       1.887   8.815  20.200  0.00  0.00    +0.000 C 
ATOM     20  C   UNL     1       1.435  10.258  19.826  0.00  0.00    +0.000 C 
ATOM     21  N   UNL     1       0.085  10.596  20.506  0.00  0.00    +0.000 N 
ATOM     22  C   UNL     1      -0.934   9.503  20.121  0.00  0.00    +0.000 C 
ATOM     23  C   UNL     1      -0.549   8.196  20.793  0.00  0.00    +0.000 C 
ATOM     24  C   UNL     1       0.908   8.245  21.269  0.00  0.00    +0.000 C 
ATOM     25  C   UNL     1       0.889   9.232  22.455  0.00  0.00    +0.000 C 
ATOM     26  C   UNL     1       0.293  10.581  22.032  0.00  0.00    +0.000 C 
BRANCH  21  27
ATOM     27  C   UNL     1      -0.471  11.939  19.991  0.00  0.00    +0.000 C 
BRANCH  27  28
ATOM     28  C   UNL     1      -1.954  11.879  19.662  0.00  0.00    +0.000 C 
BRANCH  28  29
ATOM     29  C   UNL     1      -2.736  13.005  20.330  0.00  0.00    +0.000 C 
BRANCH  29  30
ATOM     30  N   UNL     1      -4.155  12.689  20.282  0.00  0.00    +0.000 N 
ATOM     31  C   UNL     1      -4.811  12.193  19.189  0.00  0.00    +0.000 A 
ATOM     32  C   UNL     1      -6.089  11.863  19.583  0.00  0.00    +0.000 A 
ATOM     33  C   UNL     1      -6.204  12.181  20.958  0.00  0.00    +0.000 A 
ATOM     34  C   UNL     1      -4.993  12.696  21.363  0.00  0.00    +0.000 A 
ENDBRANCH  29  30
ENDBRANCH  28  29
ENDBRANCH  27  28
ENDBRANCH  21  27
ENDBRANCH   2  19
TORSDOF 6
ENDMDL
MODEL 4
REMARK VINA RESULT:      -7.5      2.863      3.571
REMARK  Name = 
REMARK  7 active torsions:
REMARK  status: ('A' for Active; 'I' for Inactive)
REMARK    1  A    between atoms: C_1  and  N_2
REMARK    2  A    between atoms: N_2  and  C_19
REMARK    3  A    between atoms: C_3  and  C_5
REMARK    4  A    between atoms: N_21  and  C_22
REMARK    5  A    between atoms: C_22  and  C_23
REMARK    6  A    between atoms: C_23  and  C_24
REMARK    7  A    between atoms: C_24  and  N_25
REMARK                            x       y       z     vdW  Elec       q    Type
REMARK                         _______ _______ _______ _____ _____    ______ ____
ROOT
ATOM      1  C   UNL     1       1.282   8.532  17.491  0.00  0.00    +0.000 C 
ATOM      2  N   UNL     1       1.722   8.480  18.876  0.00  0.00    +0.000 N 
ATOM      3  C   UNL     1       2.235   7.316  19.482  0.00  0.00    +0.000 C 
ATOM      4  O   UNL     1       2.432   7.314  20.703  0.00  0.00    +0.000 OA
ENDROOT
BRANCH   3   5
ATOM      5  C   UNL     1       2.643   6.085  18.626  0.00  0.00    +0.000 C 
ATOM      6  C   UNL     1       2.315   4.791  19.339  0.00  0.00    +0.000 A 
ATOM      7  C   UNL     1       1.039   4.565  19.885  0.00  0.00    +0.000 A 
ATOM      8  C   UNL     1       0.771   3.398  20.602  0.00  0.00    +0.000 A 
ATOM      9  C   UNL     1       1.770   2.441  20.771  0.00  0.00    +0.000 A 
ATOM     10  C   UNL     1       3.030   2.646  20.213  0.00  0.00    +0.000 A 
ATOM     11  C   UNL     1       3.300   3.811  19.491  0.00  0.00    +0.000 A 
ATOM     12  O   UNL     1       4.579   3.932  19.002  0.00  0.00    +0.000 OA
ATOM     13  C   UNL     1       4.944   5.092  18.363  0.00  0.00    +0.000 A 
ATOM     14  C   UNL     1       6.285   5.178  17.975  0.00  0.00    +0.000 A 
ATOM     15  C   UNL     1       6.758   6.321  17.336  0.00  0.00    +0.000 A 
ATOM     16  C   UNL     1       5.889   7.383  17.082  0.00  0.00    +0.000 A 
ATOM     17  C   UNL     1       4.557   7.307  17.478  0.00  0.00    +0.000 A 
ATOM     18  C   UNL     1       4.074   6.164  18.141  0.00  0.00    +0.000 A 
ENDBRANCH   3   5
BRANCH   2  19
ATOM     19  C   UNL     1       1.390   9.602  19.786  0.00  0.00    +0.000 C 
ATOM     20  C   UNL     1       1.690  10.980  19.126  0.00  0.00    +0.000 C 
ATOM     21  N   UNL     1       0.426  11.876  19.144  0.00  0.00    +0.000 N 
ATOM     22  C   UNL     1      -0.725  11.099  18.472  0.00  0.00    +0.000 C 
ATOM     23  C   UNL     1      -1.135   9.937  19.362  0.00  0.00    +0.000 C 
ATOM     24  C   UNL     1      -0.043   9.641  20.397  0.00  0.00    +0.000 C 
ATOM     25  C   UNL     1      -0.102  10.837  21.368  0.00  0.00    +0.000 C 
ATOM     26  C   UNL     1       0.056  12.163  20.612  0.00  0.00    +0.000 C 
BRANCH  21  27
ATOM     27  C   UNL     1       0.649  13.161  18.322  0.00  0.00    +0.000 C 
BRANCH  27  28
ATOM     28  C   UNL     1       0.079  14.400  18.993  0.00  0.00    +0.000 C 
BRANCH  28  29
ATOM     29  C   UNL     1       1.138  15.479  19.202  0.00  0.00    +0.000 C 
BRANCH  29  30
ATOM     30  N   UNL     1       0.783  16.649  18.416  0.00  0.00    +0.000 N 
ATOM     31  C   UNL     1       1.676  17.455  17.764  0.00  0.00    +0.000 A 
ATOM     32  C   UNL     1       0.954  18.343  16.997  0.00  0.00    +0.000 A 
ATOM     33  C   UNL     1      -0.419  18.064  17.205  0.00  0.00    +0.000 A 
ATOM     34  C   UNL     1      -0.495  17.015  18.093  0.00  0.00    +0.000 A 
ENDBRANCH  29  30
ENDBRANCH  28  29
ENDBRANCH  27  28
ENDBRANCH  21  27
ENDBRANCH   2  19
TORSDOF 6
ENDMDL
MODEL 5
REMARK VINA RESULT:      -7.5      2.105      3.109
REMARK  Name = 
REMARK  7 active torsions:
REMARK  status: ('A' for Active; 'I' for Inactive)
REMARK    1  A    between atoms: C_1  and  N_2
REMARK    2  A    between atoms: N_2  and  C_19
REMARK    3  A    between atoms: C_3  and  C_5
REMARK    4  A    between atoms: N_21  and  C_22
REMARK    5  A    between atoms: C_22  and  C_23
REMARK    6  A    between atoms: C_23  and  C_24
REMARK    7  A    between atoms: C_24  and  N_25
REMARK                            x       y       z     vdW  Elec       q    Type
REMARK                         _______ _______ _______ _____ _____    ______ ____
ROOT
ATOM      1  C   UNL     1       1.599   8.450  17.768  0.00  0.00    +0.000 C 
ATOM      2  N   UNL     1       2.120   7.987  19.044  0.00  0.00    +0.000 N 
ATOM      3  C   UNL     1       2.645   6.694  19.242  0.00  0.00    +0.000 C 
ATOM      4  O   UNL     1       2.915   6.328  20.393  0.00  0.00    +0.000 OA
ENDROOT
BRANCH   3   5
ATOM      5  C   UNL     1       2.976   5.773  18.036  0.00  0.00    +0.000 C 
ATOM      6  C   UNL     1       2.475   4.365  18.269  0.00  0.00    +0.000 A 
ATOM      7  C   UNL     1       1.152   4.123  18.678  0.00  0.00    +0.000 A 
ATOM      8  C   UNL     1       0.724   2.824  18.958  0.00  0.00    +0.000 A 
ATOM      9  C   UNL     1       1.607   1.756  18.823  0.00  0.00    +0.000 A 
ATOM     10  C   UNL     1       2.914   1.984  18.395  0.00  0.00    +0.000 A 
ATOM     11  C   UNL     1       3.344   3.282  18.109  0.00  0.00    +0.000 A 
ATOM     12  O   UNL     1       4.656   3.406  17.718  0.00  0.00    +0.000 OA
ATOM     13  C   UNL     1       5.176   4.661  17.510  0.00  0.00    +0.000 A 
ATOM     14  C   UNL     1       6.540   4.713  17.204  0.00  0.00    +0.000 A 
ATOM     15  C   UNL     1       7.165   5.940  16.995  0.00  0.00    +0.000 A 
ATOM     16  C   UNL     1       6.426   7.120  17.088  0.00  0.00    +0.000 A 
ATOM     17  C   UNL     1       5.071   7.073  17.405  0.00  0.00    +0.000 A 
ATOM     18  C   UNL     1       4.435   5.840  17.638  0.00  0.00    +0.000 A 
ENDBRANCH   3   5
BRANCH   2  19
ATOM     19  C   UNL     1       1.865   8.786  20.266  0.00  0.00    +0.000 C 
ATOM     20  C   UNL     1       1.508  10.262  19.917  0.00  0.00    +0.000 C 
ATOM     21  N   UNL     1       0.153  10.656  20.557  0.00  0.00    +0.000 N 
ATOM     22  C   UNL     1      -0.909   9.633  20.104  0.00  0.00    +0.000 C 
ATOM     23  C   UNL     1      -0.621   8.288  20.751  0.00  0.00    +0.000 C 
ATOM     24  C   UNL     1       0.816   8.244  21.282  0.00  0.00    +0.000 C 
ATOM     25  C   UNL     1       0.806   9.198  22.494  0.00  0.00    +0.000 C 
ATOM     26  C   UNL     1       0.301  10.590  22.089  0.00  0.00    +0.000 C 
BRANCH  21  27
ATOM     27  C   UNL     1      -0.308  12.041  20.061  0.00  0.00    +0.000 C 
BRANCH  27  28
ATOM     28  C   UNL     1       0.488  12.536  18.864  0.00  0.00    +0.000 C 
BRANCH  28  29
ATOM     29  C   UNL     1       0.472  14.058  18.754  0.00  0.00    +0.000 C 
BRANCH  29  30
ATOM     30  N   UNL     1       1.837  14.535  18.593  0.00  0.00    +0.000 N 
ATOM     31  C   UNL     1       2.930  13.733  18.409  0.00  0.00    +0.000 A 
ATOM     32  C   UNL     1       4.004  14.549  18.128  0.00  0.00    +0.000 A 
ATOM     33  C   UNL     1       3.538  15.886  18.154  0.00  0.00    +0.000 A 
ATOM     34  C   UNL     1       2.194  15.847  18.450  0.00  0.00    +0.000 A 
ENDBRANCH  29  30
ENDBRANCH  28  29
ENDBRANCH  27  28
ENDBRANCH  21  27
ENDBRANCH   2  19
TORSDOF 6
ENDMDL
MODEL 6
REMARK VINA RESULT:      -7.4      0.931      1.380
REMARK  Name = 
REMARK  7 active torsions:
REMARK  status: ('A' for Active; 'I' for Inactive)
REMARK    1  A    between atoms: C_1  and  N_2
REMARK    2  A    between atoms: N_2  and  C_19
REMARK    3  A    between atoms: C_3  and  C_5
REMARK    4  A    between atoms: N_21  and  C_22
REMARK    5  A    between atoms: C_22  and  C_23
REMARK    6  A    between atoms: C_23  and  C_24
REMARK    7  A    between atoms: C_24  and  N_25
REMARK                            x       y       z     vdW  Elec       q    Type
REMARK                         _______ _______ _______ _____ _____    ______ ____
ROOT
ATOM      1  C   UNL     1       1.674   8.454  17.647  0.00  0.00    +0.000 C 
ATOM      2  N   UNL     1       2.160   8.014  18.946  0.00  0.00    +0.000 N 
ATOM      3  C   UNL     1       2.652   6.717  19.188  0.00  0.00    +0.000 C 
ATOM      4  O   UNL     1       2.892   6.376  20.353  0.00  0.00    +0.000 OA
ENDROOT
BRANCH   3   5
ATOM      5  C   UNL     1       2.988   5.757  18.013  0.00  0.00    +0.000 C 
ATOM      6  C   UNL     1       2.488   4.356  18.292  0.00  0.00    +0.000 A 
ATOM      7  C   UNL     1       1.165   4.126  18.705  0.00  0.00    +0.000 A 
ATOM      8  C   UNL     1       0.738   2.837  19.028  0.00  0.00    +0.000 A 
ATOM      9  C   UNL     1       1.623   1.766  18.929  0.00  0.00    +0.000 A 
ATOM     10  C   UNL     1       2.930   1.982  18.497  0.00  0.00    +0.000 A 
ATOM     11  C   UNL     1       3.359   3.270  18.169  0.00  0.00    +0.000 A 
ATOM     12  O   UNL     1       4.672   3.384  17.777  0.00  0.00    +0.000 OA
ATOM     13  C   UNL     1       5.191   4.632  17.530  0.00  0.00    +0.000 A 
ATOM     14  C   UNL     1       6.555   4.677  17.225  0.00  0.00    +0.000 A 
ATOM     15  C   UNL     1       7.178   5.897  16.977  0.00  0.00    +0.000 A 
ATOM     16  C   UNL     1       6.437   7.078  17.030  0.00  0.00    +0.000 A 
ATOM     17  C   UNL     1       5.082   7.039  17.345  0.00  0.00    +0.000 A 
ATOM     18  C   UNL     1       4.448   5.813  17.617  0.00  0.00    +0.000 A 
ENDBRANCH   3   5
BRANCH   2  19
ATOM     19  C   UNL     1       1.898   8.851  20.141  0.00  0.00    +0.000 C 
ATOM     20  C   UNL     1       1.403  10.274  19.743  0.00  0.00    +0.000 C 
ATOM     21  N   UNL     1       0.052  10.590  20.433  0.00  0.00    +0.000 N 
ATOM     22  C   UNL     1      -0.942   9.462  20.082  0.00  0.00    +0.000 C 
ATOM     23  C   UNL     1      -0.513   8.180  20.776  0.00  0.00    +0.000 C 
ATOM     24  C   UNL     1       0.947   8.278  21.234  0.00  0.00    +0.000 C 
ATOM     25  C   UNL     1       0.915   9.289  22.399  0.00  0.00    +0.000 C 
ATOM     26  C   UNL     1       0.278  10.612  21.956  0.00  0.00    +0.000 C 
BRANCH  21  27
ATOM     27  C   UNL     1      -0.546  11.906  19.897  0.00  0.00    +0.000 C 
BRANCH  27  28
ATOM     28  C   UNL     1      -2.058  11.854  19.750  0.00  0.00    +0.000 C 
BRANCH  28  29
ATOM     29  C   UNL     1      -2.487  11.662  18.298  0.00  0.00    +0.000 C 
BRANCH  29  30
ATOM     30  N   UNL     1      -3.932  11.797  18.211  0.00  0.00    +0.000 N 
ATOM     31  C   UNL     1      -4.744  12.208  19.233  0.00  0.00    +0.000 A 
ATOM     32  C   UNL     1      -6.011  12.374  18.718  0.00  0.00    +0.000 A 
ATOM     33  C   UNL     1      -5.957  12.043  17.343  0.00  0.00    +0.000 A 
ATOM     34  C   UNL     1      -4.659  11.684  17.057  0.00  0.00    +0.000 A 
ENDBRANCH  29  30
ENDBRANCH  28  29
ENDBRANCH  27  28
ENDBRANCH  21  27
ENDBRANCH   2  19
TORSDOF 6
ENDMDL
MODEL 7
REMARK VINA RESULT:      -7.3      2.567      3.475
REMARK  Name = 
REMARK  7 active torsions:
REMARK  status: ('A' for Active; 'I' for Inactive)
REMARK    1  A    between atoms: C_1  and  N_2
REMARK    2  A    between atoms: N_2  and  C_19
REMARK    3  A    between atoms: C_3  and  C_5
REMARK    4  A    between atoms: N_21  and  C_22
REMARK    5  A    between atoms: C_22  and  C_23
REMARK    6  A    between atoms: C_23  and  C_24
REMARK    7  A    between atoms: C_24  and  N_25
REMARK                            x       y       z     vdW  Elec       q    Type
REMARK                         _______ _______ _______ _____ _____    ______ ____
ROOT
ATOM      1  C   UNL     1       1.654   8.492  17.501  0.00  0.00    +0.000 C 
ATOM      2  N   UNL     1       2.074   8.110  18.840  0.00  0.00    +0.000 N 
ATOM      3  C   UNL     1       2.570   6.831  19.160  0.00  0.00    +0.000 C 
ATOM      4  O   UNL     1       2.751   6.540  20.349  0.00  0.00    +0.000 OA
ENDROOT
BRANCH   3   5
ATOM      5  C   UNL     1       2.980   5.831  18.044  0.00  0.00    +0.000 C 
ATOM      6  C   UNL     1       2.493   4.433  18.356  0.00  0.00    +0.000 A 
ATOM      7  C   UNL     1       1.154   4.194  18.714  0.00  0.00    +0.000 A 
ATOM      8  C   UNL     1       0.736   2.910  19.069  0.00  0.00    +0.000 A 
ATOM      9  C   UNL     1       1.644   1.854  19.058  0.00  0.00    +0.000 A 
ATOM     10  C   UNL     1       2.966   2.079  18.681  0.00  0.00    +0.000 A 
ATOM     11  C   UNL     1       3.388   3.361  18.321  0.00  0.00    +0.000 A 
ATOM     12  O   UNL     1       4.716   3.484  17.989  0.00  0.00    +0.000 OA
ATOM     13  C   UNL     1       5.224   4.732  17.715  0.00  0.00    +0.000 A 
ATOM     14  C   UNL     1       6.601   4.790  17.476  0.00  0.00    +0.000 A 
ATOM     15  C   UNL     1       7.214   6.011  17.207  0.00  0.00    +0.000 A 
ATOM     16  C   UNL     1       6.450   7.179  17.175  0.00  0.00    +0.000 A 
ATOM     17  C   UNL     1       5.082   7.126  17.425  0.00  0.00    +0.000 A 
ATOM     18  C   UNL     1       4.457   5.900  17.717  0.00  0.00    +0.000 A 
ENDBRANCH   3   5
BRANCH   2  19
ATOM     19  C   UNL     1       1.738   8.990  19.985  0.00  0.00    +0.000 C 
ATOM     20  C   UNL     1       1.875  10.495  19.607  0.00  0.00    +0.000 C 
ATOM     21  N   UNL     1       0.554  11.249  19.900  0.00  0.00    +0.000 N 
ATOM     22  C   UNL     1      -0.589  10.522  19.161  0.00  0.00    +0.000 C 
ATOM     23  C   UNL     1      -0.832   9.171  19.815  0.00  0.00    +0.000 C 
ATOM     24  C   UNL     1       0.365   8.773  20.688  0.00  0.00    +0.000 C 
ATOM     25  C   UNL     1       0.300   9.738  21.889  0.00  0.00    +0.000 C 
ATOM     26  C   UNL     1       0.291  11.198  21.417  0.00  0.00    +0.000 C 
BRANCH  21  27
ATOM     27  C   UNL     1       0.608  12.688  19.350  0.00  0.00    +0.000 C 
BRANCH  27  28
ATOM     28  C   UNL     1       1.894  12.987  18.597  0.00  0.00    +0.000 C 
BRANCH  28  29
ATOM     29  C   UNL     1       2.770  13.996  19.332  0.00  0.00    +0.000 C 
BRANCH  29  30
ATOM     30  N   UNL     1       2.683  15.280  18.655  0.00  0.00    +0.000 N 
ATOM     31  C   UNL     1       3.431  15.645  17.569  0.00  0.00    +0.000 A 
ATOM     32  C   UNL     1       2.945  16.851  17.114  0.00  0.00    +0.000 A 
ATOM     33  C   UNL     1       1.874  17.224  17.961  0.00  0.00    +0.000 A 
ATOM     34  C   UNL     1       1.738  16.236  18.910  0.00  0.00    +0.000 A 
ENDBRANCH  29  30
ENDBRANCH  28  29
ENDBRANCH  27  28
ENDBRANCH  21  27
ENDBRANCH   2  19
TORSDOF 6
ENDMDL
MODEL 8
REMARK VINA RESULT:      -7.3      2.051      2.929
REMARK  Name = 
REMARK  7 active torsions:
REMARK  status: ('A' for Active; 'I' for Inactive)
REMARK    1  A    between atoms: C_1  and  N_2
REMARK    2  A    between atoms: N_2  and  C_19
REMARK    3  A    between atoms: C_3  and  C_5
REMARK    4  A    between atoms: N_21  and  C_22
REMARK    5  A    between atoms: C_22  and  C_23
REMARK    6  A    between atoms: C_23  and  C_24
REMARK    7  A    between atoms: C_24  and  N_25
REMARK                            x       y       z     vdW  Elec       q    Type
REMARK                         _______ _______ _______ _____ _____    ______ ____
ROOT
ATOM      1  C   UNL     1       1.592   8.430  17.729  0.00  0.00    +0.000 C 
ATOM      2  N   UNL     1       2.128   7.991  19.007  0.00  0.00    +0.000 N 
ATOM      3  C   UNL     1       2.667   6.707  19.221  0.00  0.00    +0.000 C 
ATOM      4  O   UNL     1       2.950   6.361  20.374  0.00  0.00    +0.000 OA
ENDROOT
BRANCH   3   5
ATOM      5  C   UNL     1       2.998   5.772  18.025  0.00  0.00    +0.000 C 
ATOM      6  C   UNL     1       2.490   4.368  18.272  0.00  0.00    +0.000 A 
ATOM      7  C   UNL     1       1.165   4.137  18.679  0.00  0.00    +0.000 A 
ATOM      8  C   UNL     1       0.730   2.843  18.973  0.00  0.00    +0.000 A 
ATOM      9  C   UNL     1       1.609   1.769  18.852  0.00  0.00    +0.000 A 
ATOM     10  C   UNL     1       2.918   1.987  18.426  0.00  0.00    +0.000 A 
ATOM     11  C   UNL     1       3.355   3.280  18.127  0.00  0.00    +0.000 A 
ATOM     12  O   UNL     1       4.669   3.394  17.739  0.00  0.00    +0.000 OA
ATOM     13  C   UNL     1       5.195   4.645  17.519  0.00  0.00    +0.000 A 
ATOM     14  C   UNL     1       6.560   4.687  17.217  0.00  0.00    +0.000 A 
ATOM     15  C   UNL     1       7.191   5.908  16.997  0.00  0.00    +0.000 A 
ATOM     16  C   UNL     1       6.457   7.093  17.075  0.00  0.00    +0.000 A 
ATOM     17  C   UNL     1       5.101   7.056  17.387  0.00  0.00    +0.000 A 
ATOM     18  C   UNL     1       4.459   5.828  17.632  0.00  0.00    +0.000 A 
ENDBRANCH   3   5
BRANCH   2  19
ATOM     19  C   UNL     1       1.875   8.807  20.219  0.00  0.00    +0.000 C 
ATOM     20  C   UNL     1       1.331  10.220  19.853  0.00  0.00    +0.000 C 
ATOM     21  N   UNL     1      -0.009  10.490  20.581  0.00  0.00    +0.000 N 
ATOM     22  C   UNL     1      -0.981   9.340  20.242  0.00  0.00    +0.000 C 
ATOM     23  C   UNL     1      -0.500   8.062  20.908  0.00  0.00    +0.000 C 
ATOM     24  C   UNL     1       0.969   8.195  21.329  0.00  0.00    +0.000 C 
ATOM     25  C   UNL     1       0.940   9.190  22.508  0.00  0.00    +0.000 C 
ATOM     26  C   UNL     1       0.255  10.501  22.098  0.00  0.00    +0.000 C 
BRANCH  21  27
ATOM     27  C   UNL     1      -0.656  11.796  20.077  0.00  0.00    +0.000 C 
BRANCH  27  28
ATOM     28  C   UNL     1       0.358  12.784  19.523  0.00  0.00    +0.000 C 
BRANCH  28  29
ATOM     29  C   UNL     1      -0.275  13.770  18.546  0.00  0.00    +0.000 C 
BRANCH  29  30
ATOM     30  N   UNL     1       0.337  15.076  18.729  0.00  0.00    +0.000 N 
ATOM     31  C   UNL     1       1.681  15.301  18.852  0.00  0.00    +0.000 A 
ATOM     32  C   UNL     1       1.880  16.664  18.835  0.00  0.00    +0.000 A 
ATOM     33  C   UNL     1       0.610  17.276  18.705  0.00  0.00    +0.000 A 
ATOM     34  C   UNL     1      -0.327  16.269  18.648  0.00  0.00    +0.000 A 
ENDBRANCH  29  30
ENDBRANCH  28  29
ENDBRANCH  27  28
ENDBRANCH  21  27
ENDBRANCH   2  19
TORSDOF 6
ENDMDL
MODEL 9
REMARK VINA RESULT:      -7.3      2.936      4.285
REMARK  Name = 
REMARK  7 active torsions:
REMARK  status: ('A' for Active; 'I' for Inactive)
REMARK    1  A    between atoms: C_1  and  N_2
REMARK    2  A    between atoms: N_2  and  C_19
REMARK    3  A    between atoms: C_3  and  C_5
REMARK    4  A    between atoms: N_21  and  C_22
REMARK    5  A    between atoms: C_22  and  C_23
REMARK    6  A    between atoms: C_23  and  C_24
REMARK    7  A    between atoms: C_24  and  N_25
REMARK                            x       y       z     vdW  Elec       q    Type
REMARK                         _______ _______ _______ _____ _____    ______ ____
ROOT
ATOM      1  C   UNL     1       1.433   8.553  17.503  0.00  0.00    +0.000 C 
ATOM      2  N   UNL     1       1.811   8.461  18.904  0.00  0.00    +0.000 N 
ATOM      3  C   UNL     1       2.264   7.271  19.507  0.00  0.00    +0.000 C 
ATOM      4  O   UNL     1       2.409   7.240  20.735  0.00  0.00    +0.000 OA
ENDROOT
BRANCH   3   5
ATOM      5  C   UNL     1       2.673   6.045  18.644  0.00  0.00    +0.000 C 
ATOM      6  C   UNL     1       2.330   4.747  19.342  0.00  0.00    +0.000 A 
ATOM      7  C   UNL     1       1.048   4.524  19.873  0.00  0.00    +0.000 A 
ATOM      8  C   UNL     1       0.767   3.352  20.577  0.00  0.00    +0.000 A 
ATOM      9  C   UNL     1       1.758   2.388  20.748  0.00  0.00    +0.000 A 
ATOM     10  C   UNL     1       3.025   2.590  20.204  0.00  0.00    +0.000 A 
ATOM     11  C   UNL     1       3.308   3.760  19.495  0.00  0.00    +0.000 A 
ATOM     12  O   UNL     1       4.593   3.877  19.020  0.00  0.00    +0.000 OA
ATOM     13  C   UNL     1       4.972   5.041  18.395  0.00  0.00    +0.000 A 
ATOM     14  C   UNL     1       6.316   5.122  18.020  0.00  0.00    +0.000 A 
ATOM     15  C   UNL     1       6.802   6.269  17.397  0.00  0.00    +0.000 A 
ATOM     16  C   UNL     1       5.942   7.338  17.143  0.00  0.00    +0.000 A 
ATOM     17  C   UNL     1       4.606   7.266  17.526  0.00  0.00    +0.000 A 
ATOM     18  C   UNL     1       4.110   6.120  18.174  0.00  0.00    +0.000 A 
ENDBRANCH   3   5
BRANCH   2  19
ATOM     19  C   UNL     1       1.472   9.574  19.822  0.00  0.00    +0.000 C 
ATOM     20  C   UNL     1       1.819  10.957  19.194  0.00  0.00    +0.000 C 
ATOM     21  N   UNL     1       0.572  11.877  19.188  0.00  0.00    +0.000 N 
ATOM     22  C   UNL     1      -0.571  11.134  18.468  0.00  0.00    +0.000 C 
ATOM     23  C   UNL     1      -1.031   9.966  19.325  0.00  0.00    +0.000 C 
ATOM     24  C   UNL     1       0.022   9.632  20.388  0.00  0.00    +0.000 C 
ATOM     25  C   UNL     1      -0.045  10.813  21.377  0.00  0.00    +0.000 C 
ATOM     26  C   UNL     1       0.162  12.148  20.648  0.00  0.00    +0.000 C 
BRANCH  21  27
ATOM     27  C   UNL     1       0.846  13.170  18.395  0.00  0.00    +0.000 C 
BRANCH  27  28
ATOM     28  C   UNL     1       2.328  13.481  18.262  0.00  0.00    +0.000 C 
BRANCH  28  29
ATOM     29  C   UNL     1       2.788  14.529  19.271  0.00  0.00    +0.000 C 
BRANCH  29  30
ATOM     30  N   UNL     1       4.193  14.824  19.041  0.00  0.00    +0.000 N 
ATOM     31  C   UNL     1       5.099  15.133  20.017  0.00  0.00    +0.000 A 
ATOM     32  C   UNL     1       6.346  15.174  19.432  0.00  0.00    +0.000 A 
ATOM     33  C   UNL     1       6.178  14.887  18.056  0.00  0.00    +0.000 A 
ATOM     34  C   UNL     1       4.834  14.681  17.840  0.00  0.00    +0.000 A 
ENDBRANCH  29  30
ENDBRANCH  28  29
ENDBRANCH  27  28
ENDBRANCH  21  27
ENDBRANCH   2  19
TORSDOF 6
ENDMDL
