MODEL 1
REMARK VINA RESULT:     -10.2      0.000      0.000
REMARK  Name = 
REMARK  5 active torsions:
REMARK  status: ('A' for Active; 'I' for Inactive)
REMARK    1  A    between atoms: C_2  and  C_16
REMARK    2  A    between atoms: N_3  and  N_4
REMARK    3  A    between atoms: N_4  and  C_5
REMARK    4  A    between atoms: C_21  and  N_22
REMARK    5  A    between atoms: C_23  and  C_24
REMARK                            x       y       z     vdW  Elec       q    Type
REMARK                         _______ _______ _______ _____ _____    ______ ____
ROOT
ATOM      1  O   UNL     1       1.163   4.088  17.019  0.00  0.00    +0.000 OA
ATOM      2  C   UNL     1       1.713   4.574  18.007  0.00  0.00    +0.000 C 
ATOM      3  N   UNL     1       1.865   5.963  18.056  0.00  0.00    +0.000 N 
ATOM      4  H   UNL     1       1.550   6.454  17.226  0.00  0.00    +0.000 HD
ENDROOT
BRANCH   2   5
ATOM      5  C   UNL     1       2.011   3.671  19.153  0.00  0.00    +0.000 A 
ATOM      6  C   UNL     1       1.002   3.648  20.155  0.00  0.00    +0.000 A 
ATOM      7  C   UNL     1       1.244   3.080  21.403  0.00  0.00    +0.000 A 
ATOM      8  C   UNL     1       2.487   2.530  21.660  0.00  0.00    +0.000 A 
ATOM      9  C   UNL     1       3.454   2.471  20.640  0.00  0.00    +0.000 A 
ATOM     10  C   UNL     1       3.234   2.997  19.351  0.00  0.00    +0.000 A 
BRANCH  10  11
ATOM     11  N   UNL     1       4.220   3.003  18.323  0.00  0.00    +0.000 NA
ATOM     12  C   UNL     1       4.973   4.036  18.104  0.00  0.00    +0.000 C 
BRANCH  12  13
ATOM     13  C   UNL     1       5.810   4.147  16.876  0.00  0.00    +0.000 A 
ATOM     14  C   UNL     1       5.311   3.657  15.658  0.00  0.00    +0.000 A 
ATOM     15  C   UNL     1       5.919   4.015  14.450  0.00  0.00    +0.000 A 
ATOM     16  C   UNL     1       7.046   4.834  14.457  0.00  0.00    +0.000 A 
ATOM     17 CL   UNL     1       7.745   5.341  12.971  0.00  0.00    +0.000 Cl
ATOM     18  C   UNL     1       7.592   5.269  15.661  0.00  0.00    +0.000 A 
ATOM     19  C   UNL     1       6.979   4.924  16.873  0.00  0.00    +0.000 A 
ATOM     20 CL   UNL     1       7.680   5.576  18.312  0.00  0.00    +0.000 Cl
ENDBRANCH  12  13
ENDBRANCH  10  11
ENDBRANCH   2   5
BRANCH   3  21
ATOM     21  N   UNL     1       2.372   6.799  19.091  0.00  0.00    +0.000 N 
ATOM     22  H   UNL     1       2.139   6.414  20.006  0.00  0.00    +0.000 HD
BRANCH  21  23
ATOM     23  C   UNL     1       2.043   8.187  19.036  0.00  0.00    +0.000 A 
ATOM     24  C   UNL     1       2.299   8.919  17.881  0.00  0.00    +0.000 A 
ATOM     25  C   UNL     1       1.700  10.150  17.747  0.00  0.00    +0.000 A 
ATOM     26  N   UNL     1       0.932  10.726  18.691  0.00  0.00    +0.000 NA
ATOM     27  C   UNL     1       0.795  10.098  19.865  0.00  0.00    +0.000 A 
ATOM     28  C   UNL     1      -0.034  10.684  20.800  0.00  0.00    +0.000 A 
ATOM     29  C   UNL     1      -0.227  10.120  22.056  0.00  0.00    +0.000 A 
ATOM     30 CL   UNL     1      -1.319  10.851  23.169  0.00  0.00    +0.000 Cl
ATOM     31  C   UNL     1       0.448   8.964  22.404  0.00  0.00    +0.000 A 
ATOM     32  C   UNL     1       1.253   8.323  21.454  0.00  0.00    +0.000 A 
ATOM     33  C   UNL     1       1.398   8.841  20.133  0.00  0.00    +0.000 A 
ENDBRANCH  21  23
ENDBRANCH   3  21
TORSDOF 5
ENDMDL
MODEL 2
REMARK VINA RESULT:      -9.5      1.367      2.157
REMARK  Name = 
REMARK  5 active torsions:
REMARK  status: ('A' for Active; 'I' for Inactive)
REMARK    1  A    between atoms: C_2  and  C_16
REMARK    2  A    between atoms: N_3  and  N_4
REMARK    3  A    between atoms: N_4  and  C_5
REMARK    4  A    between atoms: C_21  and  N_22
REMARK    5  A    between atoms: C_23  and  C_24
REMARK                            x       y       z     vdW  Elec       q    Type
REMARK                         _______ _______ _______ _____ _____    ______ ____
ROOT
ATOM      1  O   UNL     1       1.103   4.262  17.070  0.00  0.00    +0.000 OA
ATOM      2  C   UNL     1       1.741   4.711  18.022  0.00  0.00    +0.000 C 
ATOM      3  N   UNL     1       2.001   6.085  18.047  0.00  0.00    +0.000 N 
ATOM      4  H   UNL     1       1.682   6.593  17.228  0.00  0.00    +0.000 HD
ENDROOT
BRANCH   2   5
ATOM      5  C   UNL     1       2.030   3.797  19.162  0.00  0.00    +0.000 A 
ATOM      6  C   UNL     1       1.029   3.790  20.171  0.00  0.00    +0.000 A 
ATOM      7  C   UNL     1       1.269   3.211  21.415  0.00  0.00    +0.000 A 
ATOM      8  C   UNL     1       2.503   2.635  21.659  0.00  0.00    +0.000 A 
ATOM      9  C   UNL     1       3.460   2.561  20.631  0.00  0.00    +0.000 A 
ATOM     10  C   UNL     1       3.240   3.098  19.346  0.00  0.00    +0.000 A 
BRANCH  10  11
ATOM     11  N   UNL     1       4.218   3.089  18.310  0.00  0.00    +0.000 NA
ATOM     12  C   UNL     1       5.035   4.079  18.132  0.00  0.00    +0.000 C 
BRANCH  12  13
ATOM     13  C   UNL     1       5.869   4.194  16.903  0.00  0.00    +0.000 A 
ATOM     14  C   UNL     1       5.427   3.591  15.714  0.00  0.00    +0.000 A 
ATOM     15  C   UNL     1       6.011   3.932  14.489  0.00  0.00    +0.000 A 
ATOM     16  C   UNL     1       7.060   4.848  14.452  0.00  0.00    +0.000 A 
ATOM     17 CL   UNL     1       7.724   5.330  12.942  0.00  0.00    +0.000 Cl
ATOM     18  C   UNL     1       7.554   5.400  15.631  0.00  0.00    +0.000 A 
ATOM     19  C   UNL     1       6.964   5.072  16.859  0.00  0.00    +0.000 A 
ATOM     20 CL   UNL     1       7.591   5.867  18.259  0.00  0.00    +0.000 Cl
ENDBRANCH  12  13
ENDBRANCH  10  11
ENDBRANCH   2   5
BRANCH   3  21
ATOM     21  N   UNL     1       2.626   6.888  19.043  0.00  0.00    +0.000 N 
ATOM     22  H   UNL     1       3.156   6.303  19.690  0.00  0.00    +0.000 HD
BRANCH  21  23
ATOM     23  C   UNL     1       1.801   7.804  19.762  0.00  0.00    +0.000 A 
ATOM     24  C   UNL     1       1.195   7.411  20.951  0.00  0.00    +0.000 A 
ATOM     25  C   UNL     1       0.671   8.388  21.765  0.00  0.00    +0.000 A 
ATOM     26  N   UNL     1       0.646   9.699  21.458  0.00  0.00    +0.000 NA
ATOM     27  C   UNL     1       1.095  10.075  20.254  0.00  0.00    +0.000 A 
ATOM     28  C   UNL     1       1.103  11.427  19.979  0.00  0.00    +0.000 A 
ATOM     29  C   UNL     1       1.532  11.917  18.751  0.00  0.00    +0.000 A 
ATOM     30 CL   UNL     1       1.586  13.616  18.473  0.00  0.00    +0.000 Cl
ATOM     31  C   UNL     1       1.929  11.039  17.759  0.00  0.00    +0.000 A 
ATOM     32  C   UNL     1       1.979   9.667  18.032  0.00  0.00    +0.000 A 
ATOM     33  C   UNL     1       1.622   9.151  19.314  0.00  0.00    +0.000 A 
ENDBRANCH  21  23
ENDBRANCH   3  21
TORSDOF 5
ENDMDL
MODEL 3
REMARK VINA RESULT:      -9.3      1.936      6.977
REMARK  Name = 
REMARK  5 active torsions:
REMARK  status: ('A' for Active; 'I' for Inactive)
REMARK    1  A    between atoms: C_2  and  C_16
REMARK    2  A    between atoms: N_3  and  N_4
REMARK    3  A    between atoms: N_4  and  C_5
REMARK    4  A    between atoms: C_21  and  N_22
REMARK    5  A    between atoms: C_23  and  C_24
REMARK                            x       y       z     vdW  Elec       q    Type
REMARK                         _______ _______ _______ _____ _____    ______ ____
ROOT
ATOM      1  O   UNL     1       1.070   4.411  17.264  0.00  0.00    +0.000 OA
ATOM      2  C   UNL     1       2.102   3.875  17.666  0.00  0.00    +0.000 C 
ATOM      3  N   UNL     1       3.129   3.653  16.742  0.00  0.00    +0.000 N 
ATOM      4  H   UNL     1       2.903   3.910  15.787  0.00  0.00    +0.000 HD
ENDROOT
BRANCH   2   5
ATOM      5  C   UNL     1       2.254   3.667  19.133  0.00  0.00    +0.000 A 
ATOM      6  C   UNL     1       2.293   2.302  19.528  0.00  0.00    +0.000 A 
ATOM      7  C   UNL     1       2.156   1.938  20.865  0.00  0.00    +0.000 A 
ATOM      8  C   UNL     1       1.983   2.929  21.815  0.00  0.00    +0.000 A 
ATOM      9  C   UNL     1       2.036   4.282  21.436  0.00  0.00    +0.000 A 
ATOM     10  C   UNL     1       2.215   4.693  20.099  0.00  0.00    +0.000 A 
BRANCH  10  11
ATOM     11  N   UNL     1       2.210   6.056  19.686  0.00  0.00    +0.000 NA
ATOM     12  C   UNL     1       1.852   7.011  20.485  0.00  0.00    +0.000 C 
BRANCH  12  13
ATOM     13  C   UNL     1       1.591   8.391  19.988  0.00  0.00    +0.000 A 
ATOM     14  C   UNL     1       1.635   8.643  18.607  0.00  0.00    +0.000 A 
ATOM     15  C   UNL     1       1.101   9.827  18.086  0.00  0.00    +0.000 A 
ATOM     16  C   UNL     1       0.553  10.777  18.946  0.00  0.00    +0.000 A 
ATOM     17 CL   UNL     1      -0.177  12.194  18.303  0.00  0.00    +0.000 Cl
ATOM     18  C   UNL     1       0.567  10.571  20.323  0.00  0.00    +0.000 A 
ATOM     19  C   UNL     1       1.088   9.381  20.848  0.00  0.00    +0.000 A 
ATOM     20 CL   UNL     1       0.990   9.178  22.561  0.00  0.00    +0.000 Cl
ENDBRANCH  12  13
ENDBRANCH  10  11
ENDBRANCH   2   5
BRANCH   3  21
ATOM     21  N   UNL     1       4.444   3.143  16.930  0.00  0.00    +0.000 N 
ATOM     22  H   UNL     1       4.647   3.039  17.925  0.00  0.00    +0.000 HD
BRANCH  21  23
ATOM     23  C   UNL     1       5.514   3.821  16.273  0.00  0.00    +0.000 A 
ATOM     24  C   UNL     1       5.743   3.612  14.917  0.00  0.00    +0.000 A 
ATOM     25  C   UNL     1       6.563   4.495  14.254  0.00  0.00    +0.000 A 
ATOM     26  N   UNL     1       7.215   5.514  14.845  0.00  0.00    +0.000 NA
ATOM     27  C   UNL     1       7.120   5.640  16.174  0.00  0.00    +0.000 A 
ATOM     28  C   UNL     1       7.757   6.719  16.752  0.00  0.00    +0.000 A 
ATOM     29  C   UNL     1       7.734   6.928  18.126  0.00  0.00    +0.000 A 
ATOM     30 CL   UNL     1       8.490   8.321  18.799  0.00  0.00    +0.000 Cl
ATOM     31  C   UNL     1       7.089   6.022  18.949  0.00  0.00    +0.000 A 
ATOM     32  C   UNL     1       6.390   4.950  18.382  0.00  0.00    +0.000 A 
ATOM     33  C   UNL     1       6.333   4.765  16.969  0.00  0.00    +0.000 A 
ENDBRANCH  21  23
ENDBRANCH   3  21
TORSDOF 5
ENDMDL
MODEL 4
REMARK VINA RESULT:      -9.1      2.193      6.741
REMARK  Name = 
REMARK  5 active torsions:
REMARK  status: ('A' for Active; 'I' for Inactive)
REMARK    1  A    between atoms: C_2  and  C_16
REMARK    2  A    between atoms: N_3  and  N_4
REMARK    3  A    between atoms: N_4  and  C_5
REMARK    4  A    between atoms: C_21  and  N_22
REMARK    5  A    between atoms: C_23  and  C_24
REMARK                            x       y       z     vdW  Elec       q    Type
REMARK                         _______ _______ _______ _____ _____    ______ ____
ROOT
ATOM      1  O   UNL     1       1.088   4.160  17.329  0.00  0.00    +0.000 OA
ATOM      2  C   UNL     1       2.159   3.739  17.765  0.00  0.00    +0.000 C 
ATOM      3  N   UNL     1       3.200   3.528  16.855  0.00  0.00    +0.000 N 
ATOM      4  H   UNL     1       2.954   3.691  15.884  0.00  0.00    +0.000 HD
ENDROOT
BRANCH   2   5
ATOM      5  C   UNL     1       2.327   3.659  19.243  0.00  0.00    +0.000 A 
ATOM      6  C   UNL     1       2.367   2.334  19.755  0.00  0.00    +0.000 A 
ATOM      7  C   UNL     1       2.244   2.088  21.120  0.00  0.00    +0.000 A 
ATOM      8  C   UNL     1       2.084   3.158  21.982  0.00  0.00    +0.000 A 
ATOM      9  C   UNL     1       2.137   4.473  21.487  0.00  0.00    +0.000 A 
ATOM     10  C   UNL     1       2.301   4.765  20.117  0.00  0.00    +0.000 A 
BRANCH  10  11
ATOM     11  N   UNL     1       2.296   6.087  19.587  0.00  0.00    +0.000 NA
ATOM     12  C   UNL     1       1.773   7.081  20.234  0.00  0.00    +0.000 C 
BRANCH  12  13
ATOM     13  C   UNL     1       1.526   8.398  19.581  0.00  0.00    +0.000 A 
ATOM     14  C   UNL     1       0.780   9.373  20.262  0.00  0.00    +0.000 A 
ATOM     15  C   UNL     1       0.790  10.703  19.826  0.00  0.00    +0.000 A 
ATOM     16  C   UNL     1       1.516  11.054  18.690  0.00  0.00    +0.000 A 
ATOM     17 CL   UNL     1       1.597  12.700  18.200  0.00  0.00    +0.000 Cl
ATOM     18  C   UNL     1       2.203  10.084  17.966  0.00  0.00    +0.000 A 
ATOM     19  C   UNL     1       2.207   8.754  18.406  0.00  0.00    +0.000 A 
ATOM     20 CL   UNL     1       3.152   7.635  17.489  0.00  0.00    +0.000 Cl
ENDBRANCH  12  13
ENDBRANCH  10  11
ENDBRANCH   2   5
BRANCH   3  21
ATOM     21  N   UNL     1       4.551   3.139  17.074  0.00  0.00    +0.000 N 
ATOM     22  H   UNL     1       4.762   3.129  18.073  0.00  0.00    +0.000 HD
BRANCH  21  23
ATOM     23  C   UNL     1       5.564   3.846  16.359  0.00  0.00    +0.000 A 
ATOM     24  C   UNL     1       5.734   3.630  14.996  0.00  0.00    +0.000 A 
ATOM     25  C   UNL     1       6.490   4.533  14.285  0.00  0.00    +0.000 A 
ATOM     26  N   UNL     1       7.135   5.580  14.835  0.00  0.00    +0.000 NA
ATOM     27  C   UNL     1       7.100   5.717  16.166  0.00  0.00    +0.000 A 
ATOM     28  C   UNL     1       7.728   6.822  16.702  0.00  0.00    +0.000 A 
ATOM     29  C   UNL     1       7.764   7.045  18.074  0.00  0.00    +0.000 A 
ATOM     30 CL   UNL     1       8.503   8.470  18.697  0.00  0.00    +0.000 Cl
ATOM     31  C   UNL     1       7.191   6.127  18.936  0.00  0.00    +0.000 A 
ATOM     32  C   UNL     1       6.502   5.026  18.413  0.00  0.00    +0.000 A 
ATOM     33  C   UNL     1       6.383   4.824  17.006  0.00  0.00    +0.000 A 
ENDBRANCH  21  23
ENDBRANCH   3  21
TORSDOF 5
ENDMDL
MODEL 5
REMARK VINA RESULT:      -8.9      1.458      1.616
REMARK  Name = 
REMARK  5 active torsions:
REMARK  status: ('A' for Active; 'I' for Inactive)
REMARK    1  A    between atoms: C_2  and  C_16
REMARK    2  A    between atoms: N_3  and  N_4
REMARK    3  A    between atoms: N_4  and  C_5
REMARK    4  A    between atoms: C_21  and  N_22
REMARK    5  A    between atoms: C_23  and  C_24
REMARK                            x       y       z     vdW  Elec       q    Type
REMARK                         _______ _______ _______ _____ _____    ______ ____
ROOT
ATOM      1  O   UNL     1       4.677   5.679  19.379  0.00  0.00    +0.000 OA
ATOM      2  C   UNL     1       3.499   5.971  19.180  0.00  0.00    +0.000 C 
ATOM      3  N   UNL     1       3.192   7.309  18.908  0.00  0.00    +0.000 N 
ATOM      4  H   UNL     1       3.983   7.943  18.955  0.00  0.00    +0.000 HD
ENDROOT
BRANCH   2   5
ATOM      5  C   UNL     1       2.514   4.860  19.063  0.00  0.00    +0.000 A 
ATOM      6  C   UNL     1       1.622   4.753  20.165  0.00  0.00    +0.000 A 
ATOM      7  C   UNL     1       0.833   3.619  20.342  0.00  0.00    +0.000 A 
ATOM      8  C   UNL     1       0.926   2.589  19.423  0.00  0.00    +0.000 A 
ATOM      9  C   UNL     1       1.739   2.732  18.285  0.00  0.00    +0.000 A 
ATOM     10  C   UNL     1       2.521   3.881  18.048  0.00  0.00    +0.000 A 
BRANCH  10  11
ATOM     11  N   UNL     1       3.398   4.022  16.935  0.00  0.00    +0.000 NA
ATOM     12  C   UNL     1       4.518   3.373  16.860  0.00  0.00    +0.000 C 
BRANCH  12  13
ATOM     13  C   UNL     1       5.552   3.712  15.843  0.00  0.00    +0.000 A 
ATOM     14  C   UNL     1       5.249   3.567  14.479  0.00  0.00    +0.000 A 
ATOM     15  C   UNL     1       6.063   4.157  13.506  0.00  0.00    +0.000 A 
ATOM     16  C   UNL     1       7.202   4.862  13.891  0.00  0.00    +0.000 A 
ATOM     17 CL   UNL     1       8.158   5.657  12.704  0.00  0.00    +0.000 Cl
ATOM     18  C   UNL     1       7.552   4.954  15.235  0.00  0.00    +0.000 A 
ATOM     19  C   UNL     1       6.733   4.376  16.213  0.00  0.00    +0.000 A 
ATOM     20 CL   UNL     1       7.204   4.609  17.859  0.00  0.00    +0.000 Cl
ENDBRANCH  12  13
ENDBRANCH  10  11
ENDBRANCH   2   5
BRANCH   3  21
ATOM     21  N   UNL     1       1.955   7.918  18.557  0.00  0.00    +0.000 N 
ATOM     22  H   UNL     1       1.747   7.760  17.570  0.00  0.00    +0.000 HD
BRANCH  21  23
ATOM     23  C   UNL     1       1.783   9.296  18.887  0.00  0.00    +0.000 A 
ATOM     24  C   UNL     1       2.248  10.283  18.024  0.00  0.00    +0.000 A 
ATOM     25  C   UNL     1       1.803  11.571  18.211  0.00  0.00    +0.000 A 
ATOM     26  N   UNL     1       0.995  11.955  19.218  0.00  0.00    +0.000 NA
ATOM     27  C   UNL     1       0.657  11.045  20.139  0.00  0.00    +0.000 A 
ATOM     28  C   UNL     1      -0.209  11.449  21.135  0.00  0.00    +0.000 A 
ATOM     29  C   UNL     1      -0.606  10.585  22.149  0.00  0.00    +0.000 A 
ATOM     30 CL   UNL     1      -1.737  11.112  23.336  0.00  0.00    +0.000 Cl
ATOM     31  C   UNL     1      -0.102   9.298  22.194  0.00  0.00    +0.000 A 
ATOM     32  C   UNL     1       0.735   8.849  21.166  0.00  0.00    +0.000 A 
ATOM     33  C   UNL     1       1.088   9.694  20.072  0.00  0.00    +0.000 A 
ENDBRANCH  21  23
ENDBRANCH   3  21
TORSDOF 5
ENDMDL
MODEL 6
REMARK VINA RESULT:      -8.7      1.885      2.617
REMARK  Name = 
REMARK  5 active torsions:
REMARK  status: ('A' for Active; 'I' for Inactive)
REMARK    1  A    between atoms: C_2  and  C_16
REMARK    2  A    between atoms: N_3  and  N_4
REMARK    3  A    between atoms: N_4  and  C_5
REMARK    4  A    between atoms: C_21  and  N_22
REMARK    5  A    between atoms: C_23  and  C_24
REMARK                            x       y       z     vdW  Elec       q    Type
REMARK                         _______ _______ _______ _____ _____    ______ ____
ROOT
ATOM      1  O   UNL     1       4.632   5.519  19.635  0.00  0.00    +0.000 OA
ATOM      2  C   UNL     1       3.463   5.852  19.443  0.00  0.00    +0.000 C 
ATOM      3  N   UNL     1       3.187   7.213  19.278  0.00  0.00    +0.000 N 
ATOM      4  H   UNL     1       3.988   7.825  19.390  0.00  0.00    +0.000 HD
ENDROOT
BRANCH   2   5
ATOM      5  C   UNL     1       2.459   4.774  19.220  0.00  0.00    +0.000 A 
ATOM      6  C   UNL     1       1.540   4.603  20.290  0.00  0.00    +0.000 A 
ATOM      7  C   UNL     1       0.724   3.476  20.362  0.00  0.00    +0.000 A 
ATOM      8  C   UNL     1       0.817   2.517  19.369  0.00  0.00    +0.000 A 
ATOM      9  C   UNL     1       1.660   2.730  18.263  0.00  0.00    +0.000 A 
ATOM     10  C   UNL     1       2.470   3.877  18.133  0.00  0.00    +0.000 A 
BRANCH  10  11
ATOM     11  N   UNL     1       3.375   4.083  17.052  0.00  0.00    +0.000 NA
ATOM     12  C   UNL     1       4.436   3.353  16.900  0.00  0.00    +0.000 C 
BRANCH  12  13
ATOM     13  C   UNL     1       5.513   3.729  15.942  0.00  0.00    +0.000 A 
ATOM     14  C   UNL     1       5.278   3.611  14.563  0.00  0.00    +0.000 A 
ATOM     15  C   UNL     1       6.130   4.234  13.644  0.00  0.00    +0.000 A 
ATOM     16  C   UNL     1       7.238   4.946  14.099  0.00  0.00    +0.000 A 
ATOM     17 CL   UNL     1       8.239   5.781  12.978  0.00  0.00    +0.000 Cl
ATOM     18  C   UNL     1       7.521   5.013  15.460  0.00  0.00    +0.000 A 
ATOM     19  C   UNL     1       6.664   4.401  16.385  0.00  0.00    +0.000 A 
ATOM     20 CL   UNL     1       7.052   4.604  18.056  0.00  0.00    +0.000 Cl
ENDBRANCH  12  13
ENDBRANCH  10  11
ENDBRANCH   2   5
BRANCH   3  21
ATOM     21  N   UNL     1       1.967   7.875  18.960  0.00  0.00    +0.000 N 
ATOM     22  H   UNL     1       2.069   8.415  18.101  0.00  0.00    +0.000 HD
BRANCH  21  23
ATOM     23  C   UNL     1       1.365   8.670  19.981  0.00  0.00    +0.000 A 
ATOM     24  C   UNL     1       1.091   8.115  21.227  0.00  0.00    +0.000 A 
ATOM     25  C   UNL     1       0.806   8.968  22.268  0.00  0.00    +0.000 A 
ATOM     26  N   UNL     1       0.707  10.306  22.147  0.00  0.00    +0.000 NA
ATOM     27  C   UNL     1       0.823  10.840  20.926  0.00  0.00    +0.000 A 
ATOM     28  C   UNL     1       0.766  12.216  20.833  0.00  0.00    +0.000 A 
ATOM     29  C   UNL     1       0.857  12.867  19.608  0.00  0.00    +0.000 A 
ATOM     30 CL   UNL     1       0.844  14.588  19.544  0.00  0.00    +0.000 Cl
ATOM     31  C   UNL     1       0.975  12.131  18.444  0.00  0.00    +0.000 A 
ATOM     32  C   UNL     1       1.089  10.738  18.517  0.00  0.00    +0.000 A 
ATOM     33  C   UNL     1       1.080  10.057  19.771  0.00  0.00    +0.000 A 
ENDBRANCH  21  23
ENDBRANCH   3  21
TORSDOF 5
ENDMDL
MODEL 7
REMARK VINA RESULT:      -8.7      2.024      7.860
REMARK  Name = 
REMARK  5 active torsions:
REMARK  status: ('A' for Active; 'I' for Inactive)
REMARK    1  A    between atoms: C_2  and  C_16
REMARK    2  A    between atoms: N_3  and  N_4
REMARK    3  A    between atoms: N_4  and  C_5
REMARK    4  A    between atoms: C_21  and  N_22
REMARK    5  A    between atoms: C_23  and  C_24
REMARK                            x       y       z     vdW  Elec       q    Type
REMARK                         _______ _______ _______ _____ _____    ______ ____
ROOT
ATOM      1  O   UNL     1       1.292   4.420  17.397  0.00  0.00    +0.000 OA
ATOM      2  C   UNL     1       2.277   4.794  18.031  0.00  0.00    +0.000 C 
ATOM      3  N   UNL     1       3.039   5.842  17.503  0.00  0.00    +0.000 N 
ATOM      4  H   UNL     1       2.734   6.171  16.593  0.00  0.00    +0.000 HD
ENDROOT
BRANCH   2   5
ATOM      5  C   UNL     1       2.484   4.231  19.395  0.00  0.00    +0.000 A 
ATOM      6  C   UNL     1       3.221   3.016  19.419  0.00  0.00    +0.000 A 
ATOM      7  C   UNL     1       3.264   2.227  20.566  0.00  0.00    +0.000 A 
ATOM      8  C   UNL     1       2.579   2.644  21.693  0.00  0.00    +0.000 A 
ATOM      9  C   UNL     1       1.926   3.890  21.698  0.00  0.00    +0.000 A 
ATOM     10  C   UNL     1       1.893   4.737  20.571  0.00  0.00    +0.000 A 
BRANCH  10  11
ATOM     11  N   UNL     1       1.187   5.973  20.535  0.00  0.00    +0.000 NA
ATOM     12  C   UNL     1       1.760   7.096  20.836  0.00  0.00    +0.000 C 
BRANCH  12  13
ATOM     13  C   UNL     1       0.973   8.342  21.058  0.00  0.00    +0.000 A 
ATOM     14  C   UNL     1       0.464   8.613  22.339  0.00  0.00    +0.000 A 
ATOM     15  C   UNL     1      -0.003   9.893  22.657  0.00  0.00    +0.000 A 
ATOM     16  C   UNL     1       0.004  10.895  21.688  0.00  0.00    +0.000 A 
ATOM     17 CL   UNL     1      -0.492  12.488  22.100  0.00  0.00    +0.000 Cl
ATOM     18  C   UNL     1       0.441  10.620  20.395  0.00  0.00    +0.000 A 
ATOM     19  C   UNL     1       0.921   9.343  20.075  0.00  0.00    +0.000 A 
ATOM     20 CL   UNL     1       1.515   9.117  18.468  0.00  0.00    +0.000 Cl
ENDBRANCH  12  13
ENDBRANCH  10  11
ENDBRANCH   2   5
BRANCH   3  21
ATOM     21  N   UNL     1       4.159   6.532  18.045  0.00  0.00    +0.000 N 
ATOM     22  H   UNL     1       4.110   7.525  17.816  0.00  0.00    +0.000 HD
BRANCH  21  23
ATOM     23  C   UNL     1       5.456   6.016  17.749  0.00  0.00    +0.000 A 
ATOM     24  C   UNL     1       6.388   5.846  18.768  0.00  0.00    +0.000 A 
ATOM     25  C   UNL     1       7.496   5.073  18.511  0.00  0.00    +0.000 A 
ATOM     26  N   UNL     1       7.775   4.521  17.315  0.00  0.00    +0.000 NA
ATOM     27  C   UNL     1       6.963   4.796  16.287  0.00  0.00    +0.000 A 
ATOM     28  C   UNL     1       7.241   4.182  15.083  0.00  0.00    +0.000 A 
ATOM     29  C   UNL     1       6.469   4.417  13.951  0.00  0.00    +0.000 A 
ATOM     30 CL   UNL     1       6.813   3.581  12.485  0.00  0.00    +0.000 Cl
ATOM     31  C   UNL     1       5.416   5.311  14.009  0.00  0.00    +0.000 A 
ATOM     32  C   UNL     1       5.081   5.905  15.231  0.00  0.00    +0.000 A 
ATOM     33  C   UNL     1       5.810   5.613  16.423  0.00  0.00    +0.000 A 
ENDBRANCH  21  23
ENDBRANCH   3  21
TORSDOF 5
ENDMDL
MODEL 8
REMARK VINA RESULT:      -8.7      1.977      7.552
REMARK  Name = 
REMARK  5 active torsions:
REMARK  status: ('A' for Active; 'I' for Inactive)
REMARK    1  A    between atoms: C_2  and  C_16
REMARK    2  A    between atoms: N_3  and  N_4
REMARK    3  A    between atoms: N_4  and  C_5
REMARK    4  A    between atoms: C_21  and  N_22
REMARK    5  A    between atoms: C_23  and  C_24
REMARK                            x       y       z     vdW  Elec       q    Type
REMARK                         _______ _______ _______ _____ _____    ______ ____
ROOT
ATOM      1  O   UNL     1       1.271   4.476  17.232  0.00  0.00    +0.000 OA
ATOM      2  C   UNL     1       2.233   4.779  17.936  0.00  0.00    +0.000 C 
ATOM      3  N   UNL     1       3.102   5.770  17.469  0.00  0.00    +0.000 N 
ATOM      4  H   UNL     1       2.888   6.119  16.541  0.00  0.00    +0.000 HD
ENDROOT
BRANCH   2   5
ATOM      5  C   UNL     1       2.301   4.204  19.309  0.00  0.00    +0.000 A 
ATOM      6  C   UNL     1       2.244   2.785  19.351  0.00  0.00    +0.000 A 
ATOM      7  C   UNL     1       2.021   2.110  20.549  0.00  0.00    +0.000 A 
ATOM      8  C   UNL     1       1.856   2.844  21.710  0.00  0.00    +0.000 A 
ATOM      9  C   UNL     1       2.003   4.243  21.684  0.00  0.00    +0.000 A 
ATOM     10  C   UNL     1       2.270   4.959  20.500  0.00  0.00    +0.000 A 
BRANCH  10  11
ATOM     11  N   UNL     1       2.361   6.379  20.441  0.00  0.00    +0.000 NA
ATOM     12  C   UNL     1       1.317   7.137  20.565  0.00  0.00    +0.000 C 
BRANCH  12  13
ATOM     13  C   UNL     1       1.363   8.591  20.241  0.00  0.00    +0.000 A 
ATOM     14  C   UNL     1       1.624   8.993  18.921  0.00  0.00    +0.000 A 
ATOM     15  C   UNL     1       1.372  10.310  18.520  0.00  0.00    +0.000 A 
ATOM     16  C   UNL     1       0.892  11.236  19.444  0.00  0.00    +0.000 A 
ATOM     17 CL   UNL     1       0.504  12.831  18.934  0.00  0.00    +0.000 Cl
ATOM     18  C   UNL     1       0.696  10.868  20.772  0.00  0.00    +0.000 A 
ATOM     19  C   UNL     1       0.934   9.548  21.175  0.00  0.00    +0.000 A 
ATOM     20 CL   UNL     1       0.586   9.164  22.824  0.00  0.00    +0.000 Cl
ENDBRANCH  12  13
ENDBRANCH  10  11
ENDBRANCH   2   5
BRANCH   3  21
ATOM     21  N   UNL     1       4.228   6.379  18.093  0.00  0.00    +0.000 N 
ATOM     22  H   UNL     1       4.190   7.393  17.983  0.00  0.00    +0.000 HD
BRANCH  21  23
ATOM     23  C   UNL     1       5.521   5.888  17.741  0.00  0.00    +0.000 A 
ATOM     24  C   UNL     1       6.495   5.728  18.721  0.00  0.00    +0.000 A 
ATOM     25  C   UNL     1       7.605   4.976  18.415  0.00  0.00    +0.000 A 
ATOM     26  N   UNL     1       7.845   4.437  17.204  0.00  0.00    +0.000 NA
ATOM     27  C   UNL     1       6.989   4.704  16.212  0.00  0.00    +0.000 A 
ATOM     28  C   UNL     1       7.229   4.104  14.993  0.00  0.00    +0.000 A 
ATOM     29  C   UNL     1       6.409   4.332  13.894  0.00  0.00    +0.000 A 
ATOM     30 CL   UNL     1       6.708   3.513  12.409  0.00  0.00    +0.000 Cl
ATOM     31  C   UNL     1       5.343   5.207  14.000  0.00  0.00    +0.000 A 
ATOM     32  C   UNL     1       5.047   5.787  15.240  0.00  0.00    +0.000 A 
ATOM     33  C   UNL     1       5.828   5.500  16.399  0.00  0.00    +0.000 A 
ENDBRANCH  21  23
ENDBRANCH   3  21
TORSDOF 5
ENDMDL
MODEL 9
REMARK VINA RESULT:      -8.7      3.893      6.125
REMARK  Name = 
REMARK  5 active torsions:
REMARK  status: ('A' for Active; 'I' for Inactive)
REMARK    1  A    between atoms: C_2  and  C_16
REMARK    2  A    between atoms: N_3  and  N_4
REMARK    3  A    between atoms: N_4  and  C_5
REMARK    4  A    between atoms: C_21  and  N_22
REMARK    5  A    between atoms: C_23  and  C_24
REMARK                            x       y       z     vdW  Elec       q    Type
REMARK                         _______ _______ _______ _____ _____    ______ ____
ROOT
ATOM      1  O   UNL     1       1.578  11.906  19.376  0.00  0.00    +0.000 OA
ATOM      2  C   UNL     1       0.590  11.173  19.384  0.00  0.00    +0.000 C 
ATOM      3  N   UNL     1      -0.044  10.913  18.165  0.00  0.00    +0.000 N 
ATOM      4  H   UNL     1       0.344  11.410  17.370  0.00  0.00    +0.000 HD
ENDROOT
BRANCH   2   5
ATOM      5  C   UNL     1       0.250  10.473  20.655  0.00  0.00    +0.000 A 
ATOM      6  C   UNL     1      -0.586  11.222  21.527  0.00  0.00    +0.000 A 
ATOM      7  C   UNL     1      -0.769  10.835  22.853  0.00  0.00    +0.000 A 
ATOM      8  C   UNL     1      -0.124   9.701  23.314  0.00  0.00    +0.000 A 
ATOM      9  C   UNL     1       0.629   8.910  22.429  0.00  0.00    +0.000 A 
ATOM     10  C   UNL     1       0.805   9.245  21.070  0.00  0.00    +0.000 A 
BRANCH  10  11
ATOM     11  N   UNL     1       1.613   8.492  20.171  0.00  0.00    +0.000 NA
ATOM     12  C   UNL     1       1.696   7.201  20.244  0.00  0.00    +0.000 C 
BRANCH  12  13
ATOM     13  C   UNL     1       2.732   6.439  19.491  0.00  0.00    +0.000 A 
ATOM     14  C   UNL     1       3.154   5.190  19.976  0.00  0.00    +0.000 A 
ATOM     15  C   UNL     1       3.879   4.321  19.153  0.00  0.00    +0.000 A 
ATOM     16  C   UNL     1       4.214   4.711  17.858  0.00  0.00    +0.000 A 
ATOM     17 CL   UNL     1       5.032   3.613  16.819  0.00  0.00    +0.000 Cl
ATOM     18  C   UNL     1       3.862   5.973  17.390  0.00  0.00    +0.000 A 
ATOM     19  C   UNL     1       3.125   6.842  18.205  0.00  0.00    +0.000 A 
ATOM     20 CL   UNL     1       2.665   8.356  17.511  0.00  0.00    +0.000 Cl
ENDBRANCH  12  13
ENDBRANCH  10  11
ENDBRANCH   2   5
BRANCH   3  21
ATOM     21  N   UNL     1      -1.133  10.049  17.857  0.00  0.00    +0.000 N 
ATOM     22  H   UNL     1      -0.805   9.233  17.340  0.00  0.00    +0.000 HD
BRANCH  21  23
ATOM     23  C   UNL     1      -2.268  10.626  17.211  0.00  0.00    +0.000 A 
ATOM     24  C   UNL     1      -2.498  10.384  15.860  0.00  0.00    +0.000 A 
ATOM     25  C   UNL     1      -3.738  10.688  15.349  0.00  0.00    +0.000 A 
ATOM     26  N   UNL     1      -4.727  11.269  16.055  0.00  0.00    +0.000 NA
ATOM     27  C   UNL     1      -4.471  11.641  17.315  0.00  0.00    +0.000 A 
ATOM     28  C   UNL     1      -5.513  12.191  18.034  0.00  0.00    +0.000 A 
ATOM     29  C   UNL     1      -5.344  12.626  19.343  0.00  0.00    +0.000 A 
ATOM     30 CL   UNL     1      -6.686  13.248  20.224  0.00  0.00    +0.000 Cl
ATOM     31  C   UNL     1      -4.099  12.544  19.941  0.00  0.00    +0.000 A 
ATOM     32  C   UNL     1      -3.041  11.941  19.251  0.00  0.00    +0.000 A 
ATOM     33  C   UNL     1      -3.215  11.413  17.937  0.00  0.00    +0.000 A 
ENDBRANCH  21  23
ENDBRANCH   3  21
TORSDOF 5
ENDMDL
