MODEL 1
REMARK VINA RESULT:      -7.7      0.000      0.000
REMARK  Name = 
REMARK  11 active torsions:
REMARK  status: ('A' for Active; 'I' for Inactive)
REMARK    1  A    between atoms: C_1  and  C_2
REMARK    2  A    between atoms: C_2  and  C_3
REMARK    3  A    between atoms: C_3  and  C_4
REMARK    4  A    between atoms: C_3  and  C_5
REMARK    5  A    between atoms: C_5  and  C_6
REMARK    6  A    between atoms: C_5  and  N_14
REMARK    7  A    between atoms: C_16  and  C_17
REMARK    8  A    between atoms: C_17  and  N_18
REMARK    9  A    between atoms: C_17  and  C_19
REMARK   10  A    between atoms: C_19  and  C_20
REMARK   11  A    between atoms: C_23  and  O_24
REMARK                            x       y       z     vdW  Elec       q    Type
REMARK                         _______ _______ _______ _____ _____    ______ ____
ROOT
ATOM      1  N   UNL     1       2.681   6.812  19.598  0.00  0.00    +0.000 N 
ATOM      2  C   UNL     1       2.518   7.691  18.560  0.00  0.00    +0.000 A 
ATOM      3  C   UNL     1       1.640   8.640  19.047  0.00  0.00    +0.000 A 
ATOM      4  N   UNL     1       1.450   8.407  20.386  0.00  0.00    +0.000 NA
ATOM      5  N   UNL     1       2.095   7.296  20.713  0.00  0.00    +0.000 NA
ENDROOT
BRANCH   1   6
ATOM      6  C   UNL     1       3.271   5.465  19.624  0.00  0.00    +0.000 C 
BRANCH   6   7
ATOM      7  C   UNL     1       3.547   4.946  18.197  0.00  0.00    +0.000 C 
ATOM      8  O   UNL     1       2.619   4.592  17.464  0.00  0.00    +0.000 OA
ATOM      9  N   UNL     1       4.852   4.889  17.712  0.00  0.00    +0.000 N 
ATOM     10  C   UNL     1       5.013   4.606  16.282  0.00  0.00    +0.000 C 
ATOM     11  C   UNL     1       6.348   5.142  15.741  0.00  0.00    +0.000 C 
ATOM     12  N   UNL     1       7.509   4.662  16.507  0.00  0.00    +0.000 NA
ATOM     13  C   UNL     1       7.332   4.960  17.941  0.00  0.00    +0.000 C 
ATOM     14  C   UNL     1       5.998   4.430  18.509  0.00  0.00    +0.000 C 
ATOM     15  H   UNL     1       8.349   5.130  16.168  0.00  0.00    +0.000 HD
ENDBRANCH   6   7
BRANCH   6  16
ATOM     16  C   UNL     1       2.431   4.481  20.528  0.00  0.00    +0.000 C 
ATOM     17  C   UNL     1       0.922   4.485  20.205  0.00  0.00    +0.000 C 
BRANCH  16  19
ATOM     18  C   UNL     1       2.006   2.014  19.780  0.00  0.00    +0.000 C 
ATOM     19  C   UNL     1       2.900   3.002  20.511  0.00  0.00    +0.000 C 
ENDBRANCH  16  19
ENDBRANCH   6  16
ENDBRANCH   1   6
BRANCH   3  20
ATOM     20  C   UNL     1       0.949   9.798  18.382  0.00  0.00    +0.000 C 
BRANCH  20  21
ATOM     21  N   UNL     1       1.939  10.483  17.531  0.00  0.00    +0.000 NA
ATOM     22  H   UNL     1       2.496   9.783  17.044  0.00  0.00    +0.000 HD
ATOM     23  H   UNL     1       2.590  10.968  18.151  0.00  0.00    +0.000 HD
ENDBRANCH  20  21
BRANCH  20  24
ATOM     24  C   UNL     1      -0.300   9.423  17.552  0.00  0.00    +0.000 C 
BRANCH  24  25
ATOM     25  C   UNL     1      -1.531  10.261  17.841  0.00  0.00    +0.000 A 
ATOM     26  C   UNL     1      -1.524  11.231  18.853  0.00  0.00    +0.000 A 
ATOM     27  C   UNL     1      -2.674  11.983  19.128  0.00  0.00    +0.000 A 
ATOM     28  C   UNL     1      -3.825  11.769  18.385  0.00  0.00    +0.000 A 
ATOM     29  C   UNL     1      -3.844  10.834  17.363  0.00  0.00    +0.000 A 
ATOM     30  C   UNL     1      -2.697  10.090  17.082  0.00  0.00    +0.000 A 
BRANCH  28  31
ATOM     31  O   UNL     1      -4.968  12.473  18.618  0.00  0.00    +0.000 OA
ATOM     32  H   UNL     1      -5.730  11.893  18.401  0.00  0.00    +0.000 HD
ENDBRANCH  28  31
ENDBRANCH  24  25
ENDBRANCH  20  24
ENDBRANCH   3  20
TORSDOF 9
ENDMDL
MODEL 2
REMARK VINA RESULT:      -7.7      1.623      3.971
REMARK  Name = 
REMARK  11 active torsions:
REMARK  status: ('A' for Active; 'I' for Inactive)
REMARK    1  A    between atoms: C_1  and  C_2
REMARK    2  A    between atoms: C_2  and  C_3
REMARK    3  A    between atoms: C_3  and  C_4
REMARK    4  A    between atoms: C_3  and  C_5
REMARK    5  A    between atoms: C_5  and  C_6
REMARK    6  A    between atoms: C_5  and  N_14
REMARK    7  A    between atoms: C_16  and  C_17
REMARK    8  A    between atoms: C_17  and  N_18
REMARK    9  A    between atoms: C_17  and  C_19
REMARK   10  A    between atoms: C_19  and  C_20
REMARK   11  A    between atoms: C_23  and  O_24
REMARK                            x       y       z     vdW  Elec       q    Type
REMARK                         _______ _______ _______ _____ _____    ______ ____
ROOT
ATOM      1  N   UNL     1       3.425   6.591  18.197  0.00  0.00    +0.000 N 
ATOM      2  C   UNL     1       3.040   7.732  17.546  0.00  0.00    +0.000 A 
ATOM      3  C   UNL     1       2.186   8.363  18.430  0.00  0.00    +0.000 A 
ATOM      4  N   UNL     1       2.224   7.688  19.624  0.00  0.00    +0.000 NA
ATOM      5  N   UNL     1       2.989   6.616  19.475  0.00  0.00    +0.000 NA
ENDROOT
BRANCH   1   6
ATOM      6  C   UNL     1       4.103   5.387  17.694  0.00  0.00    +0.000 C 
BRANCH   6   7
ATOM      7  C   UNL     1       4.258   4.325  18.803  0.00  0.00    +0.000 C 
ATOM      8  O   UNL     1       5.375   3.933  19.150  0.00  0.00    +0.000 OA
ATOM      9  N   UNL     1       3.132   3.808  19.440  0.00  0.00    +0.000 N 
ATOM     10  C   UNL     1       3.366   2.983  20.630  0.00  0.00    +0.000 C 
ATOM     11  C   UNL     1       2.148   2.973  21.567  0.00  0.00    +0.000 C 
ATOM     12  N   UNL     1       0.907   2.574  20.886  0.00  0.00    +0.000 NA
ATOM     13  C   UNL     1       0.684   3.418  19.696  0.00  0.00    +0.000 C 
ATOM     14  C   UNL     1       1.894   3.443  18.737  0.00  0.00    +0.000 C 
ATOM     15  H   UNL     1       0.123   2.687  21.528  0.00  0.00    +0.000 HD
ENDBRANCH   6   7
BRANCH   6  16
ATOM     16  C   UNL     1       5.444   5.748  16.941  0.00  0.00    +0.000 C 
ATOM     17  C   UNL     1       5.296   5.788  15.406  0.00  0.00    +0.000 C 
BRANCH  16  19
ATOM     18  C   UNL     1       7.616   7.058  17.560  0.00  0.00    +0.000 C 
ATOM     19  C   UNL     1       6.109   7.081  17.374  0.00  0.00    +0.000 C 
ENDBRANCH  16  19
ENDBRANCH   6  16
ENDBRANCH   1   6
BRANCH   3  20
ATOM     20  C   UNL     1       1.320   9.583  18.285  0.00  0.00    +0.000 C 
BRANCH  20  21
ATOM     21  N   UNL     1       2.079  10.584  17.514  0.00  0.00    +0.000 NA
ATOM     22  H   UNL     1       3.071  10.361  17.571  0.00  0.00    +0.000 HD
ATOM     23  H   UNL     1       1.974  11.481  17.992  0.00  0.00    +0.000 HD
ENDBRANCH  20  21
BRANCH  20  24
ATOM     24  C   UNL     1      -0.056   9.333  17.627  0.00  0.00    +0.000 C 
BRANCH  24  25
ATOM     25  C   UNL     1      -1.164  10.254  18.099  0.00  0.00    +0.000 A 
ATOM     26  C   UNL     1      -2.381  10.336  17.408  0.00  0.00    +0.000 A 
ATOM     27  C   UNL     1      -3.389  11.210  17.839  0.00  0.00    +0.000 A 
ATOM     28  C   UNL     1      -3.181  11.992  18.965  0.00  0.00    +0.000 A 
ATOM     29  C   UNL     1      -1.997  11.905  19.678  0.00  0.00    +0.000 A 
ATOM     30  C   UNL     1      -0.995  11.030  19.255  0.00  0.00    +0.000 A 
BRANCH  28  31
ATOM     31  O   UNL     1      -4.130  12.858  19.419  0.00  0.00    +0.000 OA
ATOM     32  H   UNL     1      -4.966  12.667  18.942  0.00  0.00    +0.000 HD
ENDBRANCH  28  31
ENDBRANCH  24  25
ENDBRANCH  20  24
ENDBRANCH   3  20
TORSDOF 9
ENDMDL
MODEL 3
REMARK VINA RESULT:      -7.6      2.999      8.806
REMARK  Name = 
REMARK  11 active torsions:
REMARK  status: ('A' for Active; 'I' for Inactive)
REMARK    1  A    between atoms: C_1  and  C_2
REMARK    2  A    between atoms: C_2  and  C_3
REMARK    3  A    between atoms: C_3  and  C_4
REMARK    4  A    between atoms: C_3  and  C_5
REMARK    5  A    between atoms: C_5  and  C_6
REMARK    6  A    between atoms: C_5  and  N_14
REMARK    7  A    between atoms: C_16  and  C_17
REMARK    8  A    between atoms: C_17  and  N_18
REMARK    9  A    between atoms: C_17  and  C_19
REMARK   10  A    between atoms: C_19  and  C_20
REMARK   11  A    between atoms: C_23  and  O_24
REMARK                            x       y       z     vdW  Elec       q    Type
REMARK                         _______ _______ _______ _____ _____    ______ ____
ROOT
ATOM      1  N   UNL     1       1.421   9.792  18.893  0.00  0.00    +0.000 N 
ATOM      2  C   UNL     1       1.605   8.798  19.816  0.00  0.00    +0.000 A 
ATOM      3  C   UNL     1       2.195   7.771  19.104  0.00  0.00    +0.000 A 
ATOM      4  N   UNL     1       2.502   8.235  17.850  0.00  0.00    +0.000 NA
ATOM      5  N   UNL     1       2.034   9.470  17.735  0.00  0.00    +0.000 NA
ENDROOT
BRANCH   1   6
ATOM      6  C   UNL     1       0.613  11.019  18.961  0.00  0.00    +0.000 C 
BRANCH   6   7
ATOM      7  C   UNL     1       1.097  11.949  20.092  0.00  0.00    +0.000 C 
ATOM      8  O   UNL     1       0.862  11.682  21.274  0.00  0.00    +0.000 OA
ATOM      9  N   UNL     1       1.827  13.097  19.791  0.00  0.00    +0.000 N 
ATOM     10  C   UNL     1       2.446  13.801  20.920  0.00  0.00    +0.000 C 
ATOM     11  C   UNL     1       3.661  14.633  20.478  0.00  0.00    +0.000 C 
ATOM     12  N   UNL     1       3.347  15.564  19.384  0.00  0.00    +0.000 NA
ATOM     13  C   UNL     1       2.731  14.838  18.256  0.00  0.00    +0.000 C 
ATOM     14  C   UNL     1       1.507  13.997  18.675  0.00  0.00    +0.000 C 
ATOM     15  H   UNL     1       4.209  16.009  19.066  0.00  0.00    +0.000 HD
ENDBRANCH   6   7
BRANCH   6  16
ATOM     16  C   UNL     1      -0.932  10.695  18.996  0.00  0.00    +0.000 C 
ATOM     17  C   UNL     1      -1.807  11.909  19.372  0.00  0.00    +0.000 C 
BRANCH  16  19
ATOM     18  C   UNL     1      -3.011   9.837  17.667  0.00  0.00    +0.000 C 
ATOM     19  C   UNL     1      -1.514  10.097  17.688  0.00  0.00    +0.000 C 
ENDBRANCH  16  19
ENDBRANCH   6  16
ENDBRANCH   1   6
BRANCH   3  20
ATOM     20  C   UNL     1       2.535   6.356  19.485  0.00  0.00    +0.000 C 
BRANCH  20  21
ATOM     21  N   UNL     1       1.482   5.870  20.395  0.00  0.00    +0.000 NA
ATOM     22  H   UNL     1       0.782   5.370  19.850  0.00  0.00    +0.000 HD
ATOM     23  H   UNL     1       1.002   6.689  20.771  0.00  0.00    +0.000 HD
ENDBRANCH  20  21
BRANCH  20  24
ATOM     24  C   UNL     1       2.705   5.384  18.295  0.00  0.00    +0.000 C 
BRANCH  24  25
ATOM     25  C   UNL     1       4.142   5.061  17.937  0.00  0.00    +0.000 A 
ATOM     26  C   UNL     1       4.465   4.446  16.719  0.00  0.00    +0.000 A 
ATOM     27  C   UNL     1       5.794   4.129  16.410  0.00  0.00    +0.000 A 
ATOM     28  C   UNL     1       6.799   4.436  17.315  0.00  0.00    +0.000 A 
ATOM     29  C   UNL     1       6.505   5.068  18.512  0.00  0.00    +0.000 A 
ATOM     30  C   UNL     1       5.182   5.392  18.818  0.00  0.00    +0.000 A 
BRANCH  28  31
ATOM     31  O   UNL     1       8.105   4.144  17.060  0.00  0.00    +0.000 OA
ATOM     32  H   UNL     1       8.196   3.167  17.032  0.00  0.00    +0.000 HD
ENDBRANCH  28  31
ENDBRANCH  24  25
ENDBRANCH  20  24
ENDBRANCH   3  20
TORSDOF 9
ENDMDL
MODEL 4
REMARK VINA RESULT:      -7.5      1.838      2.301
REMARK  Name = 
REMARK  11 active torsions:
REMARK  status: ('A' for Active; 'I' for Inactive)
REMARK    1  A    between atoms: C_1  and  C_2
REMARK    2  A    between atoms: C_2  and  C_3
REMARK    3  A    between atoms: C_3  and  C_4
REMARK    4  A    between atoms: C_3  and  C_5
REMARK    5  A    between atoms: C_5  and  C_6
REMARK    6  A    between atoms: C_5  and  N_14
REMARK    7  A    between atoms: C_16  and  C_17
REMARK    8  A    between atoms: C_17  and  N_18
REMARK    9  A    between atoms: C_17  and  C_19
REMARK   10  A    between atoms: C_19  and  C_20
REMARK   11  A    between atoms: C_23  and  O_24
REMARK                            x       y       z     vdW  Elec       q    Type
REMARK                         _______ _______ _______ _____ _____    ______ ____
ROOT
ATOM      1  N   UNL     1       2.491   6.879  19.122  0.00  0.00    +0.000 N 
ATOM      2  C   UNL     1       1.830   7.887  19.772  0.00  0.00    +0.000 A 
ATOM      3  C   UNL     1       1.789   8.920  18.855  0.00  0.00    +0.000 A 
ATOM      4  N   UNL     1       2.255   8.449  17.653  0.00  0.00    +0.000 NA
ATOM      5  N   UNL     1       2.672   7.203  17.824  0.00  0.00    +0.000 NA
ENDROOT
BRANCH   1   6
ATOM      6  C   UNL     1       3.080   5.635  19.640  0.00  0.00    +0.000 C 
BRANCH   6   7
ATOM      7  C   UNL     1       3.536   4.710  18.492  0.00  0.00    +0.000 C 
ATOM      8  O   UNL     1       2.724   3.999  17.894  0.00  0.00    +0.000 OA
ATOM      9  N   UNL     1       4.874   4.682  18.104  0.00  0.00    +0.000 N 
ATOM     10  C   UNL     1       5.188   3.958  16.867  0.00  0.00    +0.000 C 
ATOM     11  C   UNL     1       6.487   4.467  16.222  0.00  0.00    +0.000 C 
ATOM     12  N   UNL     1       7.630   4.447  17.148  0.00  0.00    +0.000 NA
ATOM     13  C   UNL     1       7.298   5.183  18.384  0.00  0.00    +0.000 C 
ATOM     14  C   UNL     1       5.997   4.689  19.051  0.00  0.00    +0.000 C 
ATOM     15  H   UNL     1       8.432   4.890  16.699  0.00  0.00    +0.000 HD
ENDBRANCH   6   7
BRANCH   6  16
ATOM     16  C   UNL     1       2.138   4.945  20.703  0.00  0.00    +0.000 C 
ATOM     17  C   UNL     1       0.755   4.556  20.139  0.00  0.00    +0.000 C 
BRANCH  16  19
ATOM     18  C   UNL     1       1.765   2.530  21.625  0.00  0.00    +0.000 C 
ATOM     19  C   UNL     1       2.726   3.683  21.389  0.00  0.00    +0.000 C 
ENDBRANCH  16  19
ENDBRANCH   6  16
ENDBRANCH   1   6
BRANCH   3  20
ATOM     20  C   UNL     1       1.327  10.345  18.974  0.00  0.00    +0.000 C 
BRANCH  20  21
ATOM     21  N   UNL     1       1.983  11.121  17.906  0.00  0.00    +0.000 NA
ATOM     22  H   UNL     1       1.593  10.841  17.008  0.00  0.00    +0.000 HD
ATOM     23  H   UNL     1       2.963  10.835  17.880  0.00  0.00    +0.000 HD
ENDBRANCH  20  21
BRANCH  20  24
ATOM     24  C   UNL     1      -0.206  10.541  18.912  0.00  0.00    +0.000 C 
BRANCH  24  25
ATOM     25  C   UNL     1      -0.829  11.084  20.184  0.00  0.00    +0.000 A 
ATOM     26  C   UNL     1      -0.417  10.628  21.443  0.00  0.00    +0.000 A 
ATOM     27  C   UNL     1      -1.017  11.118  22.611  0.00  0.00    +0.000 A 
ATOM     28  C   UNL     1      -2.022  12.070  22.516  0.00  0.00    +0.000 A 
ATOM     29  C   UNL     1      -2.424  12.553  21.282  0.00  0.00    +0.000 A 
ATOM     30  C   UNL     1      -1.821  12.072  20.119  0.00  0.00    +0.000 A 
BRANCH  28  31
ATOM     31  O   UNL     1      -2.637  12.573  23.623  0.00  0.00    +0.000 OA
ATOM     32  H   UNL     1      -3.575  12.748  23.394  0.00  0.00    +0.000 HD
ENDBRANCH  28  31
ENDBRANCH  24  25
ENDBRANCH  20  24
ENDBRANCH   3  20
TORSDOF 9
ENDMDL
MODEL 5
REMARK VINA RESULT:      -7.5      1.427      2.019
REMARK  Name = 
REMARK  11 active torsions:
REMARK  status: ('A' for Active; 'I' for Inactive)
REMARK    1  A    between atoms: C_1  and  C_2
REMARK    2  A    between atoms: C_2  and  C_3
REMARK    3  A    between atoms: C_3  and  C_4
REMARK    4  A    between atoms: C_3  and  C_5
REMARK    5  A    between atoms: C_5  and  C_6
REMARK    6  A    between atoms: C_5  and  N_14
REMARK    7  A    between atoms: C_16  and  C_17
REMARK    8  A    between atoms: C_17  and  N_18
REMARK    9  A    between atoms: C_17  and  C_19
REMARK   10  A    between atoms: C_19  and  C_20
REMARK   11  A    between atoms: C_23  and  O_24
REMARK                            x       y       z     vdW  Elec       q    Type
REMARK                         _______ _______ _______ _____ _____    ______ ____
ROOT
ATOM      1  N   UNL     1       2.695   5.348  19.555  0.00  0.00    +0.000 N 
ATOM      2  C   UNL     1       1.966   5.998  20.514  0.00  0.00    +0.000 A 
ATOM      3  C   UNL     1       1.772   7.266  20.000  0.00  0.00    +0.000 A 
ATOM      4  N   UNL     1       2.225   7.281  18.705  0.00  0.00    +0.000 NA
ATOM      5  N   UNL     1       2.777   6.106  18.440  0.00  0.00    +0.000 NA
ENDROOT
BRANCH   1   6
ATOM      6  C   UNL     1       3.435   4.079  19.615  0.00  0.00    +0.000 C 
BRANCH   6   7
ATOM      7  C   UNL     1       4.115   3.760  18.267  0.00  0.00    +0.000 C 
ATOM      8  O   UNL     1       3.729   2.816  17.573  0.00  0.00    +0.000 OA
ATOM      9  N   UNL     1       5.165   4.552  17.808  0.00  0.00    +0.000 N 
ATOM     10  C   UNL     1       5.603   4.331  16.425  0.00  0.00    +0.000 C 
ATOM     11  C   UNL     1       6.287   5.576  15.837  0.00  0.00    +0.000 C 
ATOM     12  N   UNL     1       7.397   6.064  16.669  0.00  0.00    +0.000 NA
ATOM     13  C   UNL     1       6.938   6.286  18.054  0.00  0.00    +0.000 C 
ATOM     14  C   UNL     1       6.248   5.049  18.667  0.00  0.00    +0.000 C 
ATOM     15  H   UNL     1       7.741   6.945  16.285  0.00  0.00    +0.000 HD
ENDBRANCH   6   7
BRANCH   6  16
ATOM     16  C   UNL     1       2.540   2.911  20.189  0.00  0.00    +0.000 C 
ATOM     17  C   UNL     1       2.649   2.748  21.719  0.00  0.00    +0.000 C 
BRANCH  16  19
ATOM     18  C   UNL     1       0.565   2.215  18.629  0.00  0.00    +0.000 C 
ATOM     19  C   UNL     1       1.031   3.001  19.843  0.00  0.00    +0.000 C 
ENDBRANCH  16  19
ENDBRANCH   6  16
ENDBRANCH   1   6
BRANCH   3  20
ATOM     20  C   UNL     1       1.170   8.506  20.599  0.00  0.00    +0.000 C 
BRANCH  20  21
ATOM     21  N   UNL     1       1.780   8.707  21.926  0.00  0.00    +0.000 NA
ATOM     22  H   UNL     1       2.433   7.947  22.106  0.00  0.00    +0.000 HD
ATOM     23  H   UNL     1       1.039   8.602  22.621  0.00  0.00    +0.000 HD
ENDBRANCH  20  21
BRANCH  20  24
ATOM     24  C   UNL     1       1.321   9.784  19.742  0.00  0.00    +0.000 C 
BRANCH  24  25
ATOM     25  C   UNL     1       0.014  10.413  19.302  0.00  0.00    +0.000 A 
ATOM     26  C   UNL     1      -0.619  11.389  20.084  0.00  0.00    +0.000 A 
ATOM     27  C   UNL     1      -1.840  11.946  19.680  0.00  0.00    +0.000 A 
ATOM     28  C   UNL     1      -2.420  11.533  18.490  0.00  0.00    +0.000 A 
ATOM     29  C   UNL     1      -1.797  10.590  17.689  0.00  0.00    +0.000 A 
ATOM     30  C   UNL     1      -0.577  10.041  18.086  0.00  0.00    +0.000 A 
BRANCH  28  31
ATOM     31  O   UNL     1      -3.608  12.043  18.058  0.00  0.00    +0.000 OA
ATOM     32  H   UNL     1      -3.896  11.519  17.280  0.00  0.00    +0.000 HD
ENDBRANCH  28  31
ENDBRANCH  24  25
ENDBRANCH  20  24
ENDBRANCH   3  20
TORSDOF 9
ENDMDL
MODEL 6
REMARK VINA RESULT:      -7.5      3.073      8.829
REMARK  Name = 
REMARK  11 active torsions:
REMARK  status: ('A' for Active; 'I' for Inactive)
REMARK    1  A    between atoms: C_1  and  C_2
REMARK    2  A    between atoms: C_2  and  C_3
REMARK    3  A    between atoms: C_3  and  C_4
REMARK    4  A    between atoms: C_3  and  C_5
REMARK    5  A    between atoms: C_5  and  C_6
REMARK    6  A    between atoms: C_5  and  N_14
REMARK    7  A    between atoms: C_16  and  C_17
REMARK    8  A    between atoms: C_17  and  N_18
REMARK    9  A    between atoms: C_17  and  C_19
REMARK   10  A    between atoms: C_19  and  C_20
REMARK   11  A    between atoms: C_23  and  O_24
REMARK                            x       y       z     vdW  Elec       q    Type
REMARK                         _______ _______ _______ _____ _____    ______ ____
ROOT
ATOM      1  N   UNL     1       1.188  10.261  18.826  0.00  0.00    +0.000 N 
ATOM      2  C   UNL     1       1.458   9.154  19.585  0.00  0.00    +0.000 A 
ATOM      3  C   UNL     1       2.114   8.296  18.724  0.00  0.00    +0.000 A 
ATOM      4  N   UNL     1       2.371   8.969  17.556  0.00  0.00    +0.000 NA
ATOM      5  N   UNL     1       1.811  10.168  17.632  0.00  0.00    +0.000 NA
ENDROOT
BRANCH   1   6
ATOM      6  C   UNL     1       0.290  11.398  19.080  0.00  0.00    +0.000 C 
BRANCH   6   7
ATOM      7  C   UNL     1       0.811  12.276  20.237  0.00  0.00    +0.000 C 
ATOM      8  O   UNL     1       0.694  11.910  21.410  0.00  0.00    +0.000 OA
ATOM      9  N   UNL     1       1.439  13.490  19.967  0.00  0.00    +0.000 N 
ATOM     10  C   UNL     1       2.107  14.153  21.093  0.00  0.00    +0.000 C 
ATOM     11  C   UNL     1       3.225  15.095  20.619  0.00  0.00    +0.000 C 
ATOM     12  N   UNL     1       2.762  16.079  19.629  0.00  0.00    +0.000 NA
ATOM     13  C   UNL     1       2.098  15.394  18.502  0.00  0.00    +0.000 C 
ATOM     14  C   UNL     1       0.970  14.443  18.952  0.00  0.00    +0.000 C 
ATOM     15  H   UNL     1       3.564  16.602  19.278  0.00  0.00    +0.000 HD
ENDBRANCH   6   7
BRANCH   6  16
ATOM     16  C   UNL     1      -1.209  10.930  19.237  0.00  0.00    +0.000 C 
ATOM     17  C   UNL     1      -2.189  12.087  19.522  0.00  0.00    +0.000 C 
BRANCH  16  19
ATOM     18  C   UNL     1      -2.326  10.940  16.876  0.00  0.00    +0.000 C 
ATOM     19  C   UNL     1      -1.782  10.127  18.039  0.00  0.00    +0.000 C 
ENDBRANCH  16  19
ENDBRANCH   6  16
ENDBRANCH   1   6
BRANCH   3  20
ATOM     20  C   UNL     1       2.565   6.871  18.883  0.00  0.00    +0.000 C 
BRANCH  20  21
ATOM     21  N   UNL     1       2.371   6.493  20.294  0.00  0.00    +0.000 NA
ATOM     22  H   UNL     1       3.254   6.150  20.667  0.00  0.00    +0.000 HD
ATOM     23  H   UNL     1       1.738   5.691  20.311  0.00  0.00    +0.000 HD
ENDBRANCH  20  21
BRANCH  20  24
ATOM     24  C   UNL     1       1.857   5.856  17.956  0.00  0.00    +0.000 C 
BRANCH  24  25
ATOM     25  C   UNL     1       2.399   4.442  18.030  0.00  0.00    +0.000 A 
ATOM     26  C   UNL     1       1.588   3.377  18.448  0.00  0.00    +0.000 A 
ATOM     27  C   UNL     1       2.106   2.078  18.536  0.00  0.00    +0.000 A 
ATOM     28  C   UNL     1       3.430   1.845  18.198  0.00  0.00    +0.000 A 
ATOM     29  C   UNL     1       4.240   2.878  17.757  0.00  0.00    +0.000 A 
ATOM     30  C   UNL     1       3.723   4.171  17.660  0.00  0.00    +0.000 A 
BRANCH  28  31
ATOM     31  O   UNL     1       3.978   0.599  18.272  0.00  0.00    +0.000 OA
ATOM     32  H   UNL     1       4.402   0.508  19.152  0.00  0.00    +0.000 HD
ENDBRANCH  28  31
ENDBRANCH  24  25
ENDBRANCH  20  24
ENDBRANCH   3  20
TORSDOF 9
ENDMDL
MODEL 7
REMARK VINA RESULT:      -7.5      1.145      1.492
REMARK  Name = 
REMARK  11 active torsions:
REMARK  status: ('A' for Active; 'I' for Inactive)
REMARK    1  A    between atoms: C_1  and  C_2
REMARK    2  A    between atoms: C_2  and  C_3
REMARK    3  A    between atoms: C_3  and  C_4
REMARK    4  A    between atoms: C_3  and  C_5
REMARK    5  A    between atoms: C_5  and  C_6
REMARK    6  A    between atoms: C_5  and  N_14
REMARK    7  A    between atoms: C_16  and  C_17
REMARK    8  A    between atoms: C_17  and  N_18
REMARK    9  A    between atoms: C_17  and  C_19
REMARK   10  A    between atoms: C_19  and  C_20
REMARK   11  A    between atoms: C_23  and  O_24
REMARK                            x       y       z     vdW  Elec       q    Type
REMARK                         _______ _______ _______ _____ _____    ______ ____
ROOT
ATOM      1  N   UNL     1       2.322   7.088  19.127  0.00  0.00    +0.000 N 
ATOM      2  C   UNL     1       1.555   7.970  19.839  0.00  0.00    +0.000 A 
ATOM      3  C   UNL     1       1.558   9.123  19.079  0.00  0.00    +0.000 A 
ATOM      4  N   UNL     1       2.162   8.847  17.878  0.00  0.00    +0.000 NA
ATOM      5  N   UNL     1       2.616   7.602  17.914  0.00  0.00    +0.000 NA
ENDROOT
BRANCH   1   6
ATOM      6  C   UNL     1       2.913   5.801  19.523  0.00  0.00    +0.000 C 
BRANCH   6   7
ATOM      7  C   UNL     1       3.364   4.988  18.291  0.00  0.00    +0.000 C 
ATOM      8  O   UNL     1       2.535   4.446  17.555  0.00  0.00    +0.000 OA
ATOM      9  N   UNL     1       4.718   4.873  17.985  0.00  0.00    +0.000 N 
ATOM     10  C   UNL     1       5.053   4.285  16.683  0.00  0.00    +0.000 C 
ATOM     11  C   UNL     1       6.438   4.736  16.193  0.00  0.00    +0.000 C 
ATOM     12  N   UNL     1       7.503   4.482  17.176  0.00  0.00    +0.000 NA
ATOM     13  C   UNL     1       7.151   5.084  18.476  0.00  0.00    +0.000 C 
ATOM     14  C   UNL     1       5.764   4.645  18.991  0.00  0.00    +0.000 C 
ATOM     15  H   UNL     1       8.373   4.894  16.839  0.00  0.00    +0.000 HD
ENDBRANCH   6   7
BRANCH   6  16
ATOM     16  C   UNL     1       1.975   5.013  20.520  0.00  0.00    +0.000 C 
ATOM     17  C   UNL     1       0.893   4.172  19.812  0.00  0.00    +0.000 C 
BRANCH  16  19
ATOM     18  C   UNL     1       2.169   2.660  21.635  0.00  0.00    +0.000 C 
ATOM     19  C   UNL     1       2.706   4.077  21.517  0.00  0.00    +0.000 C 
ENDBRANCH  16  19
ENDBRANCH   6  16
ENDBRANCH   1   6
BRANCH   3  20
ATOM     20  C   UNL     1       1.021  10.501  19.348  0.00  0.00    +0.000 C 
BRANCH  20  21
ATOM     21  N   UNL     1       1.162  11.289  18.111  0.00  0.00    +0.000 NA
ATOM     22  H   UNL     1       1.473  12.228  18.352  0.00  0.00    +0.000 HD
ATOM     23  H   UNL     1       0.227  11.405  17.715  0.00  0.00    +0.000 HD
ENDBRANCH  20  21
BRANCH  20  24
ATOM     24  C   UNL     1      -0.442  10.545  19.847  0.00  0.00    +0.000 C 
BRANCH  24  25
ATOM     25  C   UNL     1      -1.484  10.653  18.750  0.00  0.00    +0.000 A 
ATOM     26  C   UNL     1      -2.501  11.617  18.811  0.00  0.00    +0.000 A 
ATOM     27  C   UNL     1      -3.474  11.691  17.804  0.00  0.00    +0.000 A 
ATOM     28  C   UNL     1      -3.422  10.808  16.736  0.00  0.00    +0.000 A 
ATOM     29  C   UNL     1      -2.410   9.867  16.644  0.00  0.00    +0.000 A 
ATOM     30  C   UNL     1      -1.436   9.797  17.641  0.00  0.00    +0.000 A 
BRANCH  28  31
ATOM     31  O   UNL     1      -4.348  10.840  15.737  0.00  0.00    +0.000 OA
ATOM     32  H   UNL     1      -5.151  11.285  16.084  0.00  0.00    +0.000 HD
ENDBRANCH  28  31
ENDBRANCH  24  25
ENDBRANCH  20  24
ENDBRANCH   3  20
TORSDOF 9
ENDMDL
MODEL 8
REMARK VINA RESULT:      -7.5      1.109      1.459
REMARK  Name = 
REMARK  11 active torsions:
REMARK  status: ('A' for Active; 'I' for Inactive)
REMARK    1  A    between atoms: C_1  and  C_2
REMARK    2  A    between atoms: C_2  and  C_3
REMARK    3  A    between atoms: C_3  and  C_4
REMARK    4  A    between atoms: C_3  and  C_5
REMARK    5  A    between atoms: C_5  and  C_6
REMARK    6  A    between atoms: C_5  and  N_14
REMARK    7  A    between atoms: C_16  and  C_17
REMARK    8  A    between atoms: C_17  and  N_18
REMARK    9  A    between atoms: C_17  and  C_19
REMARK   10  A    between atoms: C_19  and  C_20
REMARK   11  A    between atoms: C_23  and  O_24
REMARK                            x       y       z     vdW  Elec       q    Type
REMARK                         _______ _______ _______ _____ _____    ______ ____
ROOT
ATOM      1  N   UNL     1       2.139   7.327  19.869  0.00  0.00    +0.000 N 
ATOM      2  C   UNL     1       1.880   8.177  18.828  0.00  0.00    +0.000 A 
ATOM      3  C   UNL     1       0.992   9.099  19.348  0.00  0.00    +0.000 A 
ATOM      4  N   UNL     1       0.888   8.885  20.699  0.00  0.00    +0.000 NA
ATOM      5  N   UNL     1       1.597   7.809  21.008  0.00  0.00    +0.000 NA
ENDROOT
BRANCH   1   6
ATOM      6  C   UNL     1       2.786   6.007  19.885  0.00  0.00    +0.000 C 
BRANCH   6   7
ATOM      7  C   UNL     1       3.376   5.654  18.504  0.00  0.00    +0.000 C 
ATOM      8  O   UNL     1       2.638   5.405  17.547  0.00  0.00    +0.000 OA
ATOM      9  N   UNL     1       4.757   5.633  18.316  0.00  0.00    +0.000 N 
ATOM     10  C   UNL     1       5.234   5.518  16.934  0.00  0.00    +0.000 C 
ATOM     11  C   UNL     1       6.651   6.092  16.769  0.00  0.00    +0.000 C 
ATOM     12  N   UNL     1       7.617   5.505  17.711  0.00  0.00    +0.000 NA
ATOM     13  C   UNL     1       7.123   5.635  19.095  0.00  0.00    +0.000 C 
ATOM     14  C   UNL     1       5.702   5.064  19.286  0.00  0.00    +0.000 C 
ATOM     15  H   UNL     1       8.507   5.996  17.624  0.00  0.00    +0.000 HD
ENDBRANCH   6   7
BRANCH   6  16
ATOM     16  C   UNL     1       1.836   4.901  20.492  0.00  0.00    +0.000 C 
ATOM     17  C   UNL     1       1.159   4.017  19.423  0.00  0.00    +0.000 C 
BRANCH  16  19
ATOM     18  C   UNL     1       1.794   2.628  21.777  0.00  0.00    +0.000 C 
ATOM     19  C   UNL     1       2.499   3.950  21.522  0.00  0.00    +0.000 C 
ENDBRANCH  16  19
ENDBRANCH   6  16
ENDBRANCH   1   6
BRANCH   3  20
ATOM     20  C   UNL     1       0.215  10.214  18.703  0.00  0.00    +0.000 C 
BRANCH  20  21
ATOM     21  N   UNL     1       1.143  11.337  18.479  0.00  0.00    +0.000 NA
ATOM     22  H   UNL     1       0.893  12.101  19.104  0.00  0.00    +0.000 HD
ATOM     23  H   UNL     1       0.973  11.689  17.535  0.00  0.00    +0.000 HD
ENDBRANCH  20  21
BRANCH  20  24
ATOM     24  C   UNL     1      -0.495   9.836  17.383  0.00  0.00    +0.000 C 
BRANCH  24  25
ATOM     25  C   UNL     1      -1.906  10.373  17.244  0.00  0.00    +0.000 A 
ATOM     26  C   UNL     1      -2.613  10.246  16.040  0.00  0.00    +0.000 A 
ATOM     27  C   UNL     1      -3.908  10.768  15.915  0.00  0.00    +0.000 A 
ATOM     28  C   UNL     1      -4.495  11.408  16.996  0.00  0.00    +0.000 A 
ATOM     29  C   UNL     1      -3.824  11.519  18.202  0.00  0.00    +0.000 A 
ATOM     30  C   UNL     1      -2.538  10.992  18.331  0.00  0.00    +0.000 A 
BRANCH  28  31
ATOM     31  O   UNL     1      -5.750  11.934  16.920  0.00  0.00    +0.000 OA
ATOM     32  H   UNL     1      -6.012  11.954  15.974  0.00  0.00    +0.000 HD
ENDBRANCH  28  31
ENDBRANCH  24  25
ENDBRANCH  20  24
ENDBRANCH   3  20
TORSDOF 9
ENDMDL
MODEL 9
REMARK VINA RESULT:      -7.5      2.127      2.671
REMARK  Name = 
REMARK  11 active torsions:
REMARK  status: ('A' for Active; 'I' for Inactive)
REMARK    1  A    between atoms: C_1  and  C_2
REMARK    2  A    between atoms: C_2  and  C_3
REMARK    3  A    between atoms: C_3  and  C_4
REMARK    4  A    between atoms: C_3  and  C_5
REMARK    5  A    between atoms: C_5  and  C_6
REMARK    6  A    between atoms: C_5  and  N_14
REMARK    7  A    between atoms: C_16  and  C_17
REMARK    8  A    between atoms: C_17  and  N_18
REMARK    9  A    between atoms: C_17  and  C_19
REMARK   10  A    between atoms: C_19  and  C_20
REMARK   11  A    between atoms: C_23  and  O_24
REMARK                            x       y       z     vdW  Elec       q    Type
REMARK                         _______ _______ _______ _____ _____    ______ ____
ROOT
ATOM      1  N   UNL     1       2.821   5.978  18.979  0.00  0.00    +0.000 N 
ATOM      2  C   UNL     1       2.319   7.048  19.671  0.00  0.00    +0.000 A 
ATOM      3  C   UNL     1       2.080   8.004  18.702  0.00  0.00    +0.000 A 
ATOM      4  N   UNL     1       2.272   7.429  17.471  0.00  0.00    +0.000 NA
ATOM      5  N   UNL     1       2.715   6.193  17.651  0.00  0.00    +0.000 NA
ENDROOT
BRANCH   1   6
ATOM      6  C   UNL     1       3.507   4.769  19.458  0.00  0.00    +0.000 C 
BRANCH   6   7
ATOM      7  C   UNL     1       4.367   4.133  18.345  0.00  0.00    +0.000 C 
ATOM      8  O   UNL     1       4.154   2.979  17.964  0.00  0.00    +0.000 OA
ATOM      9  N   UNL     1       5.386   4.867  17.742  0.00  0.00    +0.000 N 
ATOM     10  C   UNL     1       6.002   4.283  16.546  0.00  0.00    +0.000 C 
ATOM     11  C   UNL     1       6.632   5.357  15.645  0.00  0.00    +0.000 C 
ATOM     12  N   UNL     1       7.587   6.216  16.363  0.00  0.00    +0.000 NA
ATOM     13  C   UNL     1       6.949   6.799  17.559  0.00  0.00    +0.000 C 
ATOM     14  C   UNL     1       6.309   5.739  18.481  0.00  0.00    +0.000 C 
ATOM     15  H   UNL     1       7.890   6.968  15.744  0.00  0.00    +0.000 HD
ENDBRANCH   6   7
BRANCH   6  16
ATOM     16  C   UNL     1       2.504   3.772  20.160  0.00  0.00    +0.000 C 
ATOM     17  C   UNL     1       2.337   4.031  21.672  0.00  0.00    +0.000 C 
BRANCH  16  19
ATOM     18  C   UNL     1       0.686   2.417  18.863  0.00  0.00    +0.000 C 
ATOM     19  C   UNL     1       1.082   3.717  19.543  0.00  0.00    +0.000 C 
ENDBRANCH  16  19
ENDBRANCH   6  16
ENDBRANCH   1   6
BRANCH   3  20
ATOM     20  C   UNL     1       1.656   9.443  18.801  0.00  0.00    +0.000 C 
BRANCH  20  21
ATOM     21  N   UNL     1       2.181  10.148  17.617  0.00  0.00    +0.000 NA
ATOM     22  H   UNL     1       2.698   9.486  17.042  0.00  0.00    +0.000 HD
ATOM     23  H   UNL     1       2.874  10.823  17.947  0.00  0.00    +0.000 HD
ENDBRANCH  20  21
BRANCH  20  24
ATOM     24  C   UNL     1       0.131   9.667  18.924  0.00  0.00    +0.000 C 
BRANCH  24  25
ATOM     25  C   UNL     1      -0.303  10.416  20.168  0.00  0.00    +0.000 A 
ATOM     26  C   UNL     1      -1.010  11.624  20.076  0.00  0.00    +0.000 A 
ATOM     27  C   UNL     1      -1.384  12.321  21.233  0.00  0.00    +0.000 A 
ATOM     28  C   UNL     1      -1.060  11.804  22.479  0.00  0.00    +0.000 A 
ATOM     29  C   UNL     1      -0.387  10.599  22.591  0.00  0.00    +0.000 A 
ATOM     30  C   UNL     1      -0.020   9.899  21.440  0.00  0.00    +0.000 A 
BRANCH  28  31
ATOM     31  O   UNL     1      -1.400  12.448  23.630  0.00  0.00    +0.000 OA
ATOM     32  H   UNL     1      -1.819  13.301  23.386  0.00  0.00    +0.000 HD
ENDBRANCH  28  31
ENDBRANCH  24  25
ENDBRANCH  20  24
ENDBRANCH   3  20
TORSDOF 9
ENDMDL
