MODEL 1
REMARK VINA RESULT:      -7.0      0.000      0.000
REMARK  Name = 
REMARK  5 active torsions:
REMARK  status: ('A' for Active; 'I' for Inactive)
REMARK    1  A    between atoms: C_1  and  C_2
REMARK    2  A    between atoms: C_2  and  C_3
REMARK    3  A    between atoms: C_2  and  C_4
REMARK    4  A    between atoms: C_2  and  C_5
REMARK    5  A    between atoms: C_15  and  N_16
REMARK                            x       y       z     vdW  Elec       q    Type
REMARK                         _______ _______ _______ _____ _____    ______ ____
ROOT
ATOM      1  C   UNL     1       1.122  10.130  19.004  0.00  0.00    +0.000 A 
ATOM      2  C   UNL     1       1.952  10.113  17.878  0.00  0.00    +0.000 A 
ATOM      3  N   UNL     1       2.720   9.062  17.494  0.00  0.00    +0.000 NA
ATOM      4  C   UNL     1       2.680   7.944  18.262  0.00  0.00    +0.000 A 
ATOM      5  C   UNL     1       1.905   7.863  19.414  0.00  0.00    +0.000 A 
ATOM      6  C   UNL     1       1.128   8.967  19.782  0.00  0.00    +0.000 A 
ATOM      7  C   UNL     1       1.866   6.638  20.247  0.00  0.00    +0.000 C 
ATOM      8  O   UNL     1       1.183   6.623  21.263  0.00  0.00    +0.000 OA
ATOM      9  C   UNL     1       2.661   5.541  19.760  0.00  0.00    +0.000 A 
ATOM     10  S   UNL     1       2.720   4.049  20.571  0.00  0.00    +0.000 S 
ATOM     11  C   UNL     1       3.783   3.407  19.410  0.00  0.00    +0.000 A 
ATOM     12  C   UNL     1       4.094   4.313  18.415  0.00  0.00    +0.000 A 
ATOM     13  C   UNL     1       3.437   5.571  18.621  0.00  0.00    +0.000 A 
ATOM     14  C   UNL     1       3.510   6.776  17.795  0.00  0.00    +0.000 C 
ATOM     15  O   UNL     1       4.200   6.814  16.787  0.00  0.00    +0.000 OA
ENDROOT
BRANCH   1  17
ATOM     16  C   UNL     1      -1.104  11.218  18.594  0.00  0.00    +0.000 C 
ATOM     17  C   UNL     1       0.242  11.341  19.339  0.00  0.00    +0.000 C 
ATOM     18  C   UNL     1       0.948  12.643  18.912  0.00  0.00    +0.000 C 
ATOM     19  C   UNL     1      -0.083  11.468  20.846  0.00  0.00    +0.000 C 
ENDBRANCH   1  17
BRANCH  11  20
ATOM     20  N   UNL     1       4.258   2.053  19.532  0.00  0.00    +0.000 N 
ATOM     21  O   UNL     1       3.819   1.244  18.706  0.00  0.00    +0.000 OA
ATOM     22  O   UNL     1       5.059   1.792  20.438  0.00  0.00    +0.000 OA
ENDBRANCH  11  20
TORSDOF 2
ENDMDL
MODEL 2
REMARK VINA RESULT:      -7.0      0.057      1.151
REMARK  Name = 
REMARK  5 active torsions:
REMARK  status: ('A' for Active; 'I' for Inactive)
REMARK    1  A    between atoms: C_1  and  C_2
REMARK    2  A    between atoms: C_2  and  C_3
REMARK    3  A    between atoms: C_2  and  C_4
REMARK    4  A    between atoms: C_2  and  C_5
REMARK    5  A    between atoms: C_15  and  N_16
REMARK                            x       y       z     vdW  Elec       q    Type
REMARK                         _______ _______ _______ _____ _____    ______ ____
ROOT
ATOM      1  C   UNL     1       1.139  10.112  19.008  0.00  0.00    +0.000 A 
ATOM      2  C   UNL     1       1.974  10.097  17.886  0.00  0.00    +0.000 A 
ATOM      3  N   UNL     1       2.742   9.046  17.501  0.00  0.00    +0.000 NA
ATOM      4  C   UNL     1       2.696   7.925  18.265  0.00  0.00    +0.000 A 
ATOM      5  C   UNL     1       1.915   7.841  19.413  0.00  0.00    +0.000 A 
ATOM      6  C   UNL     1       1.140   8.947  19.781  0.00  0.00    +0.000 A 
ATOM      7  C   UNL     1       1.871   6.614  20.241  0.00  0.00    +0.000 C 
ATOM      8  O   UNL     1       1.183   6.596  21.254  0.00  0.00    +0.000 OA
ATOM      9  C   UNL     1       2.666   5.517  19.754  0.00  0.00    +0.000 A 
ATOM     10  S   UNL     1       2.718   4.022  20.560  0.00  0.00    +0.000 S 
ATOM     11  C   UNL     1       3.784   3.382  19.401  0.00  0.00    +0.000 A 
ATOM     12  C   UNL     1       4.102   4.291  18.410  0.00  0.00    +0.000 A 
ATOM     13  C   UNL     1       3.446   5.549  18.618  0.00  0.00    +0.000 A 
ATOM     14  C   UNL     1       3.526   6.758  17.797  0.00  0.00    +0.000 C 
ATOM     15  O   UNL     1       4.221   6.798  16.792  0.00  0.00    +0.000 OA
ENDROOT
BRANCH   1  17
ATOM     16  C   UNL     1       0.094  11.428  20.874  0.00  0.00    +0.000 C 
ATOM     17  C   UNL     1       0.260  11.324  19.343  0.00  0.00    +0.000 C 
ATOM     18  C   UNL     1      -1.126  11.171  18.685  0.00  0.00    +0.000 C 
ATOM     19  C   UNL     1       0.853  12.667  18.858  0.00  0.00    +0.000 C 
ENDBRANCH   1  17
BRANCH  11  20
ATOM     20  N   UNL     1       4.256   2.026  19.520  0.00  0.00    +0.000 N 
ATOM     21  O   UNL     1       5.048   1.803  20.444  0.00  0.00    +0.000 OA
ATOM     22  O   UNL     1       3.846   1.189  18.706  0.00  0.00    +0.000 OA
ENDBRANCH  11  20
TORSDOF 2
ENDMDL
MODEL 3
REMARK VINA RESULT:      -6.8      2.456      3.462
REMARK  Name = 
REMARK  5 active torsions:
REMARK  status: ('A' for Active; 'I' for Inactive)
REMARK    1  A    between atoms: C_1  and  C_2
REMARK    2  A    between atoms: C_2  and  C_3
REMARK    3  A    between atoms: C_2  and  C_4
REMARK    4  A    between atoms: C_2  and  C_5
REMARK    5  A    between atoms: C_15  and  N_16
REMARK                            x       y       z     vdW  Elec       q    Type
REMARK                         _______ _______ _______ _____ _____    ______ ____
ROOT
ATOM      1  C   UNL     1       0.706   9.257  20.347  0.00  0.00    +0.000 A 
ATOM      2  C   UNL     1       0.733   8.153  21.205  0.00  0.00    +0.000 A 
ATOM      3  N   UNL     1       1.469   7.030  21.006  0.00  0.00    +0.000 NA
ATOM      4  C   UNL     1       2.235   6.975  19.887  0.00  0.00    +0.000 A 
ATOM      5  C   UNL     1       2.266   8.010  18.957  0.00  0.00    +0.000 A 
ATOM      6  C   UNL     1       1.491   9.151  19.194  0.00  0.00    +0.000 A 
ATOM      7  C   UNL     1       3.105   7.942  17.739  0.00  0.00    +0.000 C 
ATOM      8  O   UNL     1       3.083   8.870  16.940  0.00  0.00    +0.000 OA
ATOM      9  C   UNL     1       3.901   6.750  17.608  0.00  0.00    +0.000 A 
ATOM     10  S   UNL     1       4.944   6.509  16.289  0.00  0.00    +0.000 S 
ATOM     11  C   UNL     1       5.437   4.999  16.894  0.00  0.00    +0.000 A 
ATOM     12  C   UNL     1       4.819   4.676  18.087  0.00  0.00    +0.000 A 
ATOM     13  C   UNL     1       3.912   5.704  18.507  0.00  0.00    +0.000 A 
ATOM     14  C   UNL     1       3.074   5.737  19.705  0.00  0.00    +0.000 C 
ATOM     15  O   UNL     1       3.071   4.812  20.504  0.00  0.00    +0.000 OA
ENDROOT
BRANCH   1  17
ATOM     16  C   UNL     1       0.812  11.749  20.646  0.00  0.00    +0.000 C 
ATOM     17  C   UNL     1      -0.112  10.513  20.674  0.00  0.00    +0.000 C 
ATOM     18  C   UNL     1      -0.750  10.381  22.071  0.00  0.00    +0.000 C 
ATOM     19  C   UNL     1      -1.258  10.781  19.670  0.00  0.00    +0.000 C 
ENDBRANCH   1  17
BRANCH  11  20
ATOM     20  N   UNL     1       6.402   4.209  16.174  0.00  0.00    +0.000 N 
ATOM     21  O   UNL     1       7.589   4.387  16.475  0.00  0.00    +0.000 OA
ATOM     22  O   UNL     1       5.990   3.418  15.316  0.00  0.00    +0.000 OA
ENDBRANCH  11  20
TORSDOF 2
ENDMDL
MODEL 4
REMARK VINA RESULT:      -6.8      2.450      3.355
REMARK  Name = 
REMARK  5 active torsions:
REMARK  status: ('A' for Active; 'I' for Inactive)
REMARK    1  A    between atoms: C_1  and  C_2
REMARK    2  A    between atoms: C_2  and  C_3
REMARK    3  A    between atoms: C_2  and  C_4
REMARK    4  A    between atoms: C_2  and  C_5
REMARK    5  A    between atoms: C_15  and  N_16
REMARK                            x       y       z     vdW  Elec       q    Type
REMARK                         _______ _______ _______ _____ _____    ______ ____
ROOT
ATOM      1  C   UNL     1       0.700   9.271  20.352  0.00  0.00    +0.000 A 
ATOM      2  C   UNL     1       0.725   8.167  21.210  0.00  0.00    +0.000 A 
ATOM      3  N   UNL     1       1.460   7.043  21.011  0.00  0.00    +0.000 NA
ATOM      4  C   UNL     1       2.227   6.988  19.892  0.00  0.00    +0.000 A 
ATOM      5  C   UNL     1       2.259   8.022  18.963  0.00  0.00    +0.000 A 
ATOM      6  C   UNL     1       1.485   9.163  19.199  0.00  0.00    +0.000 A 
ATOM      7  C   UNL     1       3.099   7.953  17.745  0.00  0.00    +0.000 C 
ATOM      8  O   UNL     1       3.078   8.882  16.946  0.00  0.00    +0.000 OA
ATOM      9  C   UNL     1       3.894   6.760  17.615  0.00  0.00    +0.000 A 
ATOM     10  S   UNL     1       4.938   6.518  16.296  0.00  0.00    +0.000 S 
ATOM     11  C   UNL     1       5.429   5.008  16.902  0.00  0.00    +0.000 A 
ATOM     12  C   UNL     1       4.810   4.686  18.094  0.00  0.00    +0.000 A 
ATOM     13  C   UNL     1       3.904   5.715  18.514  0.00  0.00    +0.000 A 
ATOM     14  C   UNL     1       3.064   5.748  19.712  0.00  0.00    +0.000 C 
ATOM     15  O   UNL     1       3.061   4.823  20.511  0.00  0.00    +0.000 OA
ENDROOT
BRANCH   1  17
ATOM     16  C   UNL     1      -0.744  10.381  22.081  0.00  0.00    +0.000 C 
ATOM     17  C   UNL     1      -0.118  10.528  20.678  0.00  0.00    +0.000 C 
ATOM     18  C   UNL     1      -1.235  10.719  19.633  0.00  0.00    +0.000 C 
ATOM     19  C   UNL     1       0.725  11.825  20.691  0.00  0.00    +0.000 C 
ENDBRANCH   1  17
BRANCH  11  20
ATOM     20  N   UNL     1       6.394   4.217  16.182  0.00  0.00    +0.000 N 
ATOM     21  O   UNL     1       5.936   3.397  15.377  0.00  0.00    +0.000 OA
ATOM     22  O   UNL     1       7.595   4.405  16.412  0.00  0.00    +0.000 OA
ENDBRANCH  11  20
TORSDOF 2
ENDMDL
MODEL 5
REMARK VINA RESULT:      -6.7      2.948      4.184
REMARK  Name = 
REMARK  5 active torsions:
REMARK  status: ('A' for Active; 'I' for Inactive)
REMARK    1  A    between atoms: C_1  and  C_2
REMARK    2  A    between atoms: C_2  and  C_3
REMARK    3  A    between atoms: C_2  and  C_4
REMARK    4  A    between atoms: C_2  and  C_5
REMARK    5  A    between atoms: C_15  and  N_16
REMARK                            x       y       z     vdW  Elec       q    Type
REMARK                         _______ _______ _______ _____ _____    ______ ____
ROOT
ATOM      1  C   UNL     1       1.380   7.778  20.616  0.00  0.00    +0.000 A 
ATOM      2  C   UNL     1       1.499   6.463  21.078  0.00  0.00    +0.000 A 
ATOM      3  N   UNL     1       2.220   5.487  20.471  0.00  0.00    +0.000 NA
ATOM      4  C   UNL     1       2.873   5.812  19.326  0.00  0.00    +0.000 A 
ATOM      5  C   UNL     1       2.805   7.085  18.769  0.00  0.00    +0.000 A 
ATOM      6  C   UNL     1       2.048   8.065  19.422  0.00  0.00    +0.000 A 
ATOM      7  C   UNL     1       3.522   7.432  17.520  0.00  0.00    +0.000 C 
ATOM      8  O   UNL     1       3.414   8.562  17.058  0.00  0.00    +0.000 OA
ATOM      9  C   UNL     1       4.310   6.371  16.951  0.00  0.00    +0.000 A 
ATOM     10  S   UNL     1       5.221   6.592  15.533  0.00  0.00    +0.000 S 
ATOM     11  C   UNL     1       5.782   4.989  15.588  0.00  0.00    +0.000 A 
ATOM     12  C   UNL     1       5.286   4.287  16.669  0.00  0.00    +0.000 A 
ATOM     13  C   UNL     1       4.417   5.099  17.471  0.00  0.00    +0.000 A 
ATOM     14  C   UNL     1       3.699   4.724  18.690  0.00  0.00    +0.000 C 
ATOM     15  O   UNL     1       3.782   3.597  19.156  0.00  0.00    +0.000 OA
ENDROOT
BRANCH   1  17
ATOM     16  C   UNL     1       0.283  10.032  20.464  0.00  0.00    +0.000 C 
ATOM     17  C   UNL     1       0.588   8.838  21.393  0.00  0.00    +0.000 C 
ATOM     18  C   UNL     1       1.405   9.325  22.606  0.00  0.00    +0.000 C 
ATOM     19  C   UNL     1      -0.768   8.322  21.930  0.00  0.00    +0.000 C 
ENDBRANCH   1  17
BRANCH  11  20
ATOM     20  N   UNL     1       6.678   4.499  14.571  0.00  0.00    +0.000 N 
ATOM     21  O   UNL     1       7.735   5.125  14.428  0.00  0.00    +0.000 OA
ATOM     22  O   UNL     1       6.338   3.503  13.921  0.00  0.00    +0.000 OA
ENDBRANCH  11  20
TORSDOF 2
ENDMDL
MODEL 6
REMARK VINA RESULT:      -6.6      3.683      7.361
REMARK  Name = 
REMARK  5 active torsions:
REMARK  status: ('A' for Active; 'I' for Inactive)
REMARK    1  A    between atoms: C_1  and  C_2
REMARK    2  A    between atoms: C_2  and  C_3
REMARK    3  A    between atoms: C_2  and  C_4
REMARK    4  A    between atoms: C_2  and  C_5
REMARK    5  A    between atoms: C_15  and  N_16
REMARK                            x       y       z     vdW  Elec       q    Type
REMARK                         _______ _______ _______ _____ _____    ______ ____
ROOT
ATOM      1  C   UNL     1       2.851   7.146  18.367  0.00  0.00    +0.000 A 
ATOM      2  C   UNL     1       2.690   8.196  17.457  0.00  0.00    +0.000 A 
ATOM      3  N   UNL     1       1.998   9.338  17.701  0.00  0.00    +0.000 NA
ATOM      4  C   UNL     1       1.418   9.469  18.922  0.00  0.00    +0.000 A 
ATOM      5  C   UNL     1       1.500   8.476  19.892  0.00  0.00    +0.000 A 
ATOM      6  C   UNL     1       2.218   7.310  19.603  0.00  0.00    +0.000 A 
ATOM      7  C   UNL     1       0.865   8.628  21.222  0.00  0.00    +0.000 C 
ATOM      8  O   UNL     1       0.948   7.716  22.036  0.00  0.00    +0.000 OA
ATOM      9  C   UNL     1       0.190   9.880  21.439  0.00  0.00    +0.000 A 
ATOM     10  S   UNL     1      -0.574  10.241  22.913  0.00  0.00    +0.000 S 
ATOM     11  C   UNL     1      -1.051  11.770  22.345  0.00  0.00    +0.000 A 
ATOM     12  C   UNL     1      -0.637  12.010  21.049  0.00  0.00    +0.000 A 
ATOM     13  C   UNL     1       0.091  10.897  20.514  0.00  0.00    +0.000 A 
ATOM     14  C   UNL     1       0.689  10.761  19.185  0.00  0.00    +0.000 C 
ATOM     15  O   UNL     1       0.601  11.654  18.355  0.00  0.00    +0.000 OA
ENDROOT
BRANCH   1  17
ATOM     16  C   UNL     1       4.499   5.484  19.278  0.00  0.00    +0.000 C 
ATOM     17  C   UNL     1       3.696   5.910  18.031  0.00  0.00    +0.000 C 
ATOM     18  C   UNL     1       4.668   6.231  16.878  0.00  0.00    +0.000 C 
ATOM     19  C   UNL     1       2.854   4.689  17.593  0.00  0.00    +0.000 C 
ENDBRANCH   1  17
BRANCH  11  20
ATOM     20  N   UNL     1      -1.805  12.657  23.194  0.00  0.00    +0.000 N 
ATOM     21  O   UNL     1      -2.964  12.312  23.452  0.00  0.00    +0.000 OA
ATOM     22  O   UNL     1      -1.254  13.687  23.602  0.00  0.00    +0.000 OA
ENDBRANCH  11  20
TORSDOF 2
ENDMDL
MODEL 7
REMARK VINA RESULT:      -6.6      3.383      7.396
REMARK  Name = 
REMARK  5 active torsions:
REMARK  status: ('A' for Active; 'I' for Inactive)
REMARK    1  A    between atoms: C_1  and  C_2
REMARK    2  A    between atoms: C_2  and  C_3
REMARK    3  A    between atoms: C_2  and  C_4
REMARK    4  A    between atoms: C_2  and  C_5
REMARK    5  A    between atoms: C_15  and  N_16
REMARK                            x       y       z     vdW  Elec       q    Type
REMARK                         _______ _______ _______ _____ _____    ______ ____
ROOT
ATOM      1  C   UNL     1       4.017   6.126  17.969  0.00  0.00    +0.000 A 
ATOM      2  C   UNL     1       3.639   5.568  19.195  0.00  0.00    +0.000 A 
ATOM      3  N   UNL     1       2.770   6.131  20.072  0.00  0.00    +0.000 NA
ATOM      4  C   UNL     1       2.229   7.330  19.733  0.00  0.00    +0.000 A 
ATOM      5  C   UNL     1       2.553   7.981  18.548  0.00  0.00    +0.000 A 
ATOM      6  C   UNL     1       3.456   7.372  17.670  0.00  0.00    +0.000 A 
ATOM      7  C   UNL     1       1.956   9.288  18.185  0.00  0.00    +0.000 C 
ATOM      8  O   UNL     1       2.289   9.832  17.139  0.00  0.00    +0.000 OA
ATOM      9  C   UNL     1       1.005   9.810  19.130  0.00  0.00    +0.000 A 
ATOM     10  S   UNL     1       0.201  11.285  18.870  0.00  0.00    +0.000 S 
ATOM     11  C   UNL     1      -0.652  11.132  20.332  0.00  0.00    +0.000 A 
ATOM     12  C   UNL     1      -0.333   9.975  21.016  0.00  0.00    +0.000 A 
ATOM     13  C   UNL     1       0.644   9.197  20.311  0.00  0.00    +0.000 A 
ATOM     14  C   UNL     1       1.236   7.918  20.702  0.00  0.00    +0.000 C 
ATOM     15  O   UNL     1       0.929   7.370  21.751  0.00  0.00    +0.000 OA
ENDROOT
BRANCH   1  17
ATOM     16  C   UNL     1       4.371   4.018  16.651  0.00  0.00    +0.000 C 
ATOM     17  C   UNL     1       4.966   5.397  17.009  0.00  0.00    +0.000 C 
ATOM     18  C   UNL     1       6.345   5.205  17.671  0.00  0.00    +0.000 C 
ATOM     19  C   UNL     1       5.196   6.152  15.679  0.00  0.00    +0.000 C 
ENDBRANCH   1  17
BRANCH  11  20
ATOM     20  N   UNL     1      -1.588  12.150  20.736  0.00  0.00    +0.000 N 
ATOM     21  O   UNL     1      -2.007  12.893  19.840  0.00  0.00    +0.000 OA
ATOM     22  O   UNL     1      -1.906  12.213  21.930  0.00  0.00    +0.000 OA
ENDBRANCH  11  20
TORSDOF 2
ENDMDL
MODEL 8
REMARK VINA RESULT:      -6.6      2.944      4.225
REMARK  Name = 
REMARK  5 active torsions:
REMARK  status: ('A' for Active; 'I' for Inactive)
REMARK    1  A    between atoms: C_1  and  C_2
REMARK    2  A    between atoms: C_2  and  C_3
REMARK    3  A    between atoms: C_2  and  C_4
REMARK    4  A    between atoms: C_2  and  C_5
REMARK    5  A    between atoms: C_15  and  N_16
REMARK                            x       y       z     vdW  Elec       q    Type
REMARK                         _______ _______ _______ _____ _____    ______ ____
ROOT
ATOM      1  C   UNL     1       1.377   7.793  20.622  0.00  0.00    +0.000 A 
ATOM      2  C   UNL     1       1.483   6.475  21.077  0.00  0.00    +0.000 A 
ATOM      3  N   UNL     1       2.197   5.496  20.467  0.00  0.00    +0.000 NA
ATOM      4  C   UNL     1       2.859   5.822  19.327  0.00  0.00    +0.000 A 
ATOM      5  C   UNL     1       2.804   7.099  18.778  0.00  0.00    +0.000 A 
ATOM      6  C   UNL     1       2.054   8.082  19.433  0.00  0.00    +0.000 A 
ATOM      7  C   UNL     1       3.529   7.447  17.534  0.00  0.00    +0.000 C 
ATOM      8  O   UNL     1       3.434   8.580  17.078  0.00  0.00    +0.000 OA
ATOM      9  C   UNL     1       4.310   6.381  16.962  0.00  0.00    +0.000 A 
ATOM     10  S   UNL     1       5.229   6.603  15.549  0.00  0.00    +0.000 S 
ATOM     11  C   UNL     1       5.775   4.995  15.596  0.00  0.00    +0.000 A 
ATOM     12  C   UNL     1       5.269   4.291  16.672  0.00  0.00    +0.000 A 
ATOM     13  C   UNL     1       4.404   5.105  17.475  0.00  0.00    +0.000 A 
ATOM     14  C   UNL     1       3.677   4.731  18.688  0.00  0.00    +0.000 C 
ATOM     15  O   UNL     1       3.748   3.600  19.147  0.00  0.00    +0.000 OA
ENDROOT
BRANCH   1  17
ATOM     16  C   UNL     1       1.435   9.338  22.602  0.00  0.00    +0.000 C 
ATOM     17  C   UNL     1       0.592   8.856  21.403  0.00  0.00    +0.000 C 
ATOM     18  C   UNL     1      -0.737   8.263  21.913  0.00  0.00    +0.000 C 
ATOM     19  C   UNL     1       0.243  10.106  20.561  0.00  0.00    +0.000 C 
ENDBRANCH   1  17
BRANCH  11  20
ATOM     20  N   UNL     1       6.671   4.503  14.581  0.00  0.00    +0.000 N 
ATOM     21  O   UNL     1       6.276   3.529  13.929  0.00  0.00    +0.000 OA
ATOM     22  O   UNL     1       7.757   5.077  14.429  0.00  0.00    +0.000 OA
ENDBRANCH  11  20
TORSDOF 2
ENDMDL
MODEL 9
REMARK VINA RESULT:      -6.6      2.899      6.937
REMARK  Name = 
REMARK  5 active torsions:
REMARK  status: ('A' for Active; 'I' for Inactive)
REMARK    1  A    between atoms: C_1  and  C_2
REMARK    2  A    between atoms: C_2  and  C_3
REMARK    3  A    between atoms: C_2  and  C_4
REMARK    4  A    between atoms: C_2  and  C_5
REMARK    5  A    between atoms: C_15  and  N_16
REMARK                            x       y       z     vdW  Elec       q    Type
REMARK                         _______ _______ _______ _____ _____    ______ ____
ROOT
ATOM      1  C   UNL     1       4.025   5.765  17.685  0.00  0.00    +0.000 A 
ATOM      2  C   UNL     1       4.061   6.864  16.821  0.00  0.00    +0.000 A 
ATOM      3  N   UNL     1       3.400   8.033  17.020  0.00  0.00    +0.000 NA
ATOM      4  C   UNL     1       2.645   8.141  18.143  0.00  0.00    +0.000 A 
ATOM      5  C   UNL     1       2.524   7.101  19.059  0.00  0.00    +0.000 A 
ATOM      6  C   UNL     1       3.217   5.909  18.818  0.00  0.00    +0.000 A 
ATOM      7  C   UNL     1       1.700   7.228  20.283  0.00  0.00    +0.000 C 
ATOM      8  O   UNL     1       1.609   6.276  21.048  0.00  0.00    +0.000 OA
ATOM      9  C   UNL     1       1.065   8.507  20.464  0.00  0.00    +0.000 A 
ATOM     10  S   UNL     1       0.101   8.844  21.822  0.00  0.00    +0.000 S 
ATOM     11  C   UNL     1      -0.202  10.423  21.273  0.00  0.00    +0.000 A 
ATOM     12  C   UNL     1       0.420  10.698  20.071  0.00  0.00    +0.000 A 
ATOM     13  C   UNL     1       1.164   9.570  19.591  0.00  0.00    +0.000 A 
ATOM     14  C   UNL     1       1.952   9.461  18.364  0.00  0.00    +0.000 C 
ATOM     15  O   UNL     1       2.040  10.395  17.580  0.00  0.00    +0.000 OA
ENDROOT
BRANCH   1  17
ATOM     16  C   UNL     1       5.136   4.390  15.901  0.00  0.00    +0.000 C 
ATOM     17  C   UNL     1       4.846   4.499  17.414  0.00  0.00    +0.000 C 
ATOM     18  C   UNL     1       4.067   3.252  17.878  0.00  0.00    +0.000 C 
ATOM     19  C   UNL     1       6.212   4.482  18.140  0.00  0.00    +0.000 C 
ENDBRANCH   1  17
BRANCH  11  20
ATOM     20  N   UNL     1      -1.031  11.313  22.045  0.00  0.00    +0.000 N 
ATOM     21  O   UNL     1      -0.952  11.204  23.275  0.00  0.00    +0.000 OA
ATOM     22  O   UNL     1      -1.755  12.113  21.440  0.00  0.00    +0.000 OA
ENDBRANCH  11  20
TORSDOF 2
ENDMDL
