MODEL 1
REMARK VINA RESULT:      -9.1      0.000      0.000
REMARK  Name = 
REMARK  5 active torsions:
REMARK  status: ('A' for Active; 'I' for Inactive)
REMARK    1  A    between atoms: C_1  and  C_2
REMARK    2  A    between atoms: C_2  and  N_3
REMARK    3  A    between atoms: C_10  and  N_11
REMARK    4  A    between atoms: CA_14  and  C_15
REMARK    5  A    between atoms: C_15  and  OXT_17
REMARK                            x       y       z     vdW  Elec       q    Type
REMARK                         _______ _______ _______ _____ _____    ______ ____
ROOT
ATOM      1  N   UNL     1       3.502   5.291  18.900  0.00  0.00    +0.000 NA
ATOM      2  C   UNL     1       2.881   5.273  20.252  0.00  0.00    +0.000 C 
ATOM      3  C   UNL     1       1.794   4.159  20.422  0.00  0.00    +0.000 C 
ATOM      4  C   UNL     1       0.823   3.935  19.245  0.00  0.00    +0.000 C 
ATOM      5  C   UNL     1       1.489   4.229  17.844  0.00  0.00    +0.000 C 
ATOM      6  C   UNL     1       2.363   5.530  17.954  0.00  0.00    +0.000 C 
ATOM      7  C   UNL     1       2.061   7.103  18.058  0.00  0.00    +0.000 C 
ATOM      8  C   UNL     1       1.492   7.448  19.531  0.00  0.00    +0.000 C 
ATOM      9  C   UNL     1       2.354   6.711  20.609  0.00  0.00    +0.000 C 
ENDROOT
BRANCH   8  10
ATOM     10  N   UNL     1       1.288   8.900  19.798  0.00  0.00    +0.000 N 
ATOM     11  C   UNL     1       1.671   9.805  18.796  0.00  0.00    +0.000 A 
ATOM     12  O   UNL     1       2.194   9.515  17.735  0.00  0.00    +0.000 OA
ATOM     13  CA  UNL     1       1.445  11.266  19.020  0.00  0.00    +0.000 A 
ATOM     14  N   UNL     1       0.798  11.725  20.038  0.00  0.00    +0.000 NA
ATOM     15  C   UNL     1       0.331  10.820  20.993  0.00  0.00    +0.000 A 
ATOM     16  C   UNL     1      -0.430  11.382  22.028  0.00  0.00    +0.000 A 
ATOM     17  C   UNL     1      -0.896  10.599  23.073  0.00  0.00    +0.000 A 
ATOM     18  C   UNL     1      -0.558   9.251  23.103  0.00  0.00    +0.000 A 
ATOM     19  C   UNL     1       0.195   8.671  22.064  0.00  0.00    +0.000 A 
ATOM     20  C   UNL     1       0.614   9.431  20.962  0.00  0.00    +0.000 A 
BRANCH  13  21
ATOM     21  C   UNL     1       2.014  12.308  18.018  0.00  0.00    +0.000 C 
ATOM     22  O   UNL     1       1.791  13.500  18.140  0.00  0.00    +0.000 OA
BRANCH  21  23
ATOM     23  OXT UNL     1       2.773  11.812  17.026  0.00  0.00    +0.000 OA
ATOM     24  HXT UNL     1       3.738  12.008  17.117  0.00  0.00    +0.000 HD
ENDBRANCH  21  23
ENDBRANCH  13  21
ENDBRANCH   8  10
BRANCH   1  26
ATOM     25  C   UNL     1       4.626   3.128  19.700  0.00  0.00    +0.000 C 
ATOM     26  C   UNL     1       4.662   4.309  18.659  0.00  0.00    +0.000 C 
ATOM     27  C   UNL     1       6.046   5.003  19.001  0.00  0.00    +0.000 C 
ATOM     28  C   UNL     1       6.773   6.083  18.179  0.00  0.00    +0.000 C 
ATOM     29  C   UNL     1       6.041   6.957  17.172  0.00  0.00    +0.000 C 
ATOM     30  C   UNL     1       6.069   6.460  15.728  0.00  0.00    +0.000 C 
ATOM     31  C   UNL     1       5.192   5.246  15.466  0.00  0.00    +0.000 C 
ATOM     32  C   UNL     1       5.705   3.998  16.149  0.00  0.00    +0.000 C 
ATOM     33  C   UNL     1       4.821   3.508  17.298  0.00  0.00    +0.000 C 
ENDBRANCH   1  26
TORSDOF 4
ENDMDL
MODEL 2
REMARK VINA RESULT:      -8.2      6.871     10.227
REMARK  Name = 
REMARK  5 active torsions:
REMARK  status: ('A' for Active; 'I' for Inactive)
REMARK    1  A    between atoms: C_1  and  C_2
REMARK    2  A    between atoms: C_2  and  N_3
REMARK    3  A    between atoms: C_10  and  N_11
REMARK    4  A    between atoms: CA_14  and  C_15
REMARK    5  A    between atoms: C_15  and  OXT_17
REMARK                            x       y       z     vdW  Elec       q    Type
REMARK                         _______ _______ _______ _____ _____    ______ ____
ROOT
ATOM      1  N   UNL     1      -2.208  13.725  20.959  0.00  0.00    +0.000 NA
ATOM      2  C   UNL     1      -1.667  12.917  19.834  0.00  0.00    +0.000 C 
ATOM      3  C   UNL     1      -1.192  11.489  20.268  0.00  0.00    +0.000 C 
ATOM      4  C   UNL     1      -0.416  11.376  21.596  0.00  0.00    +0.000 C 
ATOM      5  C   UNL     1      -0.875  12.449  22.659  0.00  0.00    +0.000 C 
ATOM      6  C   UNL     1      -1.078  13.831  21.939  0.00  0.00    +0.000 C 
ATOM      7  C   UNL     1      -0.106  14.955  21.331  0.00  0.00    +0.000 C 
ATOM      8  C   UNL     1       0.550  14.417  19.956  0.00  0.00    +0.000 C 
ATOM      9  C   UNL     1      -0.556  13.736  19.082  0.00  0.00    +0.000 C 
ENDROOT
BRANCH   8  10
ATOM     10  N   UNL     1       1.379  15.417  19.225  0.00  0.00    +0.000 N 
ATOM     11  C   UNL     1       2.762  15.187  19.157  0.00  0.00    +0.000 A 
ATOM     12  O   UNL     1       3.358  14.261  19.675  0.00  0.00    +0.000 OA
ATOM     13  CA  UNL     1       3.616  16.154  18.400  0.00  0.00    +0.000 A 
ATOM     14  N   UNL     1       3.124  17.120  17.698  0.00  0.00    +0.000 NA
ATOM     15  C   UNL     1       1.740  17.296  17.686  0.00  0.00    +0.000 A 
ATOM     16  C   UNL     1       1.273  18.313  16.841  0.00  0.00    +0.000 A 
ATOM     17  C   UNL     1      -0.075  18.631  16.789  0.00  0.00    +0.000 A 
ATOM     18  C   UNL     1      -0.957  17.952  17.624  0.00  0.00    +0.000 A 
ATOM     19  C   UNL     1      -0.504  16.920  18.467  0.00  0.00    +0.000 A 
ATOM     20  C   UNL     1       0.845  16.535  18.482  0.00  0.00    +0.000 A 
BRANCH  13  21
ATOM     21  C   UNL     1       5.164  16.035  18.449  0.00  0.00    +0.000 C 
ATOM     22  O   UNL     1       5.854  16.892  18.975  0.00  0.00    +0.000 OA
BRANCH  21  23
ATOM     23  OXT UNL     1       5.683  14.928  17.892  0.00  0.00    +0.000 OA
ATOM     24  HXT UNL     1       6.119  15.080  17.018  0.00  0.00    +0.000 HD
ENDBRANCH  21  23
ENDBRANCH  13  21
ENDBRANCH   8  10
BRANCH   1  26
ATOM     25  C   UNL     1      -4.402  12.597  20.254  0.00  0.00    +0.000 C 
ATOM     26  C   UNL     1      -3.683  13.493  21.332  0.00  0.00    +0.000 C 
ATOM     27  C   UNL     1      -4.496  14.850  21.221  0.00  0.00    +0.000 C 
ATOM     28  C   UNL     1      -4.430  16.053  22.180  0.00  0.00    +0.000 C 
ATOM     29  C   UNL     1      -3.241  16.286  23.101  0.00  0.00    +0.000 C 
ATOM     30  C   UNL     1      -3.385  15.724  24.515  0.00  0.00    +0.000 C 
ATOM     31  C   UNL     1      -3.287  14.209  24.600  0.00  0.00    +0.000 C 
ATOM     32  C   UNL     1      -4.462  13.511  23.954  0.00  0.00    +0.000 C 
ATOM     33  C   UNL     1      -4.111  12.755  22.671  0.00  0.00    +0.000 C 
ENDBRANCH   1  26
TORSDOF 4
ENDMDL
MODEL 3
REMARK VINA RESULT:      -8.1      8.180      9.824
REMARK  Name = 
REMARK  5 active torsions:
REMARK  status: ('A' for Active; 'I' for Inactive)
REMARK    1  A    between atoms: C_1  and  C_2
REMARK    2  A    between atoms: C_2  and  N_3
REMARK    3  A    between atoms: C_10  and  N_11
REMARK    4  A    between atoms: CA_14  and  C_15
REMARK    5  A    between atoms: C_15  and  OXT_17
REMARK                            x       y       z     vdW  Elec       q    Type
REMARK                         _______ _______ _______ _____ _____    ______ ____
ROOT
ATOM      1  N   UNL     1       8.449  13.866  19.353  0.00  0.00    +0.000 NA
ATOM      2  C   UNL     1       7.188  14.635  19.174  0.00  0.00    +0.000 C 
ATOM      3  C   UNL     1       7.396  16.013  18.460  0.00  0.00    +0.000 C 
ATOM      4  C   UNL     1       8.624  16.846  18.878  0.00  0.00    +0.000 C 
ATOM      5  C   UNL     1       9.850  15.948  19.307  0.00  0.00    +0.000 C 
ATOM      6  C   UNL     1       9.328  14.753  20.184  0.00  0.00    +0.000 C 
ATOM      7  C   UNL     1       8.780  14.592  21.684  0.00  0.00    +0.000 C 
ATOM      8  C   UNL     1       7.294  15.221  21.787  0.00  0.00    +0.000 C 
ATOM      9  C   UNL     1       6.447  14.759  20.555  0.00  0.00    +0.000 C 
ENDROOT
BRANCH   8  10
ATOM     10  N   UNL     1       6.621  15.024  23.102  0.00  0.00    +0.000 N 
ATOM     11  C   UNL     1       5.777  16.048  23.559  0.00  0.00    +0.000 A 
ATOM     12  O   UNL     1       5.570  17.107  22.995  0.00  0.00    +0.000 OA
ATOM     13  CA  UNL     1       5.059  15.864  24.858  0.00  0.00    +0.000 A 
ATOM     14  N   UNL     1       5.081  14.754  25.517  0.00  0.00    +0.000 NA
ATOM     15  C   UNL     1       5.846  13.698  25.019  0.00  0.00    +0.000 A 
ATOM     16  C   UNL     1       5.759  12.501  25.744  0.00  0.00    +0.000 A 
ATOM     17  C   UNL     1       6.520  11.399  25.388  0.00  0.00    +0.000 A 
ATOM     18  C   UNL     1       7.409  11.512  24.325  0.00  0.00    +0.000 A 
ATOM     19  C   UNL     1       7.497  12.703  23.580  0.00  0.00    +0.000 A 
ATOM     20  C   UNL     1       6.683  13.806  23.878  0.00  0.00    +0.000 A 
BRANCH  13  21
ATOM     21  C   UNL     1       4.259  17.039  25.482  0.00  0.00    +0.000 C 
ATOM     22  O   UNL     1       3.093  16.912  25.815  0.00  0.00    +0.000 OA
BRANCH  21  23
ATOM     23  OXT UNL     1       4.936  18.189  25.642  0.00  0.00    +0.000 OA
ATOM     24  HXT UNL     1       5.913  18.105  25.514  0.00  0.00    +0.000 HD
ENDBRANCH  21  23
ENDBRANCH  13  21
ENDBRANCH   8  10
BRANCH   1  26
ATOM     25  C   UNL     1       7.817  12.972  17.033  0.00  0.00    +0.000 C 
ATOM     26  C   UNL     1       8.921  13.024  18.156  0.00  0.00    +0.000 C 
ATOM     27  C   UNL     1       9.035  11.498  18.571  0.00  0.00    +0.000 C 
ATOM     28  C   UNL     1      10.112  10.855  19.463  0.00  0.00    +0.000 C 
ATOM     29  C   UNL     1      10.945  11.675  20.438  0.00  0.00    +0.000 C 
ATOM     30  C   UNL     1      12.294  12.156  19.906  0.00  0.00    +0.000 C 
ATOM     31  C   UNL     1      12.202  13.275  18.882  0.00  0.00    +0.000 C 
ATOM     32  C   UNL     1      11.587  12.823  17.577  0.00  0.00    +0.000 C 
ATOM     33  C   UNL     1      10.202  13.412  17.301  0.00  0.00    +0.000 C 
ENDBRANCH   1  26
TORSDOF 4
ENDMDL
MODEL 4
REMARK VINA RESULT:      -8.1      1.986      3.122
REMARK  Name = 
REMARK  5 active torsions:
REMARK  status: ('A' for Active; 'I' for Inactive)
REMARK    1  A    between atoms: C_1  and  C_2
REMARK    2  A    between atoms: C_2  and  N_3
REMARK    3  A    between atoms: C_10  and  N_11
REMARK    4  A    between atoms: CA_14  and  C_15
REMARK    5  A    between atoms: C_15  and  OXT_17
REMARK                            x       y       z     vdW  Elec       q    Type
REMARK                         _______ _______ _______ _____ _____    ______ ____
ROOT
ATOM      1  N   UNL     1       3.547   5.240  18.930  0.00  0.00    +0.000 NA
ATOM      2  C   UNL     1       2.777   5.003  20.180  0.00  0.00    +0.000 C 
ATOM      3  C   UNL     1       1.729   3.846  20.054  0.00  0.00    +0.000 C 
ATOM      4  C   UNL     1       0.910   3.775  18.750  0.00  0.00    +0.000 C 
ATOM      5  C   UNL     1       1.719   4.293  17.496  0.00  0.00    +0.000 C 
ATOM      6  C   UNL     1       2.515   5.587  17.899  0.00  0.00    +0.000 C 
ATOM      7  C   UNL     1       2.132   7.118  18.194  0.00  0.00    +0.000 C 
ATOM      8  C   UNL     1       1.383   7.222  19.622  0.00  0.00    +0.000 C 
ATOM      9  C   UNL     1       2.149   6.355  20.677  0.00  0.00    +0.000 C 
ENDROOT
BRANCH   8  10
ATOM     10  N   UNL     1       1.084   8.612  20.072  0.00  0.00    +0.000 N 
ATOM     11  C   UNL     1       0.493   8.772  21.334  0.00  0.00    +0.000 A 
ATOM     12  O   UNL     1       0.163   7.874  22.087  0.00  0.00    +0.000 OA
ATOM     13  CA  UNL     1       0.214  10.155  21.828  0.00  0.00    +0.000 A 
ATOM     14  N   UNL     1       0.608  11.214  21.202  0.00  0.00    +0.000 NA
ATOM     15  C   UNL     1       1.281  11.058  19.990  0.00  0.00    +0.000 A 
ATOM     16  C   UNL     1       1.748  12.245  19.408  0.00  0.00    +0.000 A 
ATOM     17  C   UNL     1       2.375  12.231  18.171  0.00  0.00    +0.000 A 
ATOM     18  C   UNL     1       2.495  11.022  17.494  0.00  0.00    +0.000 A 
ATOM     19  C   UNL     1       2.042   9.822  18.072  0.00  0.00    +0.000 A 
ATOM     20  C   UNL     1       1.471   9.805  19.353  0.00  0.00    +0.000 A 
BRANCH  13  21
ATOM     21  C   UNL     1      -0.597  10.370  23.135  0.00  0.00    +0.000 C 
ATOM     22  O   UNL     1      -1.544  11.138  23.181  0.00  0.00    +0.000 OA
BRANCH  21  23
ATOM     23  OXT UNL     1      -0.199   9.648  24.196  0.00  0.00    +0.000 OA
ATOM     24  HXT UNL     1       0.750   9.778  24.442  0.00  0.00    +0.000 HD
ENDBRANCH  21  23
ENDBRANCH  13  21
ENDBRANCH   8  10
BRANCH   1  26
ATOM     25  C   UNL     1       4.827   3.172  19.746  0.00  0.00    +0.000 C 
ATOM     26  C   UNL     1       4.770   4.338  18.689  0.00  0.00    +0.000 C 
ATOM     27  C   UNL     1       6.106   5.130  19.007  0.00  0.00    +0.000 C 
ATOM     28  C   UNL     1       6.748   6.247  18.163  0.00  0.00    +0.000 C 
ATOM     29  C   UNL     1       5.947   7.054  17.152  0.00  0.00    +0.000 C 
ATOM     30  C   UNL     1       5.995   6.539  15.714  0.00  0.00    +0.000 C 
ATOM     31  C   UNL     1       5.203   5.264  15.478  0.00  0.00    +0.000 C 
ATOM     32  C   UNL     1       5.808   4.065  16.173  0.00  0.00    +0.000 C 
ATOM     33  C   UNL     1       4.972   3.530  17.337  0.00  0.00    +0.000 C 
ENDBRANCH   1  26
TORSDOF 4
ENDMDL
MODEL 5
REMARK VINA RESULT:      -8.0      5.476     10.250
REMARK  Name = 
REMARK  5 active torsions:
REMARK  status: ('A' for Active; 'I' for Inactive)
REMARK    1  A    between atoms: C_1  and  C_2
REMARK    2  A    between atoms: C_2  and  N_3
REMARK    3  A    between atoms: C_10  and  N_11
REMARK    4  A    between atoms: CA_14  and  C_15
REMARK    5  A    between atoms: C_15  and  OXT_17
REMARK                            x       y       z     vdW  Elec       q    Type
REMARK                         _______ _______ _______ _____ _____    ______ ____
ROOT
ATOM      1  N   UNL     1      -5.052  13.259  21.320  0.00  0.00    +0.000 NA
ATOM      2  C   UNL     1      -4.354  12.685  22.502  0.00  0.00    +0.000 C 
ATOM      3  C   UNL     1      -4.603  13.489  23.822  0.00  0.00    +0.000 C 
ATOM      4  C   UNL     1      -4.583  15.028  23.727  0.00  0.00    +0.000 C 
ATOM      5  C   UNL     1      -5.101  15.555  22.331  0.00  0.00    +0.000 C 
ATOM      6  C   UNL     1      -4.510  14.651  21.189  0.00  0.00    +0.000 C 
ATOM      7  C   UNL     1      -3.068  14.473  20.505  0.00  0.00    +0.000 C 
ATOM      8  C   UNL     1      -2.077  13.707  21.526  0.00  0.00    +0.000 C 
ATOM      9  C   UNL     1      -2.829  12.495  22.172  0.00  0.00    +0.000 C 
ENDROOT
BRANCH   8  10
ATOM     10  N   UNL     1      -0.739  13.368  20.962  0.00  0.00    +0.000 N 
ATOM     11  C   UNL     1       0.370  14.068  21.460  0.00  0.00    +0.000 A 
ATOM     12  O   UNL     1       0.340  14.960  22.288  0.00  0.00    +0.000 OA
ATOM     13  CA  UNL     1       1.730  13.725  20.940  0.00  0.00    +0.000 A 
ATOM     14  N   UNL     1       1.945  12.727  20.148  0.00  0.00    +0.000 NA
ATOM     15  C   UNL     1       0.854  11.968  19.723  0.00  0.00    +0.000 A 
ATOM     16  C   UNL     1       1.171  10.856  18.931  0.00  0.00    +0.000 A 
ATOM     17  C   UNL     1       0.172  10.059  18.392  0.00  0.00    +0.000 A 
ATOM     18  C   UNL     1      -1.156  10.408  18.615  0.00  0.00    +0.000 A 
ATOM     19  C   UNL     1      -1.489  11.514  19.419  0.00  0.00    +0.000 A 
ATOM     20  C   UNL     1      -0.493  12.289  20.032  0.00  0.00    +0.000 A 
BRANCH  13  21
ATOM     21  C   UNL     1       2.958  14.592  21.331  0.00  0.00    +0.000 C 
ATOM     22  O   UNL     1       3.594  15.213  20.496  0.00  0.00    +0.000 OA
BRANCH  21  23
ATOM     23  OXT UNL     1       3.260  14.622  22.640  0.00  0.00    +0.000 OA
ATOM     24  HXT UNL     1       2.522  14.337  23.233  0.00  0.00    +0.000 HD
ENDBRANCH  21  23
ENDBRANCH  13  21
ENDBRANCH   8  10
BRANCH   1  26
ATOM     25  C   UNL     1      -7.231  12.623  22.514  0.00  0.00    +0.000 C 
ATOM     26  C   UNL     1      -6.525  12.862  21.127  0.00  0.00    +0.000 C 
ATOM     27  C   UNL     1      -6.622  11.426  20.461  0.00  0.00    +0.000 C 
ATOM     28  C   UNL     1      -6.317  11.057  18.997  0.00  0.00    +0.000 C 
ATOM     29  C   UNL     1      -5.443  11.933  18.111  0.00  0.00    +0.000 C 
ATOM     30  C   UNL     1      -6.192  12.944  17.244  0.00  0.00    +0.000 C 
ATOM     31  C   UNL     1      -6.772  14.121  18.011  0.00  0.00    +0.000 C 
ATOM     32  C   UNL     1      -7.906  13.718  18.926  0.00  0.00    +0.000 C 
ATOM     33  C   UNL     1      -7.573  13.820  20.416  0.00  0.00    +0.000 C 
ENDBRANCH   1  26
TORSDOF 4
ENDMDL
MODEL 6
REMARK VINA RESULT:      -8.0      1.711      3.770
REMARK  Name = 
REMARK  5 active torsions:
REMARK  status: ('A' for Active; 'I' for Inactive)
REMARK    1  A    between atoms: C_1  and  C_2
REMARK    2  A    between atoms: C_2  and  N_3
REMARK    3  A    between atoms: C_10  and  N_11
REMARK    4  A    between atoms: CA_14  and  C_15
REMARK    5  A    between atoms: C_15  and  OXT_17
REMARK                            x       y       z     vdW  Elec       q    Type
REMARK                         _______ _______ _______ _____ _____    ______ ____
ROOT
ATOM      1  N   UNL     1       2.761   5.269  18.437  0.00  0.00    +0.000 NA
ATOM      2  C   UNL     1       2.901   6.276  17.352  0.00  0.00    +0.000 C 
ATOM      3  C   UNL     1       4.391   6.618  17.010  0.00  0.00    +0.000 C 
ATOM      4  C   UNL     1       5.367   6.781  18.192  0.00  0.00    +0.000 C 
ATOM      5  C   UNL     1       4.995   5.857  19.417  0.00  0.00    +0.000 C 
ATOM      6  C   UNL     1       3.438   5.884  19.626  0.00  0.00    +0.000 C 
ATOM      7  C   UNL     1       2.381   6.947  20.200  0.00  0.00    +0.000 C 
ATOM      8  C   UNL     1       2.186   8.146  19.133  0.00  0.00    +0.000 C 
ATOM      9  C   UNL     1       2.039   7.545  17.696  0.00  0.00    +0.000 C 
ENDROOT
BRANCH   8  10
ATOM     10  N   UNL     1       1.134   9.138  19.493  0.00  0.00    +0.000 N 
ATOM     11  C   UNL     1       0.408   9.722  18.444  0.00  0.00    +0.000 A 
ATOM     12  O   UNL     1       0.582   9.521  17.256  0.00  0.00    +0.000 OA
ATOM     13  CA  UNL     1      -0.679  10.695  18.775  0.00  0.00    +0.000 A 
ATOM     14  N   UNL     1      -1.065  10.927  19.986  0.00  0.00    +0.000 NA
ATOM     15  C   UNL     1      -0.406  10.276  21.030  0.00  0.00    +0.000 A 
ATOM     16  C   UNL     1      -0.930  10.515  22.309  0.00  0.00    +0.000 A 
ATOM     17  C   UNL     1      -0.326   9.979  23.435  0.00  0.00    +0.000 A 
ATOM     18  C   UNL     1       0.839   9.235  23.281  0.00  0.00    +0.000 A 
ATOM     19  C   UNL     1       1.368   8.976  22.003  0.00  0.00    +0.000 A 
ATOM     20  C   UNL     1       0.731   9.449  20.846  0.00  0.00    +0.000 A 
BRANCH  13  21
ATOM     21  C   UNL     1      -1.385  11.494  17.645  0.00  0.00    +0.000 C 
ATOM     22  O   UNL     1      -2.224  10.978  16.926  0.00  0.00    +0.000 OA
BRANCH  21  23
ATOM     23  OXT UNL     1      -1.022  12.782  17.525  0.00  0.00    +0.000 OA
ATOM     24  HXT UNL     1      -1.454  13.387  18.177  0.00  0.00    +0.000 HD
ENDBRANCH  21  23
ENDBRANCH  13  21
ENDBRANCH   8  10
BRANCH   1  26
ATOM     25  C   UNL     1       3.273   3.654  16.510  0.00  0.00    +0.000 C 
ATOM     26  C   UNL     1       2.867   3.790  18.026  0.00  0.00    +0.000 C 
ATOM     27  C   UNL     1       1.432   3.114  18.041  0.00  0.00    +0.000 C 
ATOM     28  C   UNL     1       0.602   2.724  19.277  0.00  0.00    +0.000 C 
ATOM     29  C   UNL     1       0.844   3.352  20.642  0.00  0.00    +0.000 C 
ATOM     30  C   UNL     1       1.779   2.574  21.567  0.00  0.00    +0.000 C 
ATOM     31  C   UNL     1       3.244   2.629  21.167  0.00  0.00    +0.000 C 
ATOM     32  C   UNL     1       3.525   1.888  19.879  0.00  0.00    +0.000 C 
ATOM     33  C   UNL     1       3.901   2.795  18.706  0.00  0.00    +0.000 C 
ENDBRANCH   1  26
TORSDOF 4
ENDMDL
MODEL 7
REMARK VINA RESULT:      -7.8      8.021      9.934
REMARK  Name = 
REMARK  5 active torsions:
REMARK  status: ('A' for Active; 'I' for Inactive)
REMARK    1  A    between atoms: C_1  and  C_2
REMARK    2  A    between atoms: C_2  and  N_3
REMARK    3  A    between atoms: C_10  and  N_11
REMARK    4  A    between atoms: CA_14  and  C_15
REMARK    5  A    between atoms: C_15  and  OXT_17
REMARK                            x       y       z     vdW  Elec       q    Type
REMARK                         _______ _______ _______ _____ _____    ______ ____
ROOT
ATOM      1  N   UNL     1       9.689  15.151  19.728  0.00  0.00    +0.000 NA
ATOM      2  C   UNL     1       9.618  16.604  20.039  0.00  0.00    +0.000 C 
ATOM      3  C   UNL     1      10.382  16.997  21.349  0.00  0.00    +0.000 C 
ATOM      4  C   UNL     1      10.237  16.054  22.560  0.00  0.00    +0.000 C 
ATOM      5  C   UNL     1      10.055  14.544  22.135  0.00  0.00    +0.000 C 
ATOM      6  C   UNL     1       9.070  14.470  20.912  0.00  0.00    +0.000 C 
ATOM      7  C   UNL     1       7.487  14.643  20.709  0.00  0.00    +0.000 C 
ATOM      8  C   UNL     1       7.092  16.204  20.841  0.00  0.00    +0.000 C 
ATOM      9  C   UNL     1       8.117  17.071  20.035  0.00  0.00    +0.000 C 
ENDROOT
BRANCH   8  10
ATOM     10  N   UNL     1       5.664  16.515  20.549  0.00  0.00    +0.000 N 
ATOM     11  C   UNL     1       5.208  16.299  19.240  0.00  0.00    +0.000 A 
ATOM     12  O   UNL     1       5.883  15.913  18.303  0.00  0.00    +0.000 OA
ATOM     13  CA  UNL     1       3.770  16.566  18.925  0.00  0.00    +0.000 A 
ATOM     14  N   UNL     1       2.900  16.866  19.831  0.00  0.00    +0.000 NA
ATOM     15  C   UNL     1       3.332  16.992  21.152  0.00  0.00    +0.000 A 
ATOM     16  C   UNL     1       2.320  17.241  22.091  0.00  0.00    +0.000 A 
ATOM     17  C   UNL     1       2.627  17.449  23.427  0.00  0.00    +0.000 A 
ATOM     18  C   UNL     1       3.962  17.453  23.816  0.00  0.00    +0.000 A 
ATOM     19  C   UNL     1       4.987  17.191  22.886  0.00  0.00    +0.000 A 
ATOM     20  C   UNL     1       4.692  16.906  21.545  0.00  0.00    +0.000 A 
BRANCH  13  21
ATOM     21  C   UNL     1       3.268  16.510  17.456  0.00  0.00    +0.000 C 
ATOM     22  O   UNL     1       2.718  17.464  16.932  0.00  0.00    +0.000 OA
BRANCH  21  23
ATOM     23  OXT UNL     1       3.492  15.356  16.805  0.00  0.00    +0.000 OA
ATOM     24  HXT UNL     1       2.684  14.804  16.668  0.00  0.00    +0.000 HD
ENDBRANCH  21  23
ENDBRANCH  13  21
ENDBRANCH   8  10
BRANCH   1  26
ATOM     25  C   UNL     1      11.837  15.880  18.529  0.00  0.00    +0.000 C 
ATOM     26  C   UNL     1      10.945  14.664  18.984  0.00  0.00    +0.000 C 
ATOM     27  C   UNL     1      10.540  14.018  17.593  0.00  0.00    +0.000 C 
ATOM     28  C   UNL     1       9.861  12.656  17.363  0.00  0.00    +0.000 C 
ATOM     29  C   UNL     1       9.072  11.954  18.459  0.00  0.00    +0.000 C 
ATOM     30  C   UNL     1       9.856  10.933  19.282  0.00  0.00    +0.000 C 
ATOM     31  C   UNL     1      10.856  11.543  20.250  0.00  0.00    +0.000 C 
ATOM     32  C   UNL     1      12.016  12.210  19.546  0.00  0.00    +0.000 C 
ATOM     33  C   UNL     1      12.030  13.735  19.675  0.00  0.00    +0.000 C 
ENDBRANCH   1  26
TORSDOF 4
ENDMDL
MODEL 8
REMARK VINA RESULT:      -7.8      8.929     10.986
REMARK  Name = 
REMARK  5 active torsions:
REMARK  status: ('A' for Active; 'I' for Inactive)
REMARK    1  A    between atoms: C_1  and  C_2
REMARK    2  A    between atoms: C_2  and  N_3
REMARK    3  A    between atoms: C_10  and  N_11
REMARK    4  A    between atoms: CA_14  and  C_15
REMARK    5  A    between atoms: C_15  and  OXT_17
REMARK                            x       y       z     vdW  Elec       q    Type
REMARK                         _______ _______ _______ _____ _____    ______ ____
ROOT
ATOM      1  N   UNL     1      10.036  14.212  19.020  0.00  0.00    +0.000 NA
ATOM      2  C   UNL     1      10.580  13.025  19.733  0.00  0.00    +0.000 C 
ATOM      3  C   UNL     1      10.310  11.675  18.986  0.00  0.00    +0.000 C 
ATOM      4  C   UNL     1       8.917  11.485  18.353  0.00  0.00    +0.000 C 
ATOM      5  C   UNL     1       8.289  12.844  17.850  0.00  0.00    +0.000 C 
ATOM      6  C   UNL     1       8.561  13.962  18.920  0.00  0.00    +0.000 C 
ATOM      7  C   UNL     1       7.981  14.316  20.375  0.00  0.00    +0.000 C 
ATOM      8  C   UNL     1       8.539  13.250  21.453  0.00  0.00    +0.000 C 
ATOM      9  C   UNL     1      10.069  13.023  21.219  0.00  0.00    +0.000 C 
ENDROOT
BRANCH   8  10
ATOM     10  N   UNL     1       8.172  13.542  22.868  0.00  0.00    +0.000 N 
ATOM     11  C   UNL     1       7.321  12.635  23.518  0.00  0.00    +0.000 A 
ATOM     12  O   UNL     1       6.820  11.643  23.020  0.00  0.00    +0.000 OA
ATOM     13  CA  UNL     1       6.964  12.881  24.950  0.00  0.00    +0.000 A 
ATOM     14  N   UNL     1       7.503  13.820  25.653  0.00  0.00    +0.000 NA
ATOM     15  C   UNL     1       8.423  14.669  25.035  0.00  0.00    +0.000 A 
ATOM     16  C   UNL     1       9.025  15.613  25.879  0.00  0.00    +0.000 A 
ATOM     17  C   UNL     1       9.908  16.556  25.374  0.00  0.00    +0.000 A 
ATOM     18  C   UNL     1      10.152  16.580  24.006  0.00  0.00    +0.000 A 
ATOM     19  C   UNL     1       9.564  15.630  23.149  0.00  0.00    +0.000 A 
ATOM     20  C   UNL     1       8.726  14.623  23.650  0.00  0.00    +0.000 A 
BRANCH  13  21
ATOM     21  C   UNL     1       5.890  12.003  25.649  0.00  0.00    +0.000 C 
ATOM     22  O   UNL     1       4.851  12.482  26.072  0.00  0.00    +0.000 OA
BRANCH  21  23
ATOM     23  OXT UNL     1       6.174  10.694  25.742  0.00  0.00    +0.000 OA
ATOM     24  HXT UNL     1       6.641  10.323  24.953  0.00  0.00    +0.000 HD
ENDBRANCH  21  23
ENDBRANCH  13  21
ENDBRANCH   8  10
BRANCH   1  26
ATOM     25  C   UNL     1      11.507  13.674  16.988  0.00  0.00    +0.000 C 
ATOM     26  C   UNL     1      10.910  14.809  17.903  0.00  0.00    +0.000 C 
ATOM     27  C   UNL     1      12.221  15.454  18.519  0.00  0.00    +0.000 C 
ATOM     28  C   UNL     1      12.324  16.767  19.317  0.00  0.00    +0.000 C 
ATOM     29  C   UNL     1      11.120  17.382  20.014  0.00  0.00    +0.000 C 
ATOM     30  C   UNL     1      10.365  18.440  19.211  0.00  0.00    +0.000 C 
ATOM     31  C   UNL     1       9.544  17.885  18.059  0.00  0.00    +0.000 C 
ATOM     32  C   UNL     1      10.402  17.322  16.949  0.00  0.00    +0.000 C 
ATOM     33  C   UNL     1      10.324  15.800  16.810  0.00  0.00    +0.000 C 
ENDBRANCH   1  26
TORSDOF 4
ENDMDL
MODEL 9
REMARK VINA RESULT:      -7.7      5.092     10.912
REMARK  Name = 
REMARK  5 active torsions:
REMARK  status: ('A' for Active; 'I' for Inactive)
REMARK    1  A    between atoms: C_1  and  C_2
REMARK    2  A    between atoms: C_2  and  N_3
REMARK    3  A    between atoms: C_10  and  N_11
REMARK    4  A    between atoms: CA_14  and  C_15
REMARK    5  A    between atoms: C_15  and  OXT_17
REMARK                            x       y       z     vdW  Elec       q    Type
REMARK                         _______ _______ _______ _____ _____    ______ ____
ROOT
ATOM      1  N   UNL     1      -4.428  14.353  22.544  0.00  0.00    +0.000 NA
ATOM      2  C   UNL     1      -4.167  13.274  23.534  0.00  0.00    +0.000 C 
ATOM      3  C   UNL     1      -3.645  13.807  24.911  0.00  0.00    +0.000 C 
ATOM      4  C   UNL     1      -2.601  14.941  24.879  0.00  0.00    +0.000 C 
ATOM      5  C   UNL     1      -2.789  15.904  23.641  0.00  0.00    +0.000 C 
ATOM      6  C   UNL     1      -3.109  15.043  22.366  0.00  0.00    +0.000 C 
ATOM      7  C   UNL     1      -2.265  14.080  21.397  0.00  0.00    +0.000 C 
ATOM      8  C   UNL     1      -1.939  12.695  22.162  0.00  0.00    +0.000 C 
ATOM      9  C   UNL     1      -3.226  12.188  22.895  0.00  0.00    +0.000 C 
ENDROOT
BRANCH   8  10
ATOM     10  N   UNL     1      -1.264  11.662  21.325  0.00  0.00    +0.000 N 
ATOM     11  C   UNL     1      -0.393  10.772  21.972  0.00  0.00    +0.000 A 
ATOM     12  O   UNL     1      -0.104  10.787  23.155  0.00  0.00    +0.000 OA
ATOM     13  CA  UNL     1       0.272   9.701  21.165  0.00  0.00    +0.000 A 
ATOM     14  N   UNL     1      -0.017   9.479  19.926  0.00  0.00    +0.000 NA
ATOM     15  C   UNL     1      -0.954  10.304  19.303  0.00  0.00    +0.000 A 
ATOM     16  C   UNL     1      -1.276   9.954  17.984  0.00  0.00    +0.000 A 
ATOM     17  C   UNL     1      -2.144  10.732  17.234  0.00  0.00    +0.000 A 
ATOM     18  C   UNL     1      -2.660  11.894  17.798  0.00  0.00    +0.000 A 
ATOM     19  C   UNL     1      -2.356  12.251  19.125  0.00  0.00    +0.000 A 
ATOM     20  C   UNL     1      -1.537  11.439  19.924  0.00  0.00    +0.000 A 
BRANCH  13  21
ATOM     21  C   UNL     1       1.373   8.812  21.804  0.00  0.00    +0.000 C 
ATOM     22  O   UNL     1       1.523   7.647  21.476  0.00  0.00    +0.000 OA
BRANCH  21  23
ATOM     23  OXT UNL     1       2.152   9.412  22.720  0.00  0.00    +0.000 OA
ATOM     24  HXT UNL     1       3.042   8.997  22.831  0.00  0.00    +0.000 HD
ENDBRANCH  21  23
ENDBRANCH  13  21
ENDBRANCH   8  10
BRANCH   1  26
ATOM     25  C   UNL     1      -5.788  16.143  23.779  0.00  0.00    +0.000 C 
ATOM     26  C   UNL     1      -5.791  15.060  22.636  0.00  0.00    +0.000 C 
ATOM     27  C   UNL     1      -6.900  14.049  23.149  0.00  0.00    +0.000 C 
ATOM     28  C   UNL     1      -7.539  12.892  22.359  0.00  0.00    +0.000 C 
ATOM     29  C   UNL     1      -6.865  12.279  21.140  0.00  0.00    +0.000 C 
ATOM     30  C   UNL     1      -7.293  12.857  19.792  0.00  0.00    +0.000 C 
ATOM     31  C   UNL     1      -6.762  14.253  19.512  0.00  0.00    +0.000 C 
ATOM     32  C   UNL     1      -7.371  15.301  20.416  0.00  0.00    +0.000 C 
ATOM     33  C   UNL     1      -6.392  15.898  21.428  0.00  0.00    +0.000 C 
ENDBRANCH   1  26
TORSDOF 4
ENDMDL
