MODEL 1
REMARK VINA RESULT:      -7.4      0.000      0.000
REMARK  Name = 
REMARK  16 active torsions:
REMARK  status: ('A' for Active; 'I' for Inactive)
REMARK    1  A    between atoms: C_1  and  C_2
REMARK    2  A    between atoms: C_2  and  C_3
REMARK    3  A    between atoms: C_3  and  C_4
REMARK    4  A    between atoms: C_6  and  C_7
REMARK    5  A    between atoms: C_7  and  C_8
REMARK    6  A    between atoms: C_14  and  N_15
REMARK    7  A    between atoms: C_18  and  O_19
REMARK    8  A    between atoms: O_19  and  C_20
REMARK    9  A    between atoms: C_20  and  C_21
REMARK   10  A    between atoms: C_21  and  C_22
REMARK   11  A    between atoms: C_22  and  C_23
REMARK   12  A    between atoms: C_23  and  C_24
REMARK   13  A    between atoms: C_24  and  C_25
REMARK   14  A    between atoms: C_25  and  O_27
REMARK   15  A    between atoms: O_27  and  C_28
REMARK   16  A    between atoms: C_28  and  C_29
REMARK                            x       y       z     vdW  Elec       q    Type
REMARK                         _______ _______ _______ _____ _____    ______ ____
ROOT
ATOM      1  C   UNL     1       5.827   5.170  16.150  0.00  0.00    +0.000 A 
ATOM      2  C   UNL     1       4.551   4.583  16.346  0.00  0.00    +0.000 A 
ATOM      3  C   UNL     1       3.610   5.115  17.242  0.00  0.00    +0.000 A 
ATOM      4  C   UNL     1       3.954   6.254  17.962  0.00  0.00    +0.000 A 
ATOM      5  C   UNL     1       5.196   6.846  17.784  0.00  0.00    +0.000 A 
ATOM      6  C   UNL     1       6.149   6.315  16.896  0.00  0.00    +0.000 A 
ENDROOT
BRANCH   1   7
ATOM      7  C   UNL     1       6.687   4.554  15.058  0.00  0.00    +0.000 C 
BRANCH   7   9
ATOM      8  C   UNL     1       6.828   3.998  12.575  0.00  0.00    +0.000 C 
ATOM      9  C   UNL     1       6.048   3.833  13.868  0.00  0.00    +0.000 C 
ENDBRANCH   7   9
ENDBRANCH   1   7
BRANCH   3  10
ATOM     10  C   UNL     1       2.234   4.506  17.395  0.00  0.00    +0.000 C 
BRANCH  10  11
ATOM     11  C   UNL     1       1.982   3.868  18.727  0.00  0.00    +0.000 A 
ATOM     12  C   UNL     1       1.612   4.631  19.817  0.00  0.00    +0.000 A 
ATOM     13  N   UNL     1       1.376   4.132  21.043  0.00  0.00    +0.000 NA
ATOM     14  C   UNL     1       1.533   2.815  21.179  0.00  0.00    +0.000 A 
ATOM     15  N   UNL     1       1.253   2.271  22.416  0.00  0.00    +0.000 N 
ATOM     16  N   UNL     1       1.877   1.980  20.196  0.00  0.00    +0.000 NA
ATOM     17  C   UNL     1       2.104   2.516  18.988  0.00  0.00    +0.000 A 
ATOM     18  H   UNL     1       0.639   2.895  22.920  0.00  0.00    +0.000 HD
ATOM     19  H   UNL     1       0.948   1.315  22.301  0.00  0.00    +0.000 HD
BRANCH  17  20
ATOM     20  N   UNL     1       2.521   1.608  18.012  0.00  0.00    +0.000 N 
ATOM     21  H   UNL     1       2.871   2.159  17.231  0.00  0.00    +0.000 HD
ATOM     22  H   UNL     1       3.234   0.985  18.366  0.00  0.00    +0.000 HD
ENDBRANCH  17  20
ENDBRANCH  10  11
ENDBRANCH   3  10
BRANCH   6  23
ATOM     23  O   UNL     1       7.382   6.900  16.720  0.00  0.00    +0.000 OA
BRANCH  23  24
ATOM     24  C   UNL     1       7.885   7.562  17.882  0.00  0.00    +0.000 C 
BRANCH  24  25
ATOM     25  C   UNL     1       8.048   9.056  17.645  0.00  0.00    +0.000 C 
BRANCH  25  26
ATOM     26  C   UNL     1       8.898   9.642  18.775  0.00  0.00    +0.000 C 
BRANCH  26  27
ATOM     27  C   UNL     1       9.696  10.846  18.304  0.00  0.00    +0.000 C 
BRANCH  27  28
ATOM     28  C   UNL     1       9.250  12.124  19.008  0.00  0.00    +0.000 C 
BRANCH  28  29
ATOM     29  C   UNL     1       9.317  13.286  18.052  0.00  0.00    +0.000 C 
ATOM     30  O   UNL     1      10.344  13.732  17.559  0.00  0.00    +0.000 OA
BRANCH  29  31
ATOM     31  O   UNL     1       8.073  13.817  17.895  0.00  0.00    +0.000 OA
BRANCH  31  32
ATOM     32  C   UNL     1       7.644  14.651  18.980  0.00  0.00    +0.000 C 
ATOM     33  C   UNL     1       7.159  15.962  18.391  0.00  0.00    +0.000 C 
ENDBRANCH  31  32
ENDBRANCH  29  31
ENDBRANCH  28  29
ENDBRANCH  27  28
ENDBRANCH  26  27
ENDBRANCH  25  26
ENDBRANCH  24  25
ENDBRANCH  23  24
ENDBRANCH   6  23
TORSDOF 14
ENDMDL
MODEL 2
REMARK VINA RESULT:      -7.3      1.554      1.870
REMARK  Name = 
REMARK  16 active torsions:
REMARK  status: ('A' for Active; 'I' for Inactive)
REMARK    1  A    between atoms: C_1  and  C_2
REMARK    2  A    between atoms: C_2  and  C_3
REMARK    3  A    between atoms: C_3  and  C_4
REMARK    4  A    between atoms: C_6  and  C_7
REMARK    5  A    between atoms: C_7  and  C_8
REMARK    6  A    between atoms: C_14  and  N_15
REMARK    7  A    between atoms: C_18  and  O_19
REMARK    8  A    between atoms: O_19  and  C_20
REMARK    9  A    between atoms: C_20  and  C_21
REMARK   10  A    between atoms: C_21  and  C_22
REMARK   11  A    between atoms: C_22  and  C_23
REMARK   12  A    between atoms: C_23  and  C_24
REMARK   13  A    between atoms: C_24  and  C_25
REMARK   14  A    between atoms: C_25  and  O_27
REMARK   15  A    between atoms: O_27  and  C_28
REMARK   16  A    between atoms: C_28  and  C_29
REMARK                            x       y       z     vdW  Elec       q    Type
REMARK                         _______ _______ _______ _____ _____    ______ ____
ROOT
ATOM      1  C   UNL     1       6.035   5.056  15.885  0.00  0.00    +0.000 A 
ATOM      2  C   UNL     1       4.936   4.182  16.082  0.00  0.00    +0.000 A 
ATOM      3  C   UNL     1       3.931   4.440  17.029  0.00  0.00    +0.000 A 
ATOM      4  C   UNL     1       4.032   5.593  17.800  0.00  0.00    +0.000 A 
ATOM      5  C   UNL     1       5.098   6.464  17.622  0.00  0.00    +0.000 A 
ATOM      6  C   UNL     1       6.114   6.209  16.683  0.00  0.00    +0.000 A 
ENDROOT
BRANCH   1   7
ATOM      7  C   UNL     1       6.973   4.707  14.741  0.00  0.00    +0.000 C 
BRANCH   7   9
ATOM      8  C   UNL     1       5.251   4.094  12.964  0.00  0.00    +0.000 C 
ATOM      9  C   UNL     1       6.550   3.714  13.655  0.00  0.00    +0.000 C 
ENDBRANCH   7   9
ENDBRANCH   1   7
BRANCH   3  10
ATOM     10  C   UNL     1       2.738   3.524  17.184  0.00  0.00    +0.000 C 
BRANCH  10  11
ATOM     11  C   UNL     1       2.362   3.229  18.604  0.00  0.00    +0.000 A 
ATOM     12  C   UNL     1       1.251   3.816  19.176  0.00  0.00    +0.000 A 
ATOM     13  N   UNL     1       0.854   3.606  20.443  0.00  0.00    +0.000 NA
ATOM     14  C   UNL     1       1.615   2.785  21.166  0.00  0.00    +0.000 A 
ATOM     15  N   UNL     1       1.205   2.518  22.456  0.00  0.00    +0.000 N 
ATOM     16  N   UNL     1       2.703   2.157  20.717  0.00  0.00    +0.000 NA
ATOM     17  C   UNL     1       3.066   2.391  19.448  0.00  0.00    +0.000 A 
ATOM     18  H   UNL     1       0.215   2.702  22.534  0.00  0.00    +0.000 HD
ATOM     19  H   UNL     1       1.528   1.599  22.728  0.00  0.00    +0.000 HD
BRANCH  17  20
ATOM     20  N   UNL     1       4.245   1.757  19.048  0.00  0.00    +0.000 N 
ATOM     21  H   UNL     1       3.991   1.113  18.302  0.00  0.00    +0.000 HD
ATOM     22  H   UNL     1       4.936   2.425  18.731  0.00  0.00    +0.000 HD
ENDBRANCH  17  20
ENDBRANCH  10  11
ENDBRANCH   3  10
BRANCH   6  23
ATOM     23  O   UNL     1       7.172   7.070  16.508  0.00  0.00    +0.000 OA
BRANCH  23  24
ATOM     24  C   UNL     1       7.783   7.500  17.727  0.00  0.00    +0.000 C 
BRANCH  24  25
ATOM     25  C   UNL     1       8.007   9.004  17.737  0.00  0.00    +0.000 C 
BRANCH  25  26
ATOM     26  C   UNL     1       8.955   9.351  18.888  0.00  0.00    +0.000 C 
BRANCH  26  27
ATOM     27  C   UNL     1       9.369  10.812  18.846  0.00  0.00    +0.000 C 
BRANCH  27  28
ATOM     28  C   UNL     1       9.568  11.378  20.249  0.00  0.00    +0.000 C 
BRANCH  28  29
ATOM     29  C   UNL     1       9.048  12.790  20.312  0.00  0.00    +0.000 C 
ATOM     30  O   UNL     1       9.083  13.594  19.390  0.00  0.00    +0.000 OA
BRANCH  29  31
ATOM     31  O   UNL     1       8.616  13.059  21.574  0.00  0.00    +0.000 OA
BRANCH  31  32
ATOM     32  C   UNL     1       8.513  11.907  22.423  0.00  0.00    +0.000 C 
ATOM     33  C   UNL     1       7.183  11.987  23.150  0.00  0.00    +0.000 C 
ENDBRANCH  31  32
ENDBRANCH  29  31
ENDBRANCH  28  29
ENDBRANCH  27  28
ENDBRANCH  26  27
ENDBRANCH  25  26
ENDBRANCH  24  25
ENDBRANCH  23  24
ENDBRANCH   6  23
TORSDOF 14
ENDMDL
MODEL 3
REMARK VINA RESULT:      -7.3      5.416      8.424
REMARK  Name = 
REMARK  16 active torsions:
REMARK  status: ('A' for Active; 'I' for Inactive)
REMARK    1  A    between atoms: C_1  and  C_2
REMARK    2  A    between atoms: C_2  and  C_3
REMARK    3  A    between atoms: C_3  and  C_4
REMARK    4  A    between atoms: C_6  and  C_7
REMARK    5  A    between atoms: C_7  and  C_8
REMARK    6  A    between atoms: C_14  and  N_15
REMARK    7  A    between atoms: C_18  and  O_19
REMARK    8  A    between atoms: O_19  and  C_20
REMARK    9  A    between atoms: C_20  and  C_21
REMARK   10  A    between atoms: C_21  and  C_22
REMARK   11  A    between atoms: C_22  and  C_23
REMARK   12  A    between atoms: C_23  and  C_24
REMARK   13  A    between atoms: C_24  and  C_25
REMARK   14  A    between atoms: C_25  and  O_27
REMARK   15  A    between atoms: O_27  and  C_28
REMARK   16  A    between atoms: C_28  and  C_29
REMARK                            x       y       z     vdW  Elec       q    Type
REMARK                         _______ _______ _______ _____ _____    ______ ____
ROOT
ATOM      1  C   UNL     1       2.447   5.347  19.794  0.00  0.00    +0.000 A 
ATOM      2  C   UNL     1       3.027   4.371  18.943  0.00  0.00    +0.000 A 
ATOM      3  C   UNL     1       3.654   4.707  17.733  0.00  0.00    +0.000 A 
ATOM      4  C   UNL     1       3.697   6.046  17.360  0.00  0.00    +0.000 A 
ATOM      5  C   UNL     1       3.138   7.018  18.179  0.00  0.00    +0.000 A 
ATOM      6  C   UNL     1       2.500   6.691  19.389  0.00  0.00    +0.000 A 
ENDROOT
BRANCH   1   7
ATOM      7  C   UNL     1       1.917   4.845  21.127  0.00  0.00    +0.000 C 
BRANCH   7   9
ATOM      8  C   UNL     1       1.331   2.455  21.792  0.00  0.00    +0.000 C 
ATOM      9  C   UNL     1       2.410   3.522  21.720  0.00  0.00    +0.000 C 
ENDBRANCH   7   9
ENDBRANCH   1   7
BRANCH   3  10
ATOM     10  C   UNL     1       4.315   3.657  16.868  0.00  0.00    +0.000 C 
BRANCH  10  11
ATOM     11  C   UNL     1       5.409   4.176  15.986  0.00  0.00    +0.000 A 
ATOM     12  C   UNL     1       5.186   4.403  14.643  0.00  0.00    +0.000 A 
ATOM     13  N   UNL     1       6.118   4.861  13.789  0.00  0.00    +0.000 NA
ATOM     14  C   UNL     1       7.326   5.085  14.306  0.00  0.00    +0.000 A 
ATOM     15  N   UNL     1       8.288   5.598  13.462  0.00  0.00    +0.000 N 
ATOM     16  N   UNL     1       7.653   4.910  15.588  0.00  0.00    +0.000 NA
ATOM     17  C   UNL     1       6.696   4.453  16.409  0.00  0.00    +0.000 A 
ATOM     18  H   UNL     1       7.836   6.052  12.681  0.00  0.00    +0.000 HD
ATOM     19  H   UNL     1       8.948   6.146  13.997  0.00  0.00    +0.000 HD
BRANCH  17  20
ATOM     20  N   UNL     1       7.108   4.230  17.725  0.00  0.00    +0.000 N 
ATOM     21  H   UNL     1       6.444   4.716  18.324  0.00  0.00    +0.000 HD
ATOM     22  H   UNL     1       7.138   3.242  17.941  0.00  0.00    +0.000 HD
ENDBRANCH  17  20
ENDBRANCH  10  11
ENDBRANCH   3  10
BRANCH   6  23
ATOM     23  O   UNL     1       1.943   7.653  20.199  0.00  0.00    +0.000 OA
BRANCH  23  24
ATOM     24  C   UNL     1       1.365   8.750  19.490  0.00  0.00    +0.000 C 
BRANCH  24  25
ATOM     25  C   UNL     1       0.897   9.843  20.438  0.00  0.00    +0.000 C 
BRANCH  25  26
ATOM     26  C   UNL     1       0.189  10.929  19.626  0.00  0.00    +0.000 C 
BRANCH  26  27
ATOM     27  C   UNL     1      -0.398  10.369  18.341  0.00  0.00    +0.000 C 
BRANCH  27  28
ATOM     28  C   UNL     1      -1.802  10.910  18.086  0.00  0.00    +0.000 C 
BRANCH  28  29
ATOM     29  C   UNL     1      -2.668   9.829  17.493  0.00  0.00    +0.000 C 
ATOM     30  O   UNL     1      -3.560   9.239  18.086  0.00  0.00    +0.000 OA
BRANCH  29  31
ATOM     31  O   UNL     1      -2.244   9.549  16.230  0.00  0.00    +0.000 OA
BRANCH  31  32
ATOM     32  C   UNL     1      -2.614  10.531  15.251  0.00  0.00    +0.000 C 
ATOM     33  C   UNL     1      -3.972  10.141  14.697  0.00  0.00    +0.000 C 
ENDBRANCH  31  32
ENDBRANCH  29  31
ENDBRANCH  28  29
ENDBRANCH  27  28
ENDBRANCH  26  27
ENDBRANCH  25  26
ENDBRANCH  24  25
ENDBRANCH  23  24
ENDBRANCH   6  23
TORSDOF 14
ENDMDL
MODEL 4
REMARK VINA RESULT:      -7.2      1.910      3.054
REMARK  Name = 
REMARK  16 active torsions:
REMARK  status: ('A' for Active; 'I' for Inactive)
REMARK    1  A    between atoms: C_1  and  C_2
REMARK    2  A    between atoms: C_2  and  C_3
REMARK    3  A    between atoms: C_3  and  C_4
REMARK    4  A    between atoms: C_6  and  C_7
REMARK    5  A    between atoms: C_7  and  C_8
REMARK    6  A    between atoms: C_14  and  N_15
REMARK    7  A    between atoms: C_18  and  O_19
REMARK    8  A    between atoms: O_19  and  C_20
REMARK    9  A    between atoms: C_20  and  C_21
REMARK   10  A    between atoms: C_21  and  C_22
REMARK   11  A    between atoms: C_22  and  C_23
REMARK   12  A    between atoms: C_23  and  C_24
REMARK   13  A    between atoms: C_24  and  C_25
REMARK   14  A    between atoms: C_25  and  O_27
REMARK   15  A    between atoms: O_27  and  C_28
REMARK   16  A    between atoms: C_28  and  C_29
REMARK                            x       y       z     vdW  Elec       q    Type
REMARK                         _______ _______ _______ _____ _____    ______ ____
ROOT
ATOM      1  C   UNL     1       4.447   6.534  17.262  0.00  0.00    +0.000 A 
ATOM      2  C   UNL     1       3.725   5.325  17.428  0.00  0.00    +0.000 A 
ATOM      3  C   UNL     1       4.318   4.065  17.252  0.00  0.00    +0.000 A 
ATOM      4  C   UNL     1       5.661   4.011  16.896  0.00  0.00    +0.000 A 
ATOM      5  C   UNL     1       6.389   5.182  16.731  0.00  0.00    +0.000 A 
ATOM      6  C   UNL     1       5.800   6.449  16.895  0.00  0.00    +0.000 A 
ENDROOT
BRANCH   1   7
ATOM      7  C   UNL     1       3.702   7.813  17.607  0.00  0.00    +0.000 C 
BRANCH   7   9
ATOM      8  C   UNL     1       2.155   7.618  19.623  0.00  0.00    +0.000 C 
ATOM      9  C   UNL     1       2.259   7.768  18.114  0.00  0.00    +0.000 C 
ENDBRANCH   7   9
ENDBRANCH   1   7
BRANCH   3  10
ATOM     10  C   UNL     1       3.544   2.787  17.488  0.00  0.00    +0.000 C 
BRANCH  10  11
ATOM     11  C   UNL     1       2.903   2.689  18.839  0.00  0.00    +0.000 A 
ATOM     12  C   UNL     1       1.547   2.898  18.994  0.00  0.00    +0.000 A 
ATOM     13  N   UNL     1       0.903   2.834  20.172  0.00  0.00    +0.000 NA
ATOM     14  C   UNL     1       1.657   2.563  21.237  0.00  0.00    +0.000 A 
ATOM     15  N   UNL     1       1.014   2.447  22.452  0.00  0.00    +0.000 N 
ATOM     16  N   UNL     1       2.972   2.335  21.206  0.00  0.00    +0.000 NA
ATOM     17  C   UNL     1       3.578   2.407  20.012  0.00  0.00    +0.000 A 
ATOM     18  H   UNL     1       0.040   2.236  22.292  0.00  0.00    +0.000 HD
ATOM     19  H   UNL     1       1.532   1.816  23.048  0.00  0.00    +0.000 HD
BRANCH  17  20
ATOM     20  N   UNL     1       4.962   2.221  20.044  0.00  0.00    +0.000 N 
ATOM     21  H   UNL     1       5.312   2.475  19.122  0.00  0.00    +0.000 HD
ATOM     22  H   UNL     1       5.395   2.782  20.765  0.00  0.00    +0.000 HD
ENDBRANCH  17  20
ENDBRANCH  10  11
ENDBRANCH   3  10
BRANCH   6  23
ATOM     23  O   UNL     1       6.520   7.610  16.729  0.00  0.00    +0.000 OA
BRANCH  23  24
ATOM     24  C   UNL     1       7.463   7.867  17.771  0.00  0.00    +0.000 C 
BRANCH  24  25
ATOM     25  C   UNL     1       8.401   9.006  17.406  0.00  0.00    +0.000 C 
BRANCH  25  26
ATOM     26  C   UNL     1       8.806   9.740  18.686  0.00  0.00    +0.000 C 
BRANCH  26  27
ATOM     27  C   UNL     1       9.072  11.212  18.424  0.00  0.00    +0.000 C 
BRANCH  27  28
ATOM     28  C   UNL     1      10.482  11.439  17.887  0.00  0.00    +0.000 C 
BRANCH  28  29
ATOM     29  C   UNL     1      10.918  12.853  18.171  0.00  0.00    +0.000 C 
ATOM     30  O   UNL     1      10.895  13.771  17.363  0.00  0.00    +0.000 OA
BRANCH  29  31
ATOM     31  O   UNL     1      11.423  12.927  19.433  0.00  0.00    +0.000 OA
BRANCH  31  32
ATOM     32  C   UNL     1      10.975  14.065  20.183  0.00  0.00    +0.000 C 
ATOM     33  C   UNL     1      10.112  13.555  21.323  0.00  0.00    +0.000 C 
ENDBRANCH  31  32
ENDBRANCH  29  31
ENDBRANCH  28  29
ENDBRANCH  27  28
ENDBRANCH  26  27
ENDBRANCH  25  26
ENDBRANCH  24  25
ENDBRANCH  23  24
ENDBRANCH   6  23
TORSDOF 14
ENDMDL
MODEL 5
REMARK VINA RESULT:      -7.2      1.509      2.797
REMARK  Name = 
REMARK  16 active torsions:
REMARK  status: ('A' for Active; 'I' for Inactive)
REMARK    1  A    between atoms: C_1  and  C_2
REMARK    2  A    between atoms: C_2  and  C_3
REMARK    3  A    between atoms: C_3  and  C_4
REMARK    4  A    between atoms: C_6  and  C_7
REMARK    5  A    between atoms: C_7  and  C_8
REMARK    6  A    between atoms: C_14  and  N_15
REMARK    7  A    between atoms: C_18  and  O_19
REMARK    8  A    between atoms: O_19  and  C_20
REMARK    9  A    between atoms: C_20  and  C_21
REMARK   10  A    between atoms: C_21  and  C_22
REMARK   11  A    between atoms: C_22  and  C_23
REMARK   12  A    between atoms: C_23  and  C_24
REMARK   13  A    between atoms: C_24  and  C_25
REMARK   14  A    between atoms: C_25  and  O_27
REMARK   15  A    between atoms: O_27  and  C_28
REMARK   16  A    between atoms: C_28  and  C_29
REMARK                            x       y       z     vdW  Elec       q    Type
REMARK                         _______ _______ _______ _____ _____    ______ ____
ROOT
ATOM      1  C   UNL     1       4.489   6.639  17.273  0.00  0.00    +0.000 A 
ATOM      2  C   UNL     1       3.790   5.415  17.427  0.00  0.00    +0.000 A 
ATOM      3  C   UNL     1       4.386   4.171  17.163  0.00  0.00    +0.000 A 
ATOM      4  C   UNL     1       5.707   4.151  16.729  0.00  0.00    +0.000 A 
ATOM      5  C   UNL     1       6.411   5.337  16.575  0.00  0.00    +0.000 A 
ATOM      6  C   UNL     1       5.819   6.588  16.827  0.00  0.00    +0.000 A 
ENDROOT
BRANCH   1   7
ATOM      7  C   UNL     1       3.751   7.892  17.716  0.00  0.00    +0.000 C 
BRANCH   7   9
ATOM      8  C   UNL     1       1.638   9.161  18.365  0.00  0.00    +0.000 C 
ATOM      9  C   UNL     1       2.228   7.991  17.596  0.00  0.00    +0.000 C 
ENDBRANCH   7   9
ENDBRANCH   1   7
BRANCH   3  10
ATOM     10  C   UNL     1       3.640   2.875  17.387  0.00  0.00    +0.000 C 
BRANCH  10  11
ATOM     11  C   UNL     1       2.975   2.763  18.725  0.00  0.00    +0.000 A 
ATOM     12  C   UNL     1       1.608   2.914  18.849  0.00  0.00    +0.000 A 
ATOM     13  N   UNL     1       0.942   2.834  20.014  0.00  0.00    +0.000 NA
ATOM     14  C   UNL     1       1.684   2.607  21.097  0.00  0.00    +0.000 A 
ATOM     15  N   UNL     1       1.021   2.476  22.300  0.00  0.00    +0.000 N 
ATOM     16  N   UNL     1       3.008   2.436  21.096  0.00  0.00    +0.000 NA
ATOM     17  C   UNL     1       3.636   2.523  19.915  0.00  0.00    +0.000 A 
ATOM     18  H   UNL     1       0.060   2.221  22.122  0.00  0.00    +0.000 HD
ATOM     19  H   UNL     1       1.553   1.874  22.913  0.00  0.00    +0.000 HD
BRANCH  17  20
ATOM     20  N   UNL     1       5.026   2.397  19.978  0.00  0.00    +0.000 N 
ATOM     21  H   UNL     1       5.413   3.295  19.693  0.00  0.00    +0.000 HD
ATOM     22  H   UNL     1       5.333   2.147  20.908  0.00  0.00    +0.000 HD
ENDBRANCH  17  20
ENDBRANCH  10  11
ENDBRANCH   3  10
BRANCH   6  23
ATOM     23  O   UNL     1       6.516   7.764  16.671  0.00  0.00    +0.000 OA
BRANCH  23  24
ATOM     24  C   UNL     1       7.611   7.919  17.576  0.00  0.00    +0.000 C 
BRANCH  24  25
ATOM     25  C   UNL     1       8.192   9.323  17.513  0.00  0.00    +0.000 C 
BRANCH  25  26
ATOM     26  C   UNL     1       8.801   9.664  18.875  0.00  0.00    +0.000 C 
BRANCH  26  27
ATOM     27  C   UNL     1       9.987  10.603  18.735  0.00  0.00    +0.000 C 
BRANCH  27  28
ATOM     28  C   UNL     1       9.678  11.983  19.309  0.00  0.00    +0.000 C 
BRANCH  28  29
ATOM     29  C   UNL     1      10.392  13.042  18.510  0.00  0.00    +0.000 C 
ATOM     30  O   UNL     1      11.604  13.115  18.364  0.00  0.00    +0.000 OA
BRANCH  29  31
ATOM     31  O   UNL     1       9.488  13.952  18.053  0.00  0.00    +0.000 OA
BRANCH  31  32
ATOM     32  C   UNL     1       8.211  13.898  18.706  0.00  0.00    +0.000 C 
ATOM     33  C   UNL     1       7.145  14.148  17.655  0.00  0.00    +0.000 C 
ENDBRANCH  31  32
ENDBRANCH  29  31
ENDBRANCH  28  29
ENDBRANCH  27  28
ENDBRANCH  26  27
ENDBRANCH  25  26
ENDBRANCH  24  25
ENDBRANCH  23  24
ENDBRANCH   6  23
TORSDOF 14
ENDMDL
MODEL 6
REMARK VINA RESULT:      -7.1      4.959      8.047
REMARK  Name = 
REMARK  16 active torsions:
REMARK  status: ('A' for Active; 'I' for Inactive)
REMARK    1  A    between atoms: C_1  and  C_2
REMARK    2  A    between atoms: C_2  and  C_3
REMARK    3  A    between atoms: C_3  and  C_4
REMARK    4  A    between atoms: C_6  and  C_7
REMARK    5  A    between atoms: C_7  and  C_8
REMARK    6  A    between atoms: C_14  and  N_15
REMARK    7  A    between atoms: C_18  and  O_19
REMARK    8  A    between atoms: O_19  and  C_20
REMARK    9  A    between atoms: C_20  and  C_21
REMARK   10  A    between atoms: C_21  and  C_22
REMARK   11  A    between atoms: C_22  and  C_23
REMARK   12  A    between atoms: C_23  and  C_24
REMARK   13  A    between atoms: C_24  and  C_25
REMARK   14  A    between atoms: C_25  and  O_27
REMARK   15  A    between atoms: O_27  and  C_28
REMARK   16  A    between atoms: C_28  and  C_29
REMARK                            x       y       z     vdW  Elec       q    Type
REMARK                         _______ _______ _______ _____ _____    ______ ____
ROOT
ATOM      1  C   UNL     1       3.656   5.212  18.237  0.00  0.00    +0.000 A 
ATOM      2  C   UNL     1       2.650   6.211  18.217  0.00  0.00    +0.000 A 
ATOM      3  C   UNL     1       2.914   7.535  17.831  0.00  0.00    +0.000 A 
ATOM      4  C   UNL     1       4.214   7.869  17.464  0.00  0.00    +0.000 A 
ATOM      5  C   UNL     1       5.213   6.907  17.473  0.00  0.00    +0.000 A 
ATOM      6  C   UNL     1       4.960   5.580  17.867  0.00  0.00    +0.000 A 
ENDROOT
BRANCH   1   7
ATOM      7  C   UNL     1       3.192   3.800  18.556  0.00  0.00    +0.000 C 
BRANCH   7   9
ATOM      8  C   UNL     1       0.950   2.635  18.882  0.00  0.00    +0.000 C 
ATOM      9  C   UNL     1       1.944   3.214  17.890  0.00  0.00    +0.000 C 
ENDBRANCH   7   9
ENDBRANCH   1   7
BRANCH   3  10
ATOM     10  C   UNL     1       1.816   8.572  17.764  0.00  0.00    +0.000 C 
BRANCH  10  11
ATOM     11  C   UNL     1       1.277   8.994  19.096  0.00  0.00    +0.000 A 
ATOM     12  C   UNL     1       1.633   8.320  20.247  0.00  0.00    +0.000 A 
ATOM     13  N   UNL     1       1.186   8.635  21.476  0.00  0.00    +0.000 NA
ATOM     14  C   UNL     1       0.337   9.660  21.545  0.00  0.00    +0.000 A 
ATOM     15  N   UNL     1      -0.101  10.033  22.799  0.00  0.00    +0.000 N 
ATOM     16  N   UNL     1      -0.069  10.388  20.503  0.00  0.00    +0.000 NA
ATOM     17  C   UNL     1       0.399  10.043  19.294  0.00  0.00    +0.000 A 
ATOM     18  H   UNL     1       0.557   9.703  23.490  0.00  0.00    +0.000 HD
ATOM     19  H   UNL     1      -0.318  11.020  22.799  0.00  0.00    +0.000 HD
BRANCH  17  20
ATOM     20  N   UNL     1      -0.105  10.798  18.232  0.00  0.00    +0.000 N 
ATOM     21  H   UNL     1       0.371  10.474  17.393  0.00  0.00    +0.000 HD
ATOM     22  H   UNL     1      -1.107  10.693  18.146  0.00  0.00    +0.000 HD
ENDBRANCH  17  20
ENDBRANCH  10  11
ENDBRANCH   3  10
BRANCH   6  23
ATOM     23  O   UNL     1       5.951   4.626  17.880  0.00  0.00    +0.000 OA
BRANCH  23  24
ATOM     24  C   UNL     1       6.555   4.394  16.606  0.00  0.00    +0.000 C 
BRANCH  24  25
ATOM     25  C   UNL     1       5.659   3.552  15.710  0.00  0.00    +0.000 C 
BRANCH  25  26
ATOM     26  C   UNL     1       5.579   4.216  14.333  0.00  0.00    +0.000 C 
BRANCH  26  27
ATOM     27  C   UNL     1       6.850   3.991  13.532  0.00  0.00    +0.000 C 
BRANCH  27  28
ATOM     28  C   UNL     1       6.568   3.962  12.032  0.00  0.00    +0.000 C 
BRANCH  28  29
ATOM     29  C   UNL     1       5.489   2.954  11.733  0.00  0.00    +0.000 C 
ATOM     30  O   UNL     1       5.676   1.760  11.541  0.00  0.00    +0.000 OA
BRANCH  29  31
ATOM     31  O   UNL     1       4.292   3.591  11.620  0.00  0.00    +0.000 OA
BRANCH  31  32
ATOM     32  C   UNL     1       3.419   3.039  10.623  0.00  0.00    +0.000 C 
ATOM     33  C   UNL     1       2.977   4.174   9.718  0.00  0.00    +0.000 C 
ENDBRANCH  31  32
ENDBRANCH  29  31
ENDBRANCH  28  29
ENDBRANCH  27  28
ENDBRANCH  26  27
ENDBRANCH  25  26
ENDBRANCH  24  25
ENDBRANCH  23  24
ENDBRANCH   6  23
TORSDOF 14
ENDMDL
MODEL 7
REMARK VINA RESULT:      -7.1      6.418      9.784
REMARK  Name = 
REMARK  16 active torsions:
REMARK  status: ('A' for Active; 'I' for Inactive)
REMARK    1  A    between atoms: C_1  and  C_2
REMARK    2  A    between atoms: C_2  and  C_3
REMARK    3  A    between atoms: C_3  and  C_4
REMARK    4  A    between atoms: C_6  and  C_7
REMARK    5  A    between atoms: C_7  and  C_8
REMARK    6  A    between atoms: C_14  and  N_15
REMARK    7  A    between atoms: C_18  and  O_19
REMARK    8  A    between atoms: O_19  and  C_20
REMARK    9  A    between atoms: C_20  and  C_21
REMARK   10  A    between atoms: C_21  and  C_22
REMARK   11  A    between atoms: C_22  and  C_23
REMARK   12  A    between atoms: C_23  and  C_24
REMARK   13  A    between atoms: C_24  and  C_25
REMARK   14  A    between atoms: C_25  and  O_27
REMARK   15  A    between atoms: O_27  and  C_28
REMARK   16  A    between atoms: C_28  and  C_29
REMARK                            x       y       z     vdW  Elec       q    Type
REMARK                         _______ _______ _______ _____ _____    ______ ____
ROOT
ATOM      1  C   UNL     1       1.085   9.023  18.675  0.00  0.00    +0.000 A 
ATOM      2  C   UNL     1       0.298  10.095  18.184  0.00  0.00    +0.000 A 
ATOM      3  C   UNL     1      -0.348  11.005  19.036  0.00  0.00    +0.000 A 
ATOM      4  C   UNL     1      -0.211  10.835  20.409  0.00  0.00    +0.000 A 
ATOM      5  C   UNL     1       0.558   9.794  20.912  0.00  0.00    +0.000 A 
ATOM      6  C   UNL     1       1.201   8.872  20.067  0.00  0.00    +0.000 A 
ENDROOT
BRANCH   1   7
ATOM      7  C   UNL     1       1.822   8.198  17.632  0.00  0.00    +0.000 C 
BRANCH   7   9
ATOM      8  C   UNL     1       3.820   6.621  17.751  0.00  0.00    +0.000 C 
ATOM      9  C   UNL     1       3.346   8.062  17.672  0.00  0.00    +0.000 C 
ENDBRANCH   7   9
ENDBRANCH   1   7
BRANCH   3  10
ATOM     10  C   UNL     1      -1.137  12.174  18.490  0.00  0.00    +0.000 C 
BRANCH  10  11
ATOM     11  C   UNL     1      -2.591  11.890  18.263  0.00  0.00    +0.000 A 
ATOM     12  C   UNL     1      -3.513  12.073  19.274  0.00  0.00    +0.000 A 
ATOM     13  N   UNL     1      -4.830  11.835  19.147  0.00  0.00    +0.000 NA
ATOM     14  C   UNL     1      -5.231  11.380  17.961  0.00  0.00    +0.000 A 
ATOM     15  N   UNL     1      -6.583  11.169  17.790  0.00  0.00    +0.000 N 
ATOM     16  N   UNL     1      -4.432  11.173  16.911  0.00  0.00    +0.000 NA
ATOM     17  C   UNL     1      -3.126  11.423  17.076  0.00  0.00    +0.000 A 
ATOM     18  H   UNL     1      -7.092  11.723  18.465  0.00  0.00    +0.000 HD
ATOM     19  H   UNL     1      -6.822  11.292  16.816  0.00  0.00    +0.000 HD
BRANCH  17  20
ATOM     20  N   UNL     1      -2.327  11.133  15.968  0.00  0.00    +0.000 N 
ATOM     21  H   UNL     1      -2.616  10.216  15.632  0.00  0.00    +0.000 HD
ATOM     22  H   UNL     1      -2.428  11.833  15.245  0.00  0.00    +0.000 HD
ENDBRANCH  17  20
ENDBRANCH  10  11
ENDBRANCH   3  10
BRANCH   6  23
ATOM     23  O   UNL     1       1.960   7.838  20.565  0.00  0.00    +0.000 OA
BRANCH  23  24
ATOM     24  C   UNL     1       1.198   6.711  20.999  0.00  0.00    +0.000 C 
BRANCH  24  25
ATOM     25  C   UNL     1       1.942   5.407  20.752  0.00  0.00    +0.000 C 
BRANCH  25  26
ATOM     26  C   UNL     1       0.940   4.353  20.273  0.00  0.00    +0.000 C 
BRANCH  26  27
ATOM     27  C   UNL     1       1.309   2.967  20.772  0.00  0.00    +0.000 C 
BRANCH  27  28
ATOM     28  C   UNL     1       2.744   2.922  21.289  0.00  0.00    +0.000 C 
BRANCH  28  29
ATOM     29  C   UNL     1       3.637   2.271  20.265  0.00  0.00    +0.000 C 
ATOM     30  O   UNL     1       4.845   2.114  20.384  0.00  0.00    +0.000 OA
BRANCH  29  31
ATOM     31  O   UNL     1       2.910   1.968  19.155  0.00  0.00    +0.000 OA
BRANCH  31  32
ATOM     32  C   UNL     1       3.549   2.310  17.917  0.00  0.00    +0.000 C 
ATOM     33  C   UNL     1       2.602   3.208  17.142  0.00  0.00    +0.000 C 
ENDBRANCH  31  32
ENDBRANCH  29  31
ENDBRANCH  28  29
ENDBRANCH  27  28
ENDBRANCH  26  27
ENDBRANCH  25  26
ENDBRANCH  24  25
ENDBRANCH  23  24
ENDBRANCH   6  23
TORSDOF 14
ENDMDL
MODEL 8
REMARK VINA RESULT:      -7.1      1.237      1.356
REMARK  Name = 
REMARK  16 active torsions:
REMARK  status: ('A' for Active; 'I' for Inactive)
REMARK    1  A    between atoms: C_1  and  C_2
REMARK    2  A    between atoms: C_2  and  C_3
REMARK    3  A    between atoms: C_3  and  C_4
REMARK    4  A    between atoms: C_6  and  C_7
REMARK    5  A    between atoms: C_7  and  C_8
REMARK    6  A    between atoms: C_14  and  N_15
REMARK    7  A    between atoms: C_18  and  O_19
REMARK    8  A    between atoms: O_19  and  C_20
REMARK    9  A    between atoms: C_20  and  C_21
REMARK   10  A    between atoms: C_21  and  C_22
REMARK   11  A    between atoms: C_22  and  C_23
REMARK   12  A    between atoms: C_23  and  C_24
REMARK   13  A    between atoms: C_24  and  C_25
REMARK   14  A    between atoms: C_25  and  O_27
REMARK   15  A    between atoms: O_27  and  C_28
REMARK   16  A    between atoms: C_28  and  C_29
REMARK                            x       y       z     vdW  Elec       q    Type
REMARK                         _______ _______ _______ _____ _____    ______ ____
ROOT
ATOM      1  C   UNL     1       5.898   5.199  16.599  0.00  0.00    +0.000 A 
ATOM      2  C   UNL     1       4.602   4.658  16.800  0.00  0.00    +0.000 A 
ATOM      3  C   UNL     1       3.573   5.384  17.419  0.00  0.00    +0.000 A 
ATOM      4  C   UNL     1       3.845   6.676  17.854  0.00  0.00    +0.000 A 
ATOM      5  C   UNL     1       5.105   7.227  17.665  0.00  0.00    +0.000 A 
ATOM      6  C   UNL     1       6.146   6.504  17.054  0.00  0.00    +0.000 A 
ENDROOT
BRANCH   1   7
ATOM      7  C   UNL     1       6.867   4.339  15.804  0.00  0.00    +0.000 C 
BRANCH   7   9
ATOM      8  C   UNL     1       5.753   3.773  13.584  0.00  0.00    +0.000 C 
ATOM      9  C   UNL     1       6.931   4.434  14.278  0.00  0.00    +0.000 C 
ENDBRANCH   7   9
ENDBRANCH   1   7
BRANCH   3  10
ATOM     10  C   UNL     1       2.183   4.808  17.574  0.00  0.00    +0.000 C 
BRANCH  10  11
ATOM     11  C   UNL     1       1.959   4.061  18.853  0.00  0.00    +0.000 A 
ATOM     12  C   UNL     1       1.739   4.737  20.037  0.00  0.00    +0.000 A 
ATOM     13  N   UNL     1       1.536   4.137  21.223  0.00  0.00    +0.000 NA
ATOM     14  C   UNL     1       1.572   2.805  21.219  0.00  0.00    +0.000 A 
ATOM     15  N   UNL     1       1.323   2.164  22.415  0.00  0.00    +0.000 N 
ATOM     16  N   UNL     1       1.768   2.049  20.137  0.00  0.00    +0.000 NA
ATOM     17  C   UNL     1       1.965   2.683  18.972  0.00  0.00    +0.000 A 
ATOM     18  H   UNL     1       0.808   2.785  23.022  0.00  0.00    +0.000 HD
ATOM     19  H   UNL     1       0.919   1.256  22.231  0.00  0.00    +0.000 HD
BRANCH  17  20
ATOM     20  N   UNL     1       2.225   1.847  17.884  0.00  0.00    +0.000 N 
ATOM     21  H   UNL     1       2.868   1.131  18.214  0.00  0.00    +0.000 HD
ATOM     22  H   UNL     1       1.376   1.435  17.523  0.00  0.00    +0.000 HD
ENDBRANCH  17  20
ENDBRANCH  10  11
ENDBRANCH   3  10
BRANCH   6  23
ATOM     23  O   UNL     1       7.396   7.048  16.869  0.00  0.00    +0.000 OA
BRANCH  23  24
ATOM     24  C   UNL     1       7.803   7.941  17.908  0.00  0.00    +0.000 C 
BRANCH  24  25
ATOM     25  C   UNL     1       8.347   9.244  17.342  0.00  0.00    +0.000 C 
BRANCH  25  26
ATOM     26  C   UNL     1       8.311  10.309  18.440  0.00  0.00    +0.000 C 
BRANCH  26  27
ATOM     27  C   UNL     1       9.383  10.065  19.487  0.00  0.00    +0.000 C 
BRANCH  27  28
ATOM     28  C   UNL     1      10.041  11.369  19.929  0.00  0.00    +0.000 C 
BRANCH  28  29
ATOM     29  C   UNL     1      10.795  11.979  18.777  0.00  0.00    +0.000 C 
ATOM     30  O   UNL     1      11.803  11.509  18.269  0.00  0.00    +0.000 OA
BRANCH  29  31
ATOM     31  O   UNL     1      10.234  13.176  18.451  0.00  0.00    +0.000 OA
BRANCH  31  32
ATOM     32  C   UNL     1      10.513  14.233  19.380  0.00  0.00    +0.000 C 
ATOM     33  C   UNL     1      11.142  15.375  18.603  0.00  0.00    +0.000 C 
ENDBRANCH  31  32
ENDBRANCH  29  31
ENDBRANCH  28  29
ENDBRANCH  27  28
ENDBRANCH  26  27
ENDBRANCH  25  26
ENDBRANCH  24  25
ENDBRANCH  23  24
ENDBRANCH   6  23
TORSDOF 14
ENDMDL
MODEL 9
REMARK VINA RESULT:      -7.0      4.972      8.727
REMARK  Name = 
REMARK  16 active torsions:
REMARK  status: ('A' for Active; 'I' for Inactive)
REMARK    1  A    between atoms: C_1  and  C_2
REMARK    2  A    between atoms: C_2  and  C_3
REMARK    3  A    between atoms: C_3  and  C_4
REMARK    4  A    between atoms: C_6  and  C_7
REMARK    5  A    between atoms: C_7  and  C_8
REMARK    6  A    between atoms: C_14  and  N_15
REMARK    7  A    between atoms: C_18  and  O_19
REMARK    8  A    between atoms: O_19  and  C_20
REMARK    9  A    between atoms: C_20  and  C_21
REMARK   10  A    between atoms: C_21  and  C_22
REMARK   11  A    between atoms: C_22  and  C_23
REMARK   12  A    between atoms: C_23  and  C_24
REMARK   13  A    between atoms: C_24  and  C_25
REMARK   14  A    between atoms: C_25  and  O_27
REMARK   15  A    between atoms: O_27  and  C_28
REMARK   16  A    between atoms: C_28  and  C_29
REMARK                            x       y       z     vdW  Elec       q    Type
REMARK                         _______ _______ _______ _____ _____    ______ ____
ROOT
ATOM      1  C   UNL     1       4.359   6.801  17.798  0.00  0.00    +0.000 A 
ATOM      2  C   UNL     1       3.396   7.766  17.408  0.00  0.00    +0.000 A 
ATOM      3  C   UNL     1       2.261   8.051  18.184  0.00  0.00    +0.000 A 
ATOM      4  C   UNL     1       2.081   7.351  19.372  0.00  0.00    +0.000 A 
ATOM      5  C   UNL     1       3.013   6.405  19.775  0.00  0.00    +0.000 A 
ATOM      6  C   UNL     1       4.148   6.106  19.000  0.00  0.00    +0.000 A 
ENDROOT
BRANCH   1   7
ATOM      7  C   UNL     1       5.595   6.694  16.919  0.00  0.00    +0.000 C 
BRANCH   7   9
ATOM      8  C   UNL     1       7.766   6.674  18.253  0.00  0.00    +0.000 C 
ATOM      9  C   UNL     1       6.883   7.437  17.281  0.00  0.00    +0.000 C 
ENDBRANCH   7   9
ENDBRANCH   1   7
BRANCH   3  10
ATOM     10  C   UNL     1       1.275   9.123  17.777  0.00  0.00    +0.000 C 
BRANCH  10  11
ATOM     11  C   UNL     1       1.451  10.431  18.486  0.00  0.00    +0.000 A 
ATOM     12  C   UNL     1       2.348  11.372  18.020  0.00  0.00    +0.000 A 
ATOM     13  N   UNL     1       2.565  12.563  18.605  0.00  0.00    +0.000 NA
ATOM     14  C   UNL     1       1.861  12.809  19.709  0.00  0.00    +0.000 A 
ATOM     15  N   UNL     1       2.032  14.042  20.304  0.00  0.00    +0.000 N 
ATOM     16  N   UNL     1       0.962  11.980  20.245  0.00  0.00    +0.000 NA
ATOM     17  C   UNL     1       0.774  10.802  19.632  0.00  0.00    +0.000 A 
ATOM     18  H   UNL     1       2.391  14.692  19.620  0.00  0.00    +0.000 HD
ATOM     19  H   UNL     1       1.184  14.302  20.789  0.00  0.00    +0.000 HD
BRANCH  17  20
ATOM     20  N   UNL     1      -0.132   9.949  20.267  0.00  0.00    +0.000 N 
ATOM     21  H   UNL     1      -1.050  10.379  20.178  0.00  0.00    +0.000 HD
ATOM     22  H   UNL     1      -0.122   9.025  19.854  0.00  0.00    +0.000 HD
ENDBRANCH  17  20
ENDBRANCH  10  11
ENDBRANCH   3  10
BRANCH   6  23
ATOM     23  O   UNL     1       5.070   5.165  19.397  0.00  0.00    +0.000 OA
BRANCH  23  24
ATOM     24  C   UNL     1       5.047   3.963  18.626  0.00  0.00    +0.000 C 
BRANCH  24  25
ATOM     25  C   UNL     1       4.471   2.802  19.421  0.00  0.00    +0.000 C 
BRANCH  25  26
ATOM     26  C   UNL     1       3.429   2.085  18.559  0.00  0.00    +0.000 C 
BRANCH  26  27
ATOM     27  C   UNL     1       2.875   3.000  17.480  0.00  0.00    +0.000 C 
BRANCH  27  28
ATOM     28  C   UNL     1       1.715   3.843  18.003  0.00  0.00    +0.000 C 
BRANCH  28  29
ATOM     29  C   UNL     1       0.771   2.979  18.798  0.00  0.00    +0.000 C 
ATOM     30  O   UNL     1       0.336   1.895  18.436  0.00  0.00    +0.000 OA
BRANCH  29  31
ATOM     31  O   UNL     1       0.408   3.632  19.936  0.00  0.00    +0.000 OA
BRANCH  31  32
ATOM     32  C   UNL     1       1.464   3.780  20.896  0.00  0.00    +0.000 C 
ATOM     33  C   UNL     1       1.491   2.526  21.749  0.00  0.00    +0.000 C 
ENDBRANCH  31  32
ENDBRANCH  29  31
ENDBRANCH  28  29
ENDBRANCH  27  28
ENDBRANCH  26  27
ENDBRANCH  25  26
ENDBRANCH  24  25
ENDBRANCH  23  24
ENDBRANCH   6  23
TORSDOF 14
ENDMDL
