MODEL 1
REMARK VINA RESULT:      -8.5      0.000      0.000
REMARK  Name = 
REMARK  8 active torsions:
REMARK  status: ('A' for Active; 'I' for Inactive)
REMARK    1  A    between atoms: C_1  and  C_2
REMARK    2  A    between atoms: C_2  and  O_3
REMARK    3  A    between atoms: O_3  and  C_4
REMARK    4  A    between atoms: C_4  and  C_5
REMARK    5  A    between atoms: N_7  and  C_8
REMARK    6  A    between atoms: C_11  and  S_12
REMARK    7  A    between atoms: S_12  and  N_15
REMARK    8  A    between atoms: C_18  and  C_19
REMARK                            x       y       z     vdW  Elec       q    Type
REMARK                         _______ _______ _______ _____ _____    ______ ____
ROOT
ATOM      1  S   UNL     1       3.079   5.424  18.806  0.00  0.00    +0.000 S 
ATOM      2  O   UNL     1       3.019   4.578  19.977  0.00  0.00    +0.000 OA
ATOM      3  O   UNL     1       2.483   5.001  17.554  0.00  0.00    +0.000 OA
ENDROOT
BRANCH   1   7
ATOM      4  C   UNL     1       1.000   9.388  19.859  0.00  0.00    +0.000 A 
ATOM      5  C   UNL     1       1.440   9.131  18.557  0.00  0.00    +0.000 A 
ATOM      6  C   UNL     1       2.092   7.936  18.245  0.00  0.00    +0.000 A 
ATOM      7  C   UNL     1       2.325   6.988  19.243  0.00  0.00    +0.000 A 
ATOM      8  C   UNL     1       1.877   7.225  20.548  0.00  0.00    +0.000 A 
ATOM      9  C   UNL     1       1.238   8.433  20.856  0.00  0.00    +0.000 A 
BRANCH   4  12
ATOM     10  C   UNL     1       0.826  11.867  20.054  0.00  0.00    +0.000 C 
ATOM     11  O   UNL     1       1.855  12.191  19.469  0.00  0.00    +0.000 OA
ATOM     12  N   UNL     1       0.336  10.579  20.218  0.00  0.00    +0.000 N 
ATOM     13  H   UNL     1      -0.604  10.494  20.584  0.00  0.00    +0.000 HD
BRANCH  10  14
ATOM     14  C   UNL     1      -0.061  12.926  20.713  0.00  0.00    +0.000 C 
BRANCH  14  15
ATOM     15  O   UNL     1       0.114  13.047  22.119  0.00  0.00    +0.000 OA
BRANCH  15  17
ATOM     16  C   UNL     1      -1.709  11.659  23.032  0.00  0.00    +0.000 C 
ATOM     17  C   UNL     1      -1.109  13.043  22.864  0.00  0.00    +0.000 C 
ENDBRANCH  15  17
ENDBRANCH  14  15
ENDBRANCH  10  14
ENDBRANCH   4  12
ENDBRANCH   1   7
BRANCH   1  18
ATOM     18  N   UNL     1       4.729   5.805  18.502  0.00  0.00    +0.000 NA
ATOM     19  C   UNL     1       5.623   4.624  18.402  0.00  0.00    +0.000 C 
ATOM     20  C   UNL     1       7.085   5.041  18.267  0.00  0.00    +0.000 C 
ATOM     21  C   UNL     1       7.297   5.969  17.069  0.00  0.00    +0.000 C 
ATOM     22  C   UNL     1       6.402   7.198  17.257  0.00  0.00    +0.000 C 
ATOM     23  C   UNL     1       4.927   6.852  17.465  0.00  0.00    +0.000 C 
BRANCH  21  24
ATOM     24  C   UNL     1       7.025   5.250  15.776  0.00  0.00    +0.000 A 
ATOM     25  N   UNL     1       7.781   5.293  14.698  0.00  0.00    +0.000 NA
ATOM     26  C   UNL     1       7.081   4.644  13.719  0.00  0.00    +0.000 A 
ATOM     27  C   UNL     1       7.414   4.447  12.374  0.00  0.00    +0.000 A 
ATOM     28  C   UNL     1       6.510   3.764  11.556  0.00  0.00    +0.000 A 
ATOM     29  C   UNL     1       5.299   3.293  12.068  0.00  0.00    +0.000 A 
ATOM     30  C   UNL     1       4.952   3.478  13.414  0.00  0.00    +0.000 A 
ATOM     31  C   UNL     1       5.875   4.161  14.210  0.00  0.00    +0.000 A 
ATOM     32  N   UNL     1       5.878   4.529  15.534  0.00  0.00    +0.000 N 
ATOM     33  H   UNL     1       5.142   4.342  16.199  0.00  0.00    +0.000 HD
ENDBRANCH  21  24
ENDBRANCH   1  18
TORSDOF 7
ENDMDL
MODEL 2
REMARK VINA RESULT:      -8.4      0.852      1.216
REMARK  Name = 
REMARK  8 active torsions:
REMARK  status: ('A' for Active; 'I' for Inactive)
REMARK    1  A    between atoms: C_1  and  C_2
REMARK    2  A    between atoms: C_2  and  O_3
REMARK    3  A    between atoms: O_3  and  C_4
REMARK    4  A    between atoms: C_4  and  C_5
REMARK    5  A    between atoms: N_7  and  C_8
REMARK    6  A    between atoms: C_11  and  S_12
REMARK    7  A    between atoms: S_12  and  N_15
REMARK    8  A    between atoms: C_18  and  C_19
REMARK                            x       y       z     vdW  Elec       q    Type
REMARK                         _______ _______ _______ _____ _____    ______ ____
ROOT
ATOM      1  S   UNL     1       3.154   5.274  18.794  0.00  0.00    +0.000 S 
ATOM      2  O   UNL     1       3.114   4.487  20.007  0.00  0.00    +0.000 OA
ATOM      3  O   UNL     1       2.602   4.758  17.557  0.00  0.00    +0.000 OA
ENDROOT
BRANCH   1   7
ATOM      4  C   UNL     1       1.148   9.300  19.748  0.00  0.00    +0.000 A 
ATOM      5  C   UNL     1       1.295   8.319  20.733  0.00  0.00    +0.000 A 
ATOM      6  C   UNL     1       1.884   7.088  20.435  0.00  0.00    +0.000 A 
ATOM      7  C   UNL     1       2.319   6.820  19.136  0.00  0.00    +0.000 A 
ATOM      8  C   UNL     1       2.191   7.797  18.142  0.00  0.00    +0.000 A 
ATOM      9  C   UNL     1       1.585   9.024  18.445  0.00  0.00    +0.000 A 
BRANCH   4  12
ATOM     10  C   UNL     1      -0.652  11.007  19.504  0.00  0.00    +0.000 C 
ATOM     11  O   UNL     1      -1.467  10.355  18.857  0.00  0.00    +0.000 OA
ATOM     12  N   UNL     1       0.561  10.556  20.004  0.00  0.00    +0.000 N 
ATOM     13  H   UNL     1       1.042  11.169  20.651  0.00  0.00    +0.000 HD
BRANCH  10  14
ATOM     14  C   UNL     1      -0.914  12.480  19.825  0.00  0.00    +0.000 C 
BRANCH  14  15
ATOM     15  O   UNL     1      -0.426  12.901  21.093  0.00  0.00    +0.000 OA
BRANCH  15  17
ATOM     16  C   UNL     1      -1.387  11.655  22.992  0.00  0.00    +0.000 C 
ATOM     17  C   UNL     1      -1.414  12.904  22.129  0.00  0.00    +0.000 C 
ENDBRANCH  15  17
ENDBRANCH  14  15
ENDBRANCH  10  14
ENDBRANCH   4  12
ENDBRANCH   1   7
BRANCH   1  18
ATOM     18  N   UNL     1       4.789   5.718  18.495  0.00  0.00    +0.000 NA
ATOM     19  C   UNL     1       5.726   4.571  18.381  0.00  0.00    +0.000 C 
ATOM     20  C   UNL     1       7.172   5.042  18.252  0.00  0.00    +0.000 C 
ATOM     21  C   UNL     1       7.349   5.993  17.066  0.00  0.00    +0.000 C 
ATOM     22  C   UNL     1       6.411   7.186  17.269  0.00  0.00    +0.000 C 
ATOM     23  C   UNL     1       4.949   6.785  17.471  0.00  0.00    +0.000 C 
BRANCH  21  24
ATOM     24  C   UNL     1       7.104   5.281  15.764  0.00  0.00    +0.000 A 
ATOM     25  N   UNL     1       7.817   5.420  14.664  0.00  0.00    +0.000 NA
ATOM     26  C   UNL     1       7.148   4.730  13.691  0.00  0.00    +0.000 A 
ATOM     27  C   UNL     1       7.454   4.596  12.332  0.00  0.00    +0.000 A 
ATOM     28  C   UNL     1       6.592   3.849  11.524  0.00  0.00    +0.000 A 
ATOM     29  C   UNL     1       5.448   3.253  12.062  0.00  0.00    +0.000 A 
ATOM     30  C   UNL     1       5.130   3.374  13.422  0.00  0.00    +0.000 A 
ATOM     31  C   UNL     1       6.010   4.123  14.206  0.00  0.00    +0.000 A 
ATOM     32  N   UNL     1       6.023   4.460  15.539  0.00  0.00    +0.000 N 
ATOM     33  H   UNL     1       5.330   4.188  16.221  0.00  0.00    +0.000 HD
ENDBRANCH  21  24
ENDBRANCH   1  18
TORSDOF 7
ENDMDL
MODEL 3
REMARK VINA RESULT:      -8.4      1.321      1.683
REMARK  Name = 
REMARK  8 active torsions:
REMARK  status: ('A' for Active; 'I' for Inactive)
REMARK    1  A    between atoms: C_1  and  C_2
REMARK    2  A    between atoms: C_2  and  O_3
REMARK    3  A    between atoms: O_3  and  C_4
REMARK    4  A    between atoms: C_4  and  C_5
REMARK    5  A    between atoms: N_7  and  C_8
REMARK    6  A    between atoms: C_11  and  S_12
REMARK    7  A    between atoms: S_12  and  N_15
REMARK    8  A    between atoms: C_18  and  C_19
REMARK                            x       y       z     vdW  Elec       q    Type
REMARK                         _______ _______ _______ _____ _____    ______ ____
ROOT
ATOM      1  S   UNL     1       3.089   5.412  18.887  0.00  0.00    +0.000 S 
ATOM      2  O   UNL     1       2.977   4.709  20.146  0.00  0.00    +0.000 OA
ATOM      3  O   UNL     1       2.511   4.862  17.677  0.00  0.00    +0.000 OA
ENDROOT
BRANCH   1   7
ATOM      4  C   UNL     1       1.096   9.521  19.422  0.00  0.00    +0.000 A 
ATOM      5  C   UNL     1       1.537   9.094  18.166  0.00  0.00    +0.000 A 
ATOM      6  C   UNL     1       2.162   7.855  18.010  0.00  0.00    +0.000 A 
ATOM      7  C   UNL     1       2.369   7.035  19.120  0.00  0.00    +0.000 A 
ATOM      8  C   UNL     1       1.920   7.442  20.382  0.00  0.00    +0.000 A 
ATOM      9  C   UNL     1       1.307   8.694  20.532  0.00  0.00    +0.000 A 
BRANCH   4  12
ATOM     10  C   UNL     1      -0.829  11.093  19.227  0.00  0.00    +0.000 C 
ATOM     11  O   UNL     1      -1.664  10.335  18.741  0.00  0.00    +0.000 OA
ATOM     12  N   UNL     1       0.458  10.762  19.625  0.00  0.00    +0.000 N 
ATOM     13  H   UNL     1       0.965  11.463  20.152  0.00  0.00    +0.000 HD
BRANCH  10  14
ATOM     14  C   UNL     1      -1.151  12.574  19.436  0.00  0.00    +0.000 C 
BRANCH  14  15
ATOM     15  O   UNL     1      -2.509  12.839  19.769  0.00  0.00    +0.000 OA
BRANCH  15  17
ATOM     16  C   UNL     1      -4.282  12.866  21.483  0.00  0.00    +0.000 C 
ATOM     17  C   UNL     1      -2.806  12.709  21.163  0.00  0.00    +0.000 C 
ENDBRANCH  15  17
ENDBRANCH  14  15
ENDBRANCH  10  14
ENDBRANCH   4  12
ENDBRANCH   1   7
BRANCH   1  18
ATOM     18  N   UNL     1       4.755   5.714  18.584  0.00  0.00    +0.000 NA
ATOM     19  C   UNL     1       5.557   4.496  18.299  0.00  0.00    +0.000 C 
ATOM     20  C   UNL     1       7.043   4.824  18.174  0.00  0.00    +0.000 C 
ATOM     21  C   UNL     1       7.296   5.890  17.106  0.00  0.00    +0.000 C 
ATOM     22  C   UNL     1       6.499   7.142  17.486  0.00  0.00    +0.000 C 
ATOM     23  C   UNL     1       5.008   6.875  17.691  0.00  0.00    +0.000 C 
BRANCH  21  24
ATOM     24  C   UNL     1       6.943   5.374  15.738  0.00  0.00    +0.000 A 
ATOM     25  N   UNL     1       5.898   4.628  15.442  0.00  0.00    +0.000 NA
ATOM     26  C   UNL     1       6.058   4.251  14.138  0.00  0.00    +0.000 A 
ATOM     27  C   UNL     1       5.254   3.419  13.351  0.00  0.00    +0.000 A 
ATOM     28  C   UNL     1       5.648   3.162  12.034  0.00  0.00    +0.000 A 
ATOM     29  C   UNL     1       6.819   3.720  11.518  0.00  0.00    +0.000 A 
ATOM     30  C   UNL     1       7.633   4.560  12.291  0.00  0.00    +0.000 A 
ATOM     31  C   UNL     1       7.215   4.802  13.602  0.00  0.00    +0.000 A 
ATOM     32  N   UNL     1       7.744   5.543  14.632  0.00  0.00    +0.000 N 
ATOM     33  H   UNL     1       8.598   6.080  14.593  0.00  0.00    +0.000 HD
ENDBRANCH  21  24
ENDBRANCH   1  18
TORSDOF 7
ENDMDL
MODEL 4
REMARK VINA RESULT:      -8.3      2.765     10.983
REMARK  Name = 
REMARK  8 active torsions:
REMARK  status: ('A' for Active; 'I' for Inactive)
REMARK    1  A    between atoms: C_1  and  C_2
REMARK    2  A    between atoms: C_2  and  O_3
REMARK    3  A    between atoms: O_3  and  C_4
REMARK    4  A    between atoms: C_4  and  C_5
REMARK    5  A    between atoms: N_7  and  C_8
REMARK    6  A    between atoms: C_11  and  S_12
REMARK    7  A    between atoms: S_12  and  N_15
REMARK    8  A    between atoms: C_18  and  C_19
REMARK                            x       y       z     vdW  Elec       q    Type
REMARK                         _______ _______ _______ _____ _____    ______ ____
ROOT
ATOM      1  S   UNL     1       0.784   8.988  21.240  0.00  0.00    +0.000 S 
ATOM      2  O   UNL     1      -0.473   8.394  21.636  0.00  0.00    +0.000 OA
ATOM      3  O   UNL     1       1.755   9.401  22.234  0.00  0.00    +0.000 OA
ENDROOT
BRANCH   1   7
ATOM      4  C   UNL     1       3.041   6.058  18.508  0.00  0.00    +0.000 A 
ATOM      5  C   UNL     1       2.808   7.377  18.109  0.00  0.00    +0.000 A 
ATOM      6  C   UNL     1       2.102   8.258  18.932  0.00  0.00    +0.000 A 
ATOM      7  C   UNL     1       1.606   7.820  20.160  0.00  0.00    +0.000 A 
ATOM      8  C   UNL     1       1.844   6.506  20.579  0.00  0.00    +0.000 A 
ATOM      9  C   UNL     1       2.540   5.623  19.742  0.00  0.00    +0.000 A 
BRANCH   4  12
ATOM     10  C   UNL     1       5.117   4.903  17.752  0.00  0.00    +0.000 C 
ATOM     11  O   UNL     1       5.917   5.371  18.558  0.00  0.00    +0.000 OA
ATOM     12  N   UNL     1       3.750   5.135  17.712  0.00  0.00    +0.000 N 
ATOM     13  H   UNL     1       3.208   4.551  17.086  0.00  0.00    +0.000 HD
BRANCH  10  14
ATOM     14  C   UNL     1       5.594   3.972  16.635  0.00  0.00    +0.000 C 
BRANCH  14  15
ATOM     15  O   UNL     1       6.859   4.316  16.083  0.00  0.00    +0.000 OA
BRANCH  15  17
ATOM     16  C   UNL     1       6.214   3.900  13.739  0.00  0.00    +0.000 C 
ATOM     17  C   UNL     1       6.793   4.862  14.762  0.00  0.00    +0.000 C 
ENDBRANCH  15  17
ENDBRANCH  14  15
ENDBRANCH  10  14
ENDBRANCH   4  12
ENDBRANCH   1   7
BRANCH   1  18
ATOM     18  N   UNL     1       0.446  10.345  20.238  0.00  0.00    +0.000 NA
ATOM     19  C   UNL     1      -0.824  10.244  19.476  0.00  0.00    +0.000 C 
ATOM     20  C   UNL     1      -0.992  11.415  18.512  0.00  0.00    +0.000 C 
ATOM     21  C   UNL     1      -0.914  12.758  19.240  0.00  0.00    +0.000 C 
ATOM     22  C   UNL     1       0.440  12.836  19.951  0.00  0.00    +0.000 C 
ATOM     23  C   UNL     1       0.705  11.657  20.888  0.00  0.00    +0.000 C 
BRANCH  21  24
ATOM     24  C   UNL     1      -2.073  12.925  20.185  0.00  0.00    +0.000 A 
ATOM     25  N   UNL     1      -1.986  13.058  21.494  0.00  0.00    +0.000 NA
ATOM     26  C   UNL     1      -3.269  13.007  21.965  0.00  0.00    +0.000 A 
ATOM     27  C   UNL     1      -3.729  13.056  23.285  0.00  0.00    +0.000 A 
ATOM     28  C   UNL     1      -5.105  12.959  23.516  0.00  0.00    +0.000 A 
ATOM     29  C   UNL     1      -5.998  12.813  22.452  0.00  0.00    +0.000 A 
ATOM     30  C   UNL     1      -5.553  12.767  21.124  0.00  0.00    +0.000 A 
ATOM     31  C   UNL     1      -4.175  12.869  20.921  0.00  0.00    +0.000 A 
ATOM     32  N   UNL     1      -3.390  12.855  19.793  0.00  0.00    +0.000 N 
ATOM     33  H   UNL     1      -3.723  12.761  18.845  0.00  0.00    +0.000 HD
ENDBRANCH  21  24
ENDBRANCH   1  18
TORSDOF 7
ENDMDL
MODEL 5
REMARK VINA RESULT:      -8.3      1.261      2.197
REMARK  Name = 
REMARK  8 active torsions:
REMARK  status: ('A' for Active; 'I' for Inactive)
REMARK    1  A    between atoms: C_1  and  C_2
REMARK    2  A    between atoms: C_2  and  O_3
REMARK    3  A    between atoms: O_3  and  C_4
REMARK    4  A    between atoms: C_4  and  C_5
REMARK    5  A    between atoms: N_7  and  C_8
REMARK    6  A    between atoms: C_11  and  S_12
REMARK    7  A    between atoms: S_12  and  N_15
REMARK    8  A    between atoms: C_18  and  C_19
REMARK                            x       y       z     vdW  Elec       q    Type
REMARK                         _______ _______ _______ _____ _____    ______ ____
ROOT
ATOM      1  S   UNL     1       3.065   5.244  18.899  0.00  0.00    +0.000 S 
ATOM      2  O   UNL     1       3.005   4.497  20.135  0.00  0.00    +0.000 OA
ATOM      3  O   UNL     1       2.493   4.709  17.679  0.00  0.00    +0.000 OA
ENDROOT
BRANCH   1   7
ATOM      4  C   UNL     1       1.180   9.355  19.733  0.00  0.00    +0.000 A 
ATOM      5  C   UNL     1       1.319   8.408  20.752  0.00  0.00    +0.000 A 
ATOM      6  C   UNL     1       1.870   7.152  20.491  0.00  0.00    +0.000 A 
ATOM      7  C   UNL     1       2.276   6.824  19.196  0.00  0.00    +0.000 A 
ATOM      8  C   UNL     1       2.157   7.767  18.169  0.00  0.00    +0.000 A 
ATOM      9  C   UNL     1       1.588   9.020  18.435  0.00  0.00    +0.000 A 
BRANCH   4  12
ATOM     10  C   UNL     1      -0.590  11.091  19.475  0.00  0.00    +0.000 C 
ATOM     11  O   UNL     1      -1.442  10.430  18.889  0.00  0.00    +0.000 OA
ATOM     12  N   UNL     1       0.631  10.635  19.952  0.00  0.00    +0.000 N 
ATOM     13  H   UNL     1       1.149  11.266  20.551  0.00  0.00    +0.000 HD
BRANCH  10  14
ATOM     14  C   UNL     1      -0.807  12.583  19.736  0.00  0.00    +0.000 C 
BRANCH  14  15
ATOM     15  O   UNL     1      -0.529  13.422  18.621  0.00  0.00    +0.000 OA
BRANCH  15  17
ATOM     16  C   UNL     1       1.922  13.548  18.372  0.00  0.00    +0.000 C 
ATOM     17  C   UNL     1       0.634  14.241  18.780  0.00  0.00    +0.000 C 
ENDBRANCH  15  17
ENDBRANCH  14  15
ENDBRANCH  10  14
ENDBRANCH   4  12
ENDBRANCH   1   7
BRANCH   1  18
ATOM     18  N   UNL     1       4.711   5.632  18.583  0.00  0.00    +0.000 NA
ATOM     19  C   UNL     1       5.575   4.457  18.303  0.00  0.00    +0.000 C 
ATOM     20  C   UNL     1       7.040   4.861  18.166  0.00  0.00    +0.000 C 
ATOM     21  C   UNL     1       7.230   5.930  17.088  0.00  0.00    +0.000 C 
ATOM     22  C   UNL     1       6.370   7.141  17.461  0.00  0.00    +0.000 C 
ATOM     23  C   UNL     1       4.896   6.798  17.679  0.00  0.00    +0.000 C 
BRANCH  21  24
ATOM     24  C   UNL     1       6.897   5.384  15.726  0.00  0.00    +0.000 A 
ATOM     25  N   UNL     1       5.861   4.624  15.434  0.00  0.00    +0.000 NA
ATOM     26  C   UNL     1       6.040   4.222  14.139  0.00  0.00    +0.000 A 
ATOM     27  C   UNL     1       5.251   3.368  13.360  0.00  0.00    +0.000 A 
ATOM     28  C   UNL     1       5.662   3.087  12.053  0.00  0.00    +0.000 A 
ATOM     29  C   UNL     1       6.836   3.643  11.540  0.00  0.00    +0.000 A 
ATOM     30  C   UNL     1       7.634   4.505  12.305  0.00  0.00    +0.000 A 
ATOM     31  C   UNL     1       7.199   4.771  13.606  0.00  0.00    +0.000 A 
ATOM     32  N   UNL     1       7.710   5.537  14.626  0.00  0.00    +0.000 N 
ATOM     33  H   UNL     1       8.561   6.079  14.587  0.00  0.00    +0.000 HD
ENDBRANCH  21  24
ENDBRANCH   1  18
TORSDOF 7
ENDMDL
MODEL 6
REMARK VINA RESULT:      -8.3      2.984     11.109
REMARK  Name = 
REMARK  8 active torsions:
REMARK  status: ('A' for Active; 'I' for Inactive)
REMARK    1  A    between atoms: C_1  and  C_2
REMARK    2  A    between atoms: C_2  and  O_3
REMARK    3  A    between atoms: O_3  and  C_4
REMARK    4  A    between atoms: C_4  and  C_5
REMARK    5  A    between atoms: N_7  and  C_8
REMARK    6  A    between atoms: C_11  and  S_12
REMARK    7  A    between atoms: S_12  and  N_15
REMARK    8  A    between atoms: C_18  and  C_19
REMARK                            x       y       z     vdW  Elec       q    Type
REMARK                         _______ _______ _______ _____ _____    ______ ____
ROOT
ATOM      1  S   UNL     1       0.695   9.085  21.398  0.00  0.00    +0.000 S 
ATOM      2  O   UNL     1      -0.543   8.438  21.770  0.00  0.00    +0.000 OA
ATOM      3  O   UNL     1       1.643   9.510  22.410  0.00  0.00    +0.000 OA
ENDROOT
BRANCH   1   7
ATOM      4  C   UNL     1       2.786   6.161  18.532  0.00  0.00    +0.000 A 
ATOM      5  C   UNL     1       2.313   5.732  19.775  0.00  0.00    +0.000 A 
ATOM      6  C   UNL     1       1.698   6.628  20.654  0.00  0.00    +0.000 A 
ATOM      7  C   UNL     1       1.567   7.971  20.300  0.00  0.00    +0.000 A 
ATOM      8  C   UNL     1       2.024   8.412  19.053  0.00  0.00    +0.000 A 
ATOM      9  C   UNL     1       2.653   7.511  18.183  0.00  0.00    +0.000 A 
BRANCH   4  12
ATOM     10  C   UNL     1       4.721   4.838  17.681  0.00  0.00    +0.000 C 
ATOM     11  O   UNL     1       5.513   5.018  18.601  0.00  0.00    +0.000 OA
ATOM     12  N   UNL     1       3.411   5.292  17.614  0.00  0.00    +0.000 N 
ATOM     13  H   UNL     1       2.841   4.924  16.862  0.00  0.00    +0.000 HD
BRANCH  10  14
ATOM     14  C   UNL     1       5.141   4.056  16.434  0.00  0.00    +0.000 C 
BRANCH  14  15
ATOM     15  O   UNL     1       6.535   4.105  16.153  0.00  0.00    +0.000 OA
BRANCH  15  17
ATOM     16  C   UNL     1       6.153   3.939  13.722  0.00  0.00    +0.000 C 
ATOM     17  C   UNL     1       6.853   4.648  14.867  0.00  0.00    +0.000 C 
ENDBRANCH  15  17
ENDBRANCH  14  15
ENDBRANCH  10  14
ENDBRANCH   4  12
ENDBRANCH   1   7
BRANCH   1  18
ATOM     18  N   UNL     1       0.317  10.452  20.424  0.00  0.00    +0.000 NA
ATOM     19  C   UNL     1      -0.784  10.226  19.453  0.00  0.00    +0.000 C 
ATOM     20  C   UNL     1      -0.973  11.431  18.535  0.00  0.00    +0.000 C 
ATOM     21  C   UNL     1      -1.221  12.713  19.333  0.00  0.00    +0.000 C 
ATOM     22  C   UNL     1      -0.027  12.930  20.266  0.00  0.00    +0.000 C 
ATOM     23  C   UNL     1       0.263  11.734  21.174  0.00  0.00    +0.000 C 
BRANCH  21  24
ATOM     24  C   UNL     1      -2.528  12.639  20.074  0.00  0.00    +0.000 A 
ATOM     25  N   UNL     1      -3.694  12.317  19.550  0.00  0.00    +0.000 NA
ATOM     26  C   UNL     1      -4.623  12.543  20.527  0.00  0.00    +0.000 A 
ATOM     27  C   UNL     1      -6.015  12.404  20.475  0.00  0.00    +0.000 A 
ATOM     28  C   UNL     1      -6.760  12.723  21.614  0.00  0.00    +0.000 A 
ATOM     29  C   UNL     1      -6.130  13.175  22.776  0.00  0.00    +0.000 A 
ATOM     30  C   UNL     1      -4.737  13.315  22.846  0.00  0.00    +0.000 A 
ATOM     31  C   UNL     1      -4.016  12.986  21.696  0.00  0.00    +0.000 A 
ATOM     32  N   UNL     1      -2.676  13.005  21.392  0.00  0.00    +0.000 N 
ATOM     33  H   UNL     1      -1.935  13.287  22.017  0.00  0.00    +0.000 HD
ENDBRANCH  21  24
ENDBRANCH   1  18
TORSDOF 7
ENDMDL
MODEL 7
REMARK VINA RESULT:      -8.2      1.251      1.281
REMARK  Name = 
REMARK  8 active torsions:
REMARK  status: ('A' for Active; 'I' for Inactive)
REMARK    1  A    between atoms: C_1  and  C_2
REMARK    2  A    between atoms: C_2  and  O_3
REMARK    3  A    between atoms: O_3  and  C_4
REMARK    4  A    between atoms: C_4  and  C_5
REMARK    5  A    between atoms: N_7  and  C_8
REMARK    6  A    between atoms: C_11  and  S_12
REMARK    7  A    between atoms: S_12  and  N_15
REMARK    8  A    between atoms: C_18  and  C_19
REMARK                            x       y       z     vdW  Elec       q    Type
REMARK                         _______ _______ _______ _____ _____    ______ ____
ROOT
ATOM      1  S   UNL     1       3.149   5.378  18.798  0.00  0.00    +0.000 S 
ATOM      2  O   UNL     1       3.082   4.536  19.973  0.00  0.00    +0.000 OA
ATOM      3  O   UNL     1       2.567   4.947  17.543  0.00  0.00    +0.000 OA
ENDROOT
BRANCH   1   7
ATOM      4  C   UNL     1       1.041   9.337  19.810  0.00  0.00    +0.000 A 
ATOM      5  C   UNL     1       1.519   9.086  18.520  0.00  0.00    +0.000 A 
ATOM      6  C   UNL     1       2.179   7.892  18.222  0.00  0.00    +0.000 A 
ATOM      7  C   UNL     1       2.383   6.940  19.221  0.00  0.00    +0.000 A 
ATOM      8  C   UNL     1       1.899   7.171  20.514  0.00  0.00    +0.000 A 
ATOM      9  C   UNL     1       1.251   8.378  20.810  0.00  0.00    +0.000 A 
BRANCH   4  12
ATOM     10  C   UNL     1      -0.850  10.953  19.647  0.00  0.00    +0.000 C 
ATOM     11  O   UNL     1      -1.597  10.319  18.906  0.00  0.00    +0.000 OA
ATOM     12  N   UNL     1       0.368  10.527  20.156  0.00  0.00    +0.000 N 
ATOM     13  H   UNL     1       0.785  11.102  20.878  0.00  0.00    +0.000 HD
BRANCH  10  14
ATOM     14  C   UNL     1      -1.215  12.371  20.091  0.00  0.00    +0.000 C 
BRANCH  14  15
ATOM     15  O   UNL     1      -2.530  12.779  19.733  0.00  0.00    +0.000 OA
BRANCH  15  17
ATOM     16  C   UNL     1      -3.047  13.564  22.014  0.00  0.00    +0.000 C 
ATOM     17  C   UNL     1      -3.470  12.738  20.812  0.00  0.00    +0.000 C 
ENDBRANCH  15  17
ENDBRANCH  14  15
ENDBRANCH  10  14
ENDBRANCH   4  12
ENDBRANCH   1   7
BRANCH   1  18
ATOM     18  N   UNL     1       4.800   5.766  18.508  0.00  0.00    +0.000 NA
ATOM     19  C   UNL     1       5.697   4.587  18.397  0.00  0.00    +0.000 C 
ATOM     20  C   UNL     1       7.159   5.008  18.275  0.00  0.00    +0.000 C 
ATOM     21  C   UNL     1       7.375   5.954  17.092  0.00  0.00    +0.000 C 
ATOM     22  C   UNL     1       6.477   7.179  17.292  0.00  0.00    +0.000 C 
ATOM     23  C   UNL     1       5.002   6.827  17.487  0.00  0.00    +0.000 C 
BRANCH  21  24
ATOM     24  C   UNL     1       7.111   5.252  15.788  0.00  0.00    +0.000 A 
ATOM     25  N   UNL     1       7.828   5.375  14.689  0.00  0.00    +0.000 NA
ATOM     26  C   UNL     1       7.143   4.706  13.713  0.00  0.00    +0.000 A 
ATOM     27  C   UNL     1       7.446   4.568  12.354  0.00  0.00    +0.000 A 
ATOM     28  C   UNL     1       6.564   3.846  11.543  0.00  0.00    +0.000 A 
ATOM     29  C   UNL     1       5.404   3.281  12.078  0.00  0.00    +0.000 A 
ATOM     30  C   UNL     1       5.088   3.406  13.438  0.00  0.00    +0.000 A 
ATOM     31  C   UNL     1       5.988   4.129  14.226  0.00  0.00    +0.000 A 
ATOM     32  N   UNL     1       6.009   4.462  15.559  0.00  0.00    +0.000 N 
ATOM     33  H   UNL     1       5.308   4.208  16.240  0.00  0.00    +0.000 HD
ENDBRANCH  21  24
ENDBRANCH   1  18
TORSDOF 7
ENDMDL
MODEL 8
REMARK VINA RESULT:      -8.2      1.283      1.938
REMARK  Name = 
REMARK  8 active torsions:
REMARK  status: ('A' for Active; 'I' for Inactive)
REMARK    1  A    between atoms: C_1  and  C_2
REMARK    2  A    between atoms: C_2  and  O_3
REMARK    3  A    between atoms: O_3  and  C_4
REMARK    4  A    between atoms: C_4  and  C_5
REMARK    5  A    between atoms: N_7  and  C_8
REMARK    6  A    between atoms: C_11  and  S_12
REMARK    7  A    between atoms: S_12  and  N_15
REMARK    8  A    between atoms: C_18  and  C_19
REMARK                            x       y       z     vdW  Elec       q    Type
REMARK                         _______ _______ _______ _____ _____    ______ ____
ROOT
ATOM      1  S   UNL     1       3.067   5.448  18.806  0.00  0.00    +0.000 S 
ATOM      2  O   UNL     1       2.982   4.771  20.081  0.00  0.00    +0.000 OA
ATOM      3  O   UNL     1       2.544   4.832  17.603  0.00  0.00    +0.000 OA
ENDROOT
BRANCH   1   7
ATOM      4  C   UNL     1       1.088   9.565  19.328  0.00  0.00    +0.000 A 
ATOM      5  C   UNL     1       1.315   8.733  20.428  0.00  0.00    +0.000 A 
ATOM      6  C   UNL     1       1.896   7.473  20.264  0.00  0.00    +0.000 A 
ATOM      7  C   UNL     1       2.240   7.026  18.988  0.00  0.00    +0.000 A 
ATOM      8  C   UNL     1       2.032   7.853  17.878  0.00  0.00    +0.000 A 
ATOM      9  C   UNL     1       1.435   9.110  18.050  0.00  0.00    +0.000 A 
BRANCH   4  12
ATOM     10  C   UNL     1       1.127  12.052  19.162  0.00  0.00    +0.000 C 
ATOM     11  O   UNL     1       2.232  12.206  18.651  0.00  0.00    +0.000 OA
ATOM     12  N   UNL     1       0.507  10.844  19.448  0.00  0.00    +0.000 N 
ATOM     13  H   UNL     1      -0.468  10.887  19.720  0.00  0.00    +0.000 HD
BRANCH  10  14
ATOM     14  C   UNL     1       0.284  13.262  19.570  0.00  0.00    +0.000 C 
BRANCH  14  15
ATOM     15  O   UNL     1       0.012  14.173  18.512  0.00  0.00    +0.000 OA
BRANCH  15  17
ATOM     16  C   UNL     1       1.614  16.045  18.628  0.00  0.00    +0.000 C 
ATOM     17  C   UNL     1       0.198  15.549  18.862  0.00  0.00    +0.000 C 
ENDBRANCH  15  17
ENDBRANCH  14  15
ENDBRANCH  10  14
ENDBRANCH   4  12
ENDBRANCH   1   7
BRANCH   1  18
ATOM     18  N   UNL     1       4.715   5.849  18.519  0.00  0.00    +0.000 NA
ATOM     19  C   UNL     1       5.626   4.679  18.436  0.00  0.00    +0.000 C 
ATOM     20  C   UNL     1       7.084   5.114  18.315  0.00  0.00    +0.000 C 
ATOM     21  C   UNL     1       7.297   6.040  17.115  0.00  0.00    +0.000 C 
ATOM     22  C   UNL     1       6.384   7.258  17.286  0.00  0.00    +0.000 C 
ATOM     23  C   UNL     1       4.911   6.893  17.479  0.00  0.00    +0.000 C 
BRANCH  21  24
ATOM     24  C   UNL     1       7.049   5.310  15.823  0.00  0.00    +0.000 A 
ATOM     25  N   UNL     1       7.807   5.373  14.746  0.00  0.00    +0.000 NA
ATOM     26  C   UNL     1       7.128   4.703  13.767  0.00  0.00    +0.000 A 
ATOM     27  C   UNL     1       7.470   4.513  12.423  0.00  0.00    +0.000 A 
ATOM     28  C   UNL     1       6.589   3.801  11.604  0.00  0.00    +0.000 A 
ATOM     29  C   UNL     1       5.391   3.296  12.115  0.00  0.00    +0.000 A 
ATOM     30  C   UNL     1       5.036   3.473  13.460  0.00  0.00    +0.000 A 
ATOM     31  C   UNL     1       5.936   4.184  14.257  0.00  0.00    +0.000 A 
ATOM     32  N   UNL     1       5.926   4.555  15.580  0.00  0.00    +0.000 N 
ATOM     33  H   UNL     1       5.194   4.347  16.244  0.00  0.00    +0.000 HD
ENDBRANCH  21  24
ENDBRANCH   1  18
TORSDOF 7
ENDMDL
MODEL 9
REMARK VINA RESULT:      -8.1      2.961     11.078
REMARK  Name = 
REMARK  8 active torsions:
REMARK  status: ('A' for Active; 'I' for Inactive)
REMARK    1  A    between atoms: C_1  and  C_2
REMARK    2  A    between atoms: C_2  and  O_3
REMARK    3  A    between atoms: O_3  and  C_4
REMARK    4  A    between atoms: C_4  and  C_5
REMARK    5  A    between atoms: N_7  and  C_8
REMARK    6  A    between atoms: C_11  and  S_12
REMARK    7  A    between atoms: S_12  and  N_15
REMARK    8  A    between atoms: C_18  and  C_19
REMARK                            x       y       z     vdW  Elec       q    Type
REMARK                         _______ _______ _______ _____ _____    ______ ____
ROOT
ATOM      1  S   UNL     1       0.752   9.077  21.415  0.00  0.00    +0.000 S 
ATOM      2  O   UNL     1      -0.475   8.489  21.903  0.00  0.00    +0.000 OA
ATOM      3  O   UNL     1       1.788   9.503  22.336  0.00  0.00    +0.000 OA
ENDROOT
BRANCH   1   7
ATOM      4  C   UNL     1       2.822   6.102  18.586  0.00  0.00    +0.000 A 
ATOM      5  C   UNL     1       2.650   7.440  18.220  0.00  0.00    +0.000 A 
ATOM      6  C   UNL     1       2.001   8.336  19.072  0.00  0.00    +0.000 A 
ATOM      7  C   UNL     1       1.500   7.895  20.297  0.00  0.00    +0.000 A 
ATOM      8  C   UNL     1       1.677   6.561  20.683  0.00  0.00    +0.000 A 
ATOM      9  C   UNL     1       2.316   5.664  19.816  0.00  0.00    +0.000 A 
BRANCH   4  12
ATOM     10  C   UNL     1       4.785   5.238  17.314  0.00  0.00    +0.000 C 
ATOM     11  O   UNL     1       5.628   6.062  17.656  0.00  0.00    +0.000 OA
ATOM     12  N   UNL     1       3.473   5.163  17.759  0.00  0.00    +0.000 N 
ATOM     13  H   UNL     1       2.953   4.332  17.504  0.00  0.00    +0.000 HD
BRANCH  10  14
ATOM     14  C   UNL     1       5.125   4.157  16.287  0.00  0.00    +0.000 C 
BRANCH  14  15
ATOM     15  O   UNL     1       5.305   4.641  14.961  0.00  0.00    +0.000 OA
BRANCH  15  17
ATOM     16  C   UNL     1       5.999   3.587  12.842  0.00  0.00    +0.000 C 
ATOM     17  C   UNL     1       6.377   4.014  14.249  0.00  0.00    +0.000 C 
ENDBRANCH  15  17
ENDBRANCH  14  15
ENDBRANCH  10  14
ENDBRANCH   4  12
ENDBRANCH   1   7
BRANCH   1  18
ATOM     18  N   UNL     1       0.347  10.422  20.420  0.00  0.00    +0.000 NA
ATOM     19  C   UNL     1      -0.763  10.167  19.468  0.00  0.00    +0.000 C 
ATOM     20  C   UNL     1      -0.977  11.353  18.530  0.00  0.00    +0.000 C 
ATOM     21  C   UNL     1      -1.230  12.646  19.308  0.00  0.00    +0.000 C 
ATOM     22  C   UNL     1      -0.026  12.893  20.223  0.00  0.00    +0.000 C 
ATOM     23  C   UNL     1       0.288  11.717  21.148  0.00  0.00    +0.000 C 
BRANCH  21  24
ATOM     24  C   UNL     1      -2.526  12.572  20.067  0.00  0.00    +0.000 A 
ATOM     25  N   UNL     1      -3.705  12.288  19.551  0.00  0.00    +0.000 NA
ATOM     26  C   UNL     1      -4.616  12.498  20.549  0.00  0.00    +0.000 A 
ATOM     27  C   UNL     1      -6.010  12.387  20.515  0.00  0.00    +0.000 A 
ATOM     28  C   UNL     1      -6.732  12.682  21.675  0.00  0.00    +0.000 A 
ATOM     29  C   UNL     1      -6.077  13.084  22.840  0.00  0.00    +0.000 A 
ATOM     30  C   UNL     1      -4.680  13.196  22.893  0.00  0.00    +0.000 A 
ATOM     31  C   UNL     1      -3.983  12.892  21.722  0.00  0.00    +0.000 A 
ATOM     32  N   UNL     1      -2.647  12.897  21.399  0.00  0.00    +0.000 N 
ATOM     33  H   UNL     1      -1.892  13.144  22.021  0.00  0.00    +0.000 HD
ENDBRANCH  21  24
ENDBRANCH   1  18
TORSDOF 7
ENDMDL
