MODEL 1
REMARK VINA RESULT:      -8.5      0.000      0.000
REMARK  Name = 
REMARK  6 active torsions:
REMARK  status: ('A' for Active; 'I' for Inactive)
REMARK    1  A    between atoms: C_1  and  C_2
REMARK    2  A    between atoms: C_2  and  C_3
REMARK    3  A    between atoms: N_5  and  C_6
REMARK    4  A    between atoms: C_22  and  C_23
REMARK    5  A    between atoms: C_23  and  O_25
REMARK    6  A    between atoms: O_25  and  C_26
REMARK                            x       y       z     vdW  Elec       q    Type
REMARK                         _______ _______ _______ _____ _____    ______ ____
ROOT
ATOM      1  C   UNL     1       2.811   5.694  17.658  0.00  0.00    +0.000 C 
ATOM      2  C   UNL     1       1.923   4.171  17.514  0.00  0.00    +0.000 C 
ATOM      3  N   UNL     1       2.525   2.813  17.990  0.00  0.00    +0.000 NA
ATOM      4  C   UNL     1       1.919   1.919  18.979  0.00  0.00    +0.000 C 
ATOM      5  C   UNL     1       3.932   2.961  18.355  0.00  0.00    +0.000 C 
ATOM      6  C   UNL     1       4.628   2.799  16.897  0.00  0.00    +0.000 C 
ATOM      7  C   UNL     1       5.829   3.586  16.361  0.00  0.00    +0.000 A 
ATOM      8  C   UNL     1       6.725   4.429  17.021  0.00  0.00    +0.000 A 
ATOM      9  N   UNL     1       7.695   4.767  16.108  0.00  0.00    +0.000 N 
ATOM     10  C   UNL     1       7.212   4.617  14.820  0.00  0.00    +0.000 A 
ATOM     11  C   UNL     1       7.710   5.085  13.588  0.00  0.00    +0.000 A 
ATOM     12  C   UNL     1       6.928   4.879  12.451  0.00  0.00    +0.000 A 
ATOM     13  C   UNL     1       5.724   4.186  12.536  0.00  0.00    +0.000 A 
ATOM     14  C   UNL     1       5.283   3.653  13.757  0.00  0.00    +0.000 A 
ATOM     15  C   UNL     1       6.023   3.895  14.939  0.00  0.00    +0.000 A 
ATOM     16  C   UNL     1       6.665   5.016  18.356  0.00  0.00    +0.000 C 
ATOM     17  O   UNL     1       7.570   4.903  19.176  0.00  0.00    +0.000 OA
ATOM     18  C   UNL     1       5.455   5.992  18.610  0.00  0.00    +0.000 C 
ATOM     19  C   UNL     1       4.149   5.278  18.263  0.00  0.00    +0.000 C 
ATOM     20  C   UNL     1       3.875   4.205  19.305  0.00  0.00    +0.000 C 
ATOM     21  H   UNL     1       8.519   5.297  16.330  0.00  0.00    +0.000 HD
ENDROOT
BRANCH   1  23
ATOM     22  C   UNL     1       2.358   8.351  17.711  0.00  0.00    +0.000 C 
ATOM     23  C   UNL     1       2.527   7.029  18.419  0.00  0.00    +0.000 C 
ENDBRANCH   1  23
BRANCH  20  24
ATOM     24  C   UNL     1       2.461   4.567  20.168  0.00  0.00    +0.000 C 
ATOM     25  O   UNL     1       1.385   4.856  19.662  0.00  0.00    +0.000 OA
BRANCH  24  26
ATOM     26  O   UNL     1       2.484   4.485  21.532  0.00  0.00    +0.000 OA
ATOM     27  C   UNL     1       1.925   3.185  21.936  0.00  0.00    +0.000 C 
ENDBRANCH  24  26
ENDBRANCH  20  24
TORSDOF 3
ENDMDL
MODEL 2
REMARK VINA RESULT:      -8.4      1.034      1.164
REMARK  Name = 
REMARK  6 active torsions:
REMARK  status: ('A' for Active; 'I' for Inactive)
REMARK    1  A    between atoms: C_1  and  C_2
REMARK    2  A    between atoms: C_2  and  C_3
REMARK    3  A    between atoms: N_5  and  C_6
REMARK    4  A    between atoms: C_22  and  C_23
REMARK    5  A    between atoms: C_23  and  O_25
REMARK    6  A    between atoms: O_25  and  C_26
REMARK                            x       y       z     vdW  Elec       q    Type
REMARK                         _______ _______ _______ _____ _____    ______ ____
ROOT
ATOM      1  C   UNL     1       2.706   6.338  17.726  0.00  0.00    +0.000 C 
ATOM      2  C   UNL     1       1.675   4.901  17.722  0.00  0.00    +0.000 C 
ATOM      3  N   UNL     1       2.129   3.555  18.366  0.00  0.00    +0.000 NA
ATOM      4  C   UNL     1       1.416   2.840  19.428  0.00  0.00    +0.000 C 
ATOM      5  C   UNL     1       3.535   3.607  18.758  0.00  0.00    +0.000 C 
ATOM      6  C   UNL     1       4.243   3.214  17.350  0.00  0.00    +0.000 C 
ATOM      7  C   UNL     1       5.527   3.816  16.769  0.00  0.00    +0.000 A 
ATOM      8  C   UNL     1       6.488   4.638  17.360  0.00  0.00    +0.000 A 
ATOM      9  N   UNL     1       7.506   4.775  16.447  0.00  0.00    +0.000 N 
ATOM     10  C   UNL     1       7.038   4.527  15.169  0.00  0.00    +0.000 A 
ATOM     11  C   UNL     1       7.606   4.802  13.910  0.00  0.00    +0.000 A 
ATOM     12  C   UNL     1       6.832   4.544  12.778  0.00  0.00    +0.000 A 
ATOM     13  C   UNL     1       5.564   3.985  12.899  0.00  0.00    +0.000 A 
ATOM     14  C   UNL     1       5.047   3.639  14.157  0.00  0.00    +0.000 A 
ATOM     15  C   UNL     1       5.781   3.941  15.329  0.00  0.00    +0.000 A 
ATOM     16  C   UNL     1       6.458   5.376  18.619  0.00  0.00    +0.000 C 
ATOM     17  O   UNL     1       7.330   5.270  19.475  0.00  0.00    +0.000 OA
ATOM     18  C   UNL     1       5.345   6.487  18.724  0.00  0.00    +0.000 C 
ATOM     19  C   UNL     1       3.983   5.867  18.416  0.00  0.00    +0.000 C 
ATOM     20  C   UNL     1       3.582   4.951  19.561  0.00  0.00    +0.000 C 
ATOM     21  H   UNL     1       8.374   5.246  16.635  0.00  0.00    +0.000 HD
ENDROOT
BRANCH   1  23
ATOM     22  C   UNL     1       1.678   8.829  17.679  0.00  0.00    +0.000 C 
ATOM     23  C   UNL     1       2.540   7.772  18.324  0.00  0.00    +0.000 C 
ENDBRANCH   1  23
BRANCH  20  24
ATOM     24  C   UNL     1       2.193   5.542  20.332  0.00  0.00    +0.000 C 
ATOM     25  O   UNL     1       1.193   4.882  20.580  0.00  0.00    +0.000 OA
BRANCH  24  26
ATOM     26  O   UNL     1       2.182   6.838  20.767  0.00  0.00    +0.000 OA
ATOM     27  C   UNL     1       0.825   7.170  21.229  0.00  0.00    +0.000 C 
ENDBRANCH  24  26
ENDBRANCH  20  24
TORSDOF 3
ENDMDL
MODEL 3
REMARK VINA RESULT:      -7.3      7.737     10.387
REMARK  Name = 
REMARK  6 active torsions:
REMARK  status: ('A' for Active; 'I' for Inactive)
REMARK    1  A    between atoms: C_1  and  C_2
REMARK    2  A    between atoms: C_2  and  C_3
REMARK    3  A    between atoms: N_5  and  C_6
REMARK    4  A    between atoms: C_22  and  C_23
REMARK    5  A    between atoms: C_23  and  O_25
REMARK    6  A    between atoms: O_25  and  C_26
REMARK                            x       y       z     vdW  Elec       q    Type
REMARK                         _______ _______ _______ _____ _____    ______ ____
ROOT
ATOM      1  C   UNL     1       0.257  14.297  19.188  0.00  0.00    +0.000 C 
ATOM      2  C   UNL     1      -0.841  14.554  20.551  0.00  0.00    +0.000 C 
ATOM      3  N   UNL     1      -1.111  13.447  21.617  0.00  0.00    +0.000 NA
ATOM      4  C   UNL     1      -0.890  13.586  23.058  0.00  0.00    +0.000 C 
ATOM      5  C   UNL     1      -0.516  12.175  21.215  0.00  0.00    +0.000 C 
ATOM      6  C   UNL     1      -1.694  11.593  20.260  0.00  0.00    +0.000 C 
ATOM      7  C   UNL     1      -1.513  10.827  18.945  0.00  0.00    +0.000 A 
ATOM      8  C   UNL     1      -0.370  10.263  18.376  0.00  0.00    +0.000 A 
ATOM      9  N   UNL     1      -0.783   9.572  17.262  0.00  0.00    +0.000 N 
ATOM     10  C   UNL     1      -1.993  10.069  16.812  0.00  0.00    +0.000 A 
ATOM     11  C   UNL     1      -2.667   9.889  15.589  0.00  0.00    +0.000 A 
ATOM     12  C   UNL     1      -3.830  10.628  15.373  0.00  0.00    +0.000 A 
ATOM     13  C   UNL     1      -4.328  11.470  16.362  0.00  0.00    +0.000 A 
ATOM     14  C   UNL     1      -3.691  11.573  17.608  0.00  0.00    +0.000 A 
ATOM     15  C   UNL     1      -2.476  10.883  17.838  0.00  0.00    +0.000 A 
ATOM     16  C   UNL     1       1.038  10.429  18.720  0.00  0.00    +0.000 C 
ATOM     17  O   UNL     1       1.785   9.482  18.949  0.00  0.00    +0.000 OA
ATOM     18  C   UNL     1       1.603  11.892  18.569  0.00  0.00    +0.000 C 
ATOM     19  C   UNL     1       0.724  12.856  19.365  0.00  0.00    +0.000 C 
ATOM     20  C   UNL     1       0.941  12.617  20.851  0.00  0.00    +0.000 C 
ATOM     21  H   UNL     1      -0.182   8.993  16.702  0.00  0.00    +0.000 HD
ENDROOT
BRANCH   1  23
ATOM     22  C   UNL     1       1.719  16.499  18.660  0.00  0.00    +0.000 C 
ATOM     23  C   UNL     1       1.575  14.999  18.730  0.00  0.00    +0.000 C 
ENDBRANCH   1  23
BRANCH  20  24
ATOM     24  C   UNL     1       1.633  13.985  21.575  0.00  0.00    +0.000 C 
ATOM     25  O   UNL     1       1.011  14.850  22.177  0.00  0.00    +0.000 OA
BRANCH  24  26
ATOM     26  O   UNL     1       2.992  14.131  21.543  0.00  0.00    +0.000 OA
ATOM     27  C   UNL     1       3.331  15.484  22.014  0.00  0.00    +0.000 C 
ENDBRANCH  24  26
ENDBRANCH  20  24
TORSDOF 3
ENDMDL
MODEL 4
REMARK VINA RESULT:      -7.3      7.331     11.720
REMARK  Name = 
REMARK  6 active torsions:
REMARK  status: ('A' for Active; 'I' for Inactive)
REMARK    1  A    between atoms: C_1  and  C_2
REMARK    2  A    between atoms: C_2  and  C_3
REMARK    3  A    between atoms: N_5  and  C_6
REMARK    4  A    between atoms: C_22  and  C_23
REMARK    5  A    between atoms: C_23  and  O_25
REMARK    6  A    between atoms: O_25  and  C_26
REMARK                            x       y       z     vdW  Elec       q    Type
REMARK                         _______ _______ _______ _____ _____    ______ ____
ROOT
ATOM      1  C   UNL     1      -1.066  11.568  18.724  0.00  0.00    +0.000 C 
ATOM      2  C   UNL     1      -0.177  13.041  18.311  0.00  0.00    +0.000 C 
ATOM      3  N   UNL     1       0.930  13.627  19.241  0.00  0.00    +0.000 NA
ATOM      4  C   UNL     1       2.320  13.873  18.852  0.00  0.00    +0.000 C 
ATOM      5  C   UNL     1       0.963  12.929  20.524  0.00  0.00    +0.000 C 
ATOM      6  C   UNL     1      -0.192  13.741  21.327  0.00  0.00    +0.000 C 
ATOM      7  C   UNL     1      -1.229  13.151  22.287  0.00  0.00    +0.000 A 
ATOM      8  C   UNL     1      -1.307  11.883  22.867  0.00  0.00    +0.000 A 
ATOM      9  N   UNL     1      -2.353  11.919  23.757  0.00  0.00    +0.000 N 
ATOM     10  C   UNL     1      -3.236  12.929  23.416  0.00  0.00    +0.000 A 
ATOM     11  C   UNL     1      -4.556  13.181  23.837  0.00  0.00    +0.000 A 
ATOM     12  C   UNL     1      -5.249  14.221  23.217  0.00  0.00    +0.000 A 
ATOM     13  C   UNL     1      -4.627  15.010  22.254  0.00  0.00    +0.000 A 
ATOM     14  C   UNL     1      -3.284  14.800  21.907  0.00  0.00    +0.000 A 
ATOM     15  C   UNL     1      -2.571  13.716  22.474  0.00  0.00    +0.000 A 
ATOM     16  C   UNL     1      -0.579  10.656  22.561  0.00  0.00    +0.000 C 
ATOM     17  O   UNL     1       0.033  10.014  23.409  0.00  0.00    +0.000 OA
ATOM     18  C   UNL     1      -0.803  10.081  21.112  0.00  0.00    +0.000 C 
ATOM     19  C   UNL     1      -0.501  11.172  20.084  0.00  0.00    +0.000 C 
ATOM     20  C   UNL     1       0.996  11.433  20.060  0.00  0.00    +0.000 C 
ATOM     21  H   UNL     1      -2.589  11.169  24.383  0.00  0.00    +0.000 HD
ENDROOT
BRANCH   1  23
ATOM     22  C   UNL     1      -2.146   9.936  16.870  0.00  0.00    +0.000 C 
ATOM     23  C   UNL     1      -1.210  10.177  18.028  0.00  0.00    +0.000 C 
ENDBRANCH   1  23
BRANCH  20  24
ATOM     24  C   UNL     1       1.645  11.014  18.551  0.00  0.00    +0.000 C 
ATOM     25  O   UNL     1       2.496  11.656  17.950  0.00  0.00    +0.000 OA
BRANCH  24  26
ATOM     26  O   UNL     1       1.243   9.847  17.963  0.00  0.00    +0.000 OA
ATOM     27  C   UNL     1       2.398   8.939  17.878  0.00  0.00    +0.000 C 
ENDBRANCH  24  26
ENDBRANCH  20  24
TORSDOF 3
ENDMDL
MODEL 5
REMARK VINA RESULT:      -6.8      9.497     11.630
REMARK  Name = 
REMARK  6 active torsions:
REMARK  status: ('A' for Active; 'I' for Inactive)
REMARK    1  A    between atoms: C_1  and  C_2
REMARK    2  A    between atoms: C_2  and  C_3
REMARK    3  A    between atoms: N_5  and  C_6
REMARK    4  A    between atoms: C_22  and  C_23
REMARK    5  A    between atoms: C_23  and  O_25
REMARK    6  A    between atoms: O_25  and  C_26
REMARK                            x       y       z     vdW  Elec       q    Type
REMARK                         _______ _______ _______ _____ _____    ______ ____
ROOT
ATOM      1  C   UNL     1      -1.050  12.421  22.733  0.00  0.00    +0.000 C 
ATOM      2  C   UNL     1      -1.571  13.993  23.356  0.00  0.00    +0.000 C 
ATOM      3  N   UNL     1      -2.386  15.000  22.486  0.00  0.00    +0.000 NA
ATOM      4  C   UNL     1      -3.700  15.546  22.830  0.00  0.00    +0.000 C 
ATOM      5  C   UNL     1      -2.461  14.553  21.097  0.00  0.00    +0.000 C 
ATOM      6  C   UNL     1      -1.058  15.141  20.527  0.00  0.00    +0.000 C 
ATOM      7  C   UNL     1      -0.111  14.455  19.538  0.00  0.00    +0.000 A 
ATOM      8  C   UNL     1      -0.299  13.325  18.740  0.00  0.00    +0.000 A 
ATOM      9  N   UNL     1       0.810  13.220  17.936  0.00  0.00    +0.000 N 
ATOM     10  C   UNL     1       1.881  13.884  18.508  0.00  0.00    +0.000 A 
ATOM     11  C   UNL     1       3.258  13.834  18.220  0.00  0.00    +0.000 A 
ATOM     12  C   UNL     1       4.124  14.533  19.061  0.00  0.00    +0.000 A 
ATOM     13  C   UNL     1       3.627  15.295  20.114  0.00  0.00    +0.000 A 
ATOM     14  C   UNL     1       2.245  15.403  20.336  0.00  0.00    +0.000 A 
ATOM     15  C   UNL     1       1.343  14.658  19.538  0.00  0.00    +0.000 A 
ATOM     16  C   UNL     1      -1.345  12.308  18.772  0.00  0.00    +0.000 C 
ATOM     17  O   UNL     1      -2.007  12.002  17.785  0.00  0.00    +0.000 OA
ATOM     18  C   UNL     1      -1.431  11.468  20.101  0.00  0.00    +0.000 C 
ATOM     19  C   UNL     1      -1.550  12.418  21.292  0.00  0.00    +0.000 C 
ATOM     20  C   UNL     1      -2.925  13.068  21.275  0.00  0.00    +0.000 C 
ATOM     21  H   UNL     1       0.911  12.545  17.198  0.00  0.00    +0.000 HD
ENDROOT
BRANCH   1  23
ATOM     22  C   UNL     1      -0.294   9.865  23.133  0.00  0.00    +0.000 C 
ATOM     23  C   UNL     1      -1.343  10.950  23.168  0.00  0.00    +0.000 C 
ENDBRANCH   1  23
BRANCH  20  24
ATOM     24  C   UNL     1      -3.816  12.602  22.640  0.00  0.00    +0.000 C 
ATOM     25  O   UNL     1      -3.372  12.531  23.777  0.00  0.00    +0.000 OA
BRANCH  24  26
ATOM     26  O   UNL     1      -5.148  12.329  22.494  0.00  0.00    +0.000 OA
ATOM     27  C   UNL     1      -5.862  12.821  23.684  0.00  0.00    +0.000 C 
ENDBRANCH  24  26
ENDBRANCH  20  24
TORSDOF 3
ENDMDL
MODEL 6
REMARK VINA RESULT:      -6.7     10.901     13.831
REMARK  Name = 
REMARK  6 active torsions:
REMARK  status: ('A' for Active; 'I' for Inactive)
REMARK    1  A    between atoms: C_1  and  C_2
REMARK    2  A    between atoms: C_2  and  C_3
REMARK    3  A    between atoms: N_5  and  C_6
REMARK    4  A    between atoms: C_22  and  C_23
REMARK    5  A    between atoms: C_23  and  O_25
REMARK    6  A    between atoms: O_25  and  C_26
REMARK                            x       y       z     vdW  Elec       q    Type
REMARK                         _______ _______ _______ _____ _____    ______ ____
ROOT
ATOM      1  C   UNL     1      -1.703  12.446  22.069  0.00  0.00    +0.000 C 
ATOM      2  C   UNL     1      -1.271  13.794  21.009  0.00  0.00    +0.000 C 
ATOM      3  N   UNL     1      -2.052  15.145  21.027  0.00  0.00    +0.000 NA
ATOM      4  C   UNL     1      -1.464  16.461  21.283  0.00  0.00    +0.000 C 
ATOM      5  C   UNL     1      -3.253  15.046  21.854  0.00  0.00    +0.000 C 
ATOM      6  C   UNL     1      -4.294  14.416  20.779  0.00  0.00    +0.000 C 
ATOM      7  C   UNL     1      -5.361  13.350  21.051  0.00  0.00    +0.000 A 
ATOM      8  C   UNL     1      -5.843  12.841  22.258  0.00  0.00    +0.000 A 
ATOM      9  N   UNL     1      -6.891  12.009  21.946  0.00  0.00    +0.000 N 
ATOM     10  C   UNL     1      -6.779  11.570  20.638  0.00  0.00    +0.000 A 
ATOM     11  C   UNL     1      -7.428  10.521  19.959  0.00  0.00    +0.000 A 
ATOM     12  C   UNL     1      -7.013  10.234  18.658  0.00  0.00    +0.000 A 
ATOM     13  C   UNL     1      -6.028  11.002  18.043  0.00  0.00    +0.000 A 
ATOM     14  C   UNL     1      -5.452  12.098  18.704  0.00  0.00    +0.000 A 
ATOM     15  C   UNL     1      -5.808  12.379  20.046  0.00  0.00    +0.000 A 
ATOM     16  C   UNL     1      -5.326  12.976  23.616  0.00  0.00    +0.000 C 
ATOM     17  O   UNL     1      -6.009  13.375  24.554  0.00  0.00    +0.000 OA
ATOM     18  C   UNL     1      -3.891  12.371  23.856  0.00  0.00    +0.000 C 
ATOM     19  C   UNL     1      -2.918  12.961  22.835  0.00  0.00    +0.000 C 
ATOM     20  C   UNL     1      -2.672  14.424  23.168  0.00  0.00    +0.000 C 
ATOM     21  H   UNL     1      -7.485  11.568  22.626  0.00  0.00    +0.000 HD
ENDROOT
BRANCH   1  23
ATOM     22  C   UNL     1      -0.739  10.181  23.167  0.00  0.00    +0.000 C 
ATOM     23  C   UNL     1      -0.932  11.677  23.189  0.00  0.00    +0.000 C 
ENDBRANCH   1  23
BRANCH  20  24
ATOM     24  C   UNL     1      -1.049  14.668  23.593  0.00  0.00    +0.000 C 
ATOM     25  O   UNL     1      -0.105  14.615  22.817  0.00  0.00    +0.000 OA
BRANCH  24  26
ATOM     26  O   UNL     1      -0.750  15.004  24.885  0.00  0.00    +0.000 OA
ATOM     27  C   UNL     1      -0.438  16.441  24.938  0.00  0.00    +0.000 C 
ENDBRANCH  24  26
ENDBRANCH  20  24
TORSDOF 3
ENDMDL
MODEL 7
REMARK VINA RESULT:      -6.6      9.127     13.073
REMARK  Name = 
REMARK  6 active torsions:
REMARK  status: ('A' for Active; 'I' for Inactive)
REMARK    1  A    between atoms: C_1  and  C_2
REMARK    2  A    between atoms: C_2  and  C_3
REMARK    3  A    between atoms: N_5  and  C_6
REMARK    4  A    between atoms: C_22  and  C_23
REMARK    5  A    between atoms: C_23  and  O_25
REMARK    6  A    between atoms: O_25  and  C_26
REMARK                            x       y       z     vdW  Elec       q    Type
REMARK                         _______ _______ _______ _____ _____    ______ ____
ROOT
ATOM      1  C   UNL     1      -1.189  13.469  19.519  0.00  0.00    +0.000 C 
ATOM      2  C   UNL     1      -0.496  15.065  19.836  0.00  0.00    +0.000 C 
ATOM      3  N   UNL     1       0.307  15.376  21.137  0.00  0.00    +0.000 NA
ATOM      4  C   UNL     1       1.685  15.869  21.184  0.00  0.00    +0.000 C 
ATOM      5  C   UNL     1       0.218  14.269  22.086  0.00  0.00    +0.000 C 
ATOM      6  C   UNL     1      -1.184  14.631  22.822  0.00  0.00    +0.000 C 
ATOM      7  C   UNL     1      -2.269  13.644  23.265  0.00  0.00    +0.000 A 
ATOM      8  C   UNL     1      -2.242  12.251  23.357  0.00  0.00    +0.000 A 
ATOM      9  N   UNL     1      -3.427  11.871  23.940  0.00  0.00    +0.000 N 
ATOM     10  C   UNL     1      -4.386  12.851  23.759  0.00  0.00    +0.000 A 
ATOM     11  C   UNL     1      -5.784  12.815  23.922  0.00  0.00    +0.000 A 
ATOM     12  C   UNL     1      -6.513  13.942  23.538  0.00  0.00    +0.000 A 
ATOM     13  C   UNL     1      -5.863  15.077  23.064  0.00  0.00    +0.000 A 
ATOM     14  C   UNL     1      -4.463  15.127  22.988  0.00  0.00    +0.000 A 
ATOM     15  C   UNL     1      -3.697  13.981  23.312  0.00  0.00    +0.000 A 
ATOM     16  C   UNL     1      -1.277  11.287  22.839  0.00  0.00    +0.000 C 
ATOM     17  O   UNL     1      -0.735  10.441  23.544  0.00  0.00    +0.000 OA
ATOM     18  C   UNL     1      -1.130  11.254  21.271  0.00  0.00    +0.000 C 
ATOM     19  C   UNL     1      -0.828  12.663  20.763  0.00  0.00    +0.000 C 
ATOM     20  C   UNL     1       0.583  13.050  21.174  0.00  0.00    +0.000 C 
ATOM     21  H   UNL     1      -3.647  10.928  24.210  0.00  0.00    +0.000 HD
ENDROOT
BRANCH   1  23
ATOM     22  C   UNL     1      -2.109  11.711  17.694  0.00  0.00    +0.000 C 
ATOM     23  C   UNL     1      -0.969  12.414  18.388  0.00  0.00    +0.000 C 
ENDBRANCH   1  23
BRANCH  20  24
ATOM     24  C   UNL     1       1.561  13.261  19.805  0.00  0.00    +0.000 C 
ATOM     25  O   UNL     1       2.050  14.324  19.449  0.00  0.00    +0.000 OA
BRANCH  24  26
ATOM     26  O   UNL     1       1.887  12.166  19.054  0.00  0.00    +0.000 OA
ATOM     27  C   UNL     1       2.784  12.590  17.967  0.00  0.00    +0.000 C 
ENDBRANCH  24  26
ENDBRANCH  20  24
TORSDOF 3
ENDMDL
MODEL 8
REMARK VINA RESULT:      -6.6      8.958     12.663
REMARK  Name = 
REMARK  6 active torsions:
REMARK  status: ('A' for Active; 'I' for Inactive)
REMARK    1  A    between atoms: C_1  and  C_2
REMARK    2  A    between atoms: C_2  and  C_3
REMARK    3  A    between atoms: N_5  and  C_6
REMARK    4  A    between atoms: C_22  and  C_23
REMARK    5  A    between atoms: C_23  and  O_25
REMARK    6  A    between atoms: O_25  and  C_26
REMARK                            x       y       z     vdW  Elec       q    Type
REMARK                         _______ _______ _______ _____ _____    ______ ____
ROOT
ATOM      1  C   UNL     1      -0.848  11.222  20.646  0.00  0.00    +0.000 C 
ATOM      2  C   UNL     1      -0.487  12.341  19.325  0.00  0.00    +0.000 C 
ATOM      3  N   UNL     1      -0.796  13.867  19.425  0.00  0.00    +0.000 NA
ATOM      4  C   UNL     1       0.186  14.943  19.274  0.00  0.00    +0.000 C 
ATOM      5  C   UNL     1      -1.577  14.168  20.622  0.00  0.00    +0.000 C 
ATOM      6  C   UNL     1      -3.075  13.863  20.076  0.00  0.00    +0.000 C 
ATOM      7  C   UNL     1      -4.214  13.187  20.848  0.00  0.00    +0.000 A 
ATOM      8  C   UNL     1      -4.331  12.884  22.206  0.00  0.00    +0.000 A 
ATOM      9  N   UNL     1      -5.606  12.409  22.396  0.00  0.00    +0.000 N 
ATOM     10  C   UNL     1      -6.118  11.923  21.206  0.00  0.00    +0.000 A 
ATOM     11  C   UNL     1      -7.237  11.109  20.948  0.00  0.00    +0.000 A 
ATOM     12  C   UNL     1      -7.436  10.673  19.638  0.00  0.00    +0.000 A 
ATOM     13  C   UNL     1      -6.581  11.082  18.619  0.00  0.00    +0.000 A 
ATOM     14  C   UNL     1      -5.520  11.962  18.878  0.00  0.00    +0.000 A 
ATOM     15  C   UNL     1      -5.255  12.375  20.206  0.00  0.00    +0.000 A 
ATOM     16  C   UNL     1      -3.328  12.888  23.266  0.00  0.00    +0.000 C 
ATOM     17  O   UNL     1      -3.472  13.505  24.317  0.00  0.00    +0.000 OA
ATOM     18  C   UNL     1      -2.136  11.876  23.074  0.00  0.00    +0.000 C 
ATOM     19  C   UNL     1      -1.493  12.108  21.707  0.00  0.00    +0.000 C 
ATOM     20  C   UNL     1      -0.745  13.431  21.726  0.00  0.00    +0.000 C 
ATOM     21  H   UNL     1      -6.000  12.193  23.295  0.00  0.00    +0.000 HD
ENDROOT
BRANCH   1  23
ATOM     22  C   UNL     1      -0.254   8.812  21.698  0.00  0.00    +0.000 C 
ATOM     23  C   UNL     1       0.040  10.282  21.523  0.00  0.00    +0.000 C 
ENDBRANCH   1  23
BRANCH  20  24
ATOM     24  C   UNL     1       0.918  13.172  21.522  0.00  0.00    +0.000 C 
ATOM     25  O   UNL     1       1.414  12.196  20.976  0.00  0.00    +0.000 OA
BRANCH  24  26
ATOM     26  O   UNL     1       1.791  14.136  21.943  0.00  0.00    +0.000 OA
ATOM     27  C   UNL     1       3.050  13.991  21.195  0.00  0.00    +0.000 C 
ENDBRANCH  24  26
ENDBRANCH  20  24
TORSDOF 3
ENDMDL
MODEL 9
REMARK VINA RESULT:      -6.6      9.308     10.909
REMARK  Name = 
REMARK  6 active torsions:
REMARK  status: ('A' for Active; 'I' for Inactive)
REMARK    1  A    between atoms: C_1  and  C_2
REMARK    2  A    between atoms: C_2  and  C_3
REMARK    3  A    between atoms: N_5  and  C_6
REMARK    4  A    between atoms: C_22  and  C_23
REMARK    5  A    between atoms: C_23  and  O_25
REMARK    6  A    between atoms: O_25  and  C_26
REMARK                            x       y       z     vdW  Elec       q    Type
REMARK                         _______ _______ _______ _____ _____    ______ ____
ROOT
ATOM      1  C   UNL     1       5.773  13.448  22.548  0.00  0.00    +0.000 C 
ATOM      2  C   UNL     1       5.815  12.008  23.574  0.00  0.00    +0.000 C 
ATOM      3  N   UNL     1       6.987  11.732  24.566  0.00  0.00    +0.000 NA
ATOM      4  C   UNL     1       6.845  11.536  26.011  0.00  0.00    +0.000 C 
ATOM      5  C   UNL     1       8.077  12.685  24.370  0.00  0.00    +0.000 C 
ATOM      6  C   UNL     1       8.883  11.959  23.161  0.00  0.00    +0.000 C 
ATOM      7  C   UNL     1       9.546  12.642  21.961  0.00  0.00    +0.000 A 
ATOM      8  C   UNL     1       9.817  13.991  21.724  0.00  0.00    +0.000 A 
ATOM      9  N   UNL     1      10.549  14.049  20.563  0.00  0.00    +0.000 N 
ATOM     10  C   UNL     1      10.328  12.915  19.801  0.00  0.00    +0.000 A 
ATOM     11  C   UNL     1      10.620  12.640  18.451  0.00  0.00    +0.000 A 
ATOM     12  C   UNL     1      10.160  11.435  17.920  0.00  0.00    +0.000 A 
ATOM     13  C   UNL     1       9.485  10.519  18.722  0.00  0.00    +0.000 A 
ATOM     14  C   UNL     1       9.277  10.772  20.086  0.00  0.00    +0.000 A 
ATOM     15  C   UNL     1       9.678  12.011  20.642  0.00  0.00    +0.000 A 
ATOM     16  C   UNL     1       9.344  15.187  22.415  0.00  0.00    +0.000 C 
ATOM     17  O   UNL     1      10.102  16.045  22.857  0.00  0.00    +0.000 OA
ATOM     18  C   UNL     1       7.787  15.422  22.371  0.00  0.00    +0.000 C 
ATOM     19  C   UNL     1       7.074  14.171  22.884  0.00  0.00    +0.000 C 
ATOM     20  C   UNL     1       7.303  14.046  24.382  0.00  0.00    +0.000 C 
ATOM     21  H   UNL     1      10.958  14.890  20.194  0.00  0.00    +0.000 HD
ENDROOT
BRANCH   1  23
ATOM     22  C   UNL     1       4.192  15.087  21.106  0.00  0.00    +0.000 C 
ATOM     23  C   UNL     1       4.775  14.643  22.425  0.00  0.00    +0.000 C 
ENDBRANCH   1  23
BRANCH  20  24
ATOM     24  C   UNL     1       5.836  14.195  25.218  0.00  0.00    +0.000 C 
ATOM     25  O   UNL     1       5.114  13.261  25.542  0.00  0.00    +0.000 OA
BRANCH  24  26
ATOM     26  O   UNL     1       5.430  15.438  25.618  0.00  0.00    +0.000 OA
ATOM     27  C   UNL     1       4.913  15.344  26.994  0.00  0.00    +0.000 C 
ENDBRANCH  24  26
ENDBRANCH  20  24
TORSDOF 3
ENDMDL
