MODEL 1
REMARK VINA RESULT:      -6.6      0.000      0.000
REMARK  Name = 
REMARK  3 active torsions:
REMARK  status: ('A' for Active; 'I' for Inactive)
REMARK    1  A    between atoms: C_1  and  C_2
REMARK    2  A    between atoms: C_7  and  N_8
REMARK    3  A    between atoms: N_13  and  C_14
REMARK                            x       y       z     vdW  Elec       q    Type
REMARK                         _______ _______ _______ _____ _____    ______ ____
ROOT
ATOM      1  N   UNL     1       8.969  13.547  20.431  0.00  0.00    +0.000 N 
ATOM      2  C   UNL     1       8.280  14.747  20.676  0.00  0.00    +0.000 A 
ATOM      3  N   UNL     1       8.475  15.829  19.832  0.00  0.00    +0.000 N 
ATOM      4  C   UNL     1       8.130  15.782  18.403  0.00  0.00    +0.000 C 
ATOM      5  C   UNL     1       9.182  16.569  17.591  0.00  0.00    +0.000 C 
ATOM      6  N   UNL     1       9.358  17.964  18.056  0.00  0.00    +0.000 NA
ATOM      7  C   UNL     1      10.498  18.574  17.365  0.00  0.00    +0.000 C 
ATOM      8  C   UNL     1       9.564  18.004  19.526  0.00  0.00    +0.000 C 
ATOM      9  C   UNL     1       8.500  17.209  20.330  0.00  0.00    +0.000 C 
ATOM     10  N   UNL     1       7.464  14.867  21.684  0.00  0.00    +0.000 NA
ATOM     11  C   UNL     1       7.239  13.779  22.553  0.00  0.00    +0.000 A 
ATOM     12  C   UNL     1       6.327  13.868  23.619  0.00  0.00    +0.000 A 
ATOM     13 CL   UNL     1       5.375  15.290  23.870  0.00  0.00    +0.000 Cl
ATOM     14  C   UNL     1       6.154  12.807  24.524  0.00  0.00    +0.000 A 
ATOM     15  C   UNL     1       6.887  11.631  24.376  0.00  0.00    +0.000 A 
ATOM     16  C   UNL     1       7.771  11.515  23.310  0.00  0.00    +0.000 A 
ATOM     17  C   UNL     1       7.932  12.580  22.411  0.00  0.00    +0.000 A 
ATOM     18  C   UNL     1       8.879  12.457  21.299  0.00  0.00    +0.000 A 
ATOM     19  O   UNL     1       9.558  11.430  21.238  0.00  0.00    +0.000 OA
ENDROOT
BRANCH   1  26
ATOM     20  C   UNL     1       8.537  12.287  17.779  0.00  0.00    +0.000 C 
ATOM     21  C   UNL     1       9.866  12.828  18.235  0.00  0.00    +0.000 A 
ATOM     22  C   UNL     1      10.957  12.774  17.351  0.00  0.00    +0.000 A 
ATOM     23  C   UNL     1      12.179  13.363  17.680  0.00  0.00    +0.000 A 
ATOM     24  C   UNL     1      12.331  14.023  18.895  0.00  0.00    +0.000 A 
ATOM     25  C   UNL     1      11.263  14.080  19.789  0.00  0.00    +0.000 A 
ATOM     26  C   UNL     1      10.029  13.486  19.471  0.00  0.00    +0.000 A 
ENDBRANCH   1  26
TORSDOF 1
ENDMDL
MODEL 2
REMARK VINA RESULT:      -6.5     11.972     14.542
REMARK  Name = 
REMARK  3 active torsions:
REMARK  status: ('A' for Active; 'I' for Inactive)
REMARK    1  A    between atoms: C_1  and  C_2
REMARK    2  A    between atoms: C_7  and  N_8
REMARK    3  A    between atoms: N_13  and  C_14
REMARK                            x       y       z     vdW  Elec       q    Type
REMARK                         _______ _______ _______ _____ _____    ______ ____
ROOT
ATOM      1  N   UNL     1      -4.927  12.732  19.698  0.00  0.00    +0.000 N 
ATOM      2  C   UNL     1      -3.639  12.558  20.233  0.00  0.00    +0.000 A 
ATOM      3  N   UNL     1      -3.344  13.080  21.483  0.00  0.00    +0.000 N 
ATOM      4  C   UNL     1      -4.041  12.641  22.701  0.00  0.00    +0.000 C 
ATOM      5  C   UNL     1      -4.252  13.849  23.640  0.00  0.00    +0.000 C 
ATOM      6  N   UNL     1      -2.996  14.563  23.967  0.00  0.00    +0.000 NA
ATOM      7  C   UNL     1      -3.305  15.796  24.698  0.00  0.00    +0.000 C 
ATOM      8  C   UNL     1      -2.234  14.874  22.731  0.00  0.00    +0.000 C 
ATOM      9  C   UNL     1      -2.029  13.651  21.796  0.00  0.00    +0.000 C 
ATOM     10  N   UNL     1      -2.713  11.919  19.577  0.00  0.00    +0.000 NA
ATOM     11  C   UNL     1      -2.989  11.369  18.308  0.00  0.00    +0.000 A 
ATOM     12  C   UNL     1      -2.021  10.634  17.601  0.00  0.00    +0.000 A 
ATOM     13 CL   UNL     1      -0.469  10.299  18.289  0.00  0.00    +0.000 Cl
ATOM     14  C   UNL     1      -2.274  10.145  16.309  0.00  0.00    +0.000 A 
ATOM     15  C   UNL     1      -3.506  10.375  15.699  0.00  0.00    +0.000 A 
ATOM     16  C   UNL     1      -4.485  11.075  16.395  0.00  0.00    +0.000 A 
ATOM     17  C   UNL     1      -4.221  11.554  17.687  0.00  0.00    +0.000 A 
ATOM     18  C   UNL     1      -5.252  12.307  18.408  0.00  0.00    +0.000 A 
ATOM     19  O   UNL     1      -6.303  12.549  17.814  0.00  0.00    +0.000 OA
ENDROOT
BRANCH   1  26
ATOM     20  C   UNL     1      -7.249  11.673  21.213  0.00  0.00    +0.000 C 
ATOM     21  C   UNL     1      -7.015  13.140  20.971  0.00  0.00    +0.000 A 
ATOM     22  C   UNL     1      -7.917  14.067  21.520  0.00  0.00    +0.000 A 
ATOM     23  C   UNL     1      -7.684  15.441  21.422  0.00  0.00    +0.000 A 
ATOM     24  C   UNL     1      -6.543  15.912  20.780  0.00  0.00    +0.000 A 
ATOM     25  C   UNL     1      -5.641  15.008  20.222  0.00  0.00    +0.000 A 
ATOM     26  C   UNL     1      -5.867  13.623  20.309  0.00  0.00    +0.000 A 
ENDBRANCH   1  26
TORSDOF 1
ENDMDL
MODEL 3
REMARK VINA RESULT:      -6.4     10.365     13.091
REMARK  Name = 
REMARK  3 active torsions:
REMARK  status: ('A' for Active; 'I' for Inactive)
REMARK    1  A    between atoms: C_1  and  C_2
REMARK    2  A    between atoms: C_7  and  N_8
REMARK    3  A    between atoms: N_13  and  C_14
REMARK                            x       y       z     vdW  Elec       q    Type
REMARK                         _______ _______ _______ _____ _____    ______ ____
ROOT
ATOM      1  N   UNL     1      -2.117  12.576  21.355  0.00  0.00    +0.000 N 
ATOM      2  C   UNL     1      -3.031  12.402  20.301  0.00  0.00    +0.000 A 
ATOM      3  N   UNL     1      -4.282  12.995  20.380  0.00  0.00    +0.000 N 
ATOM      4  C   UNL     1      -4.456  14.453  20.450  0.00  0.00    +0.000 C 
ATOM      5  C   UNL     1      -5.631  14.789  21.394  0.00  0.00    +0.000 C 
ATOM      6  N   UNL     1      -6.895  14.113  21.020  0.00  0.00    +0.000 NA
ATOM      7  C   UNL     1      -7.899  14.330  22.066  0.00  0.00    +0.000 C 
ATOM      8  C   UNL     1      -6.671  12.660  20.813  0.00  0.00    +0.000 C 
ATOM      9  C   UNL     1      -5.487  12.337  19.862  0.00  0.00    +0.000 C 
ATOM     10  N   UNL     1      -2.730  11.690  19.253  0.00  0.00    +0.000 NA
ATOM     11  C   UNL     1      -1.461  11.085  19.142  0.00  0.00    +0.000 A 
ATOM     12  C   UNL     1      -1.094  10.352  18.000  0.00  0.00    +0.000 A 
ATOM     13 CL   UNL     1      -2.152  10.226  16.637  0.00  0.00    +0.000 Cl
ATOM     14  C   UNL     1       0.144   9.693  17.920  0.00  0.00    +0.000 A 
ATOM     15  C   UNL     1       1.045   9.759  18.981  0.00  0.00    +0.000 A 
ATOM     16  C   UNL     1       0.711  10.503  20.106  0.00  0.00    +0.000 A 
ATOM     17  C   UNL     1      -0.527  11.161  20.172  0.00  0.00    +0.000 A 
ATOM     18  C   UNL     1      -0.879  11.929  21.370  0.00  0.00    +0.000 A 
ATOM     19  O   UNL     1      -0.088  11.910  22.314  0.00  0.00    +0.000 OA
ENDROOT
BRANCH   1  26
ATOM     20  C   UNL     1      -1.240  15.312  22.101  0.00  0.00    +0.000 C 
ATOM     21  C   UNL     1      -2.059  14.427  23.002  0.00  0.00    +0.000 A 
ATOM     22  C   UNL     1      -2.469  14.928  24.250  0.00  0.00    +0.000 A 
ATOM     23  C   UNL     1      -3.324  14.193  25.075  0.00  0.00    +0.000 A 
ATOM     24  C   UNL     1      -3.790  12.949  24.664  0.00  0.00    +0.000 A 
ATOM     25  C   UNL     1      -3.389  12.431  23.434  0.00  0.00    +0.000 A 
ATOM     26  C   UNL     1      -2.524  13.159  22.597  0.00  0.00    +0.000 A 
ENDBRANCH   1  26
TORSDOF 1
ENDMDL
MODEL 4
REMARK VINA RESULT:      -6.2     11.752     14.518
REMARK  Name = 
REMARK  3 active torsions:
REMARK  status: ('A' for Active; 'I' for Inactive)
REMARK    1  A    between atoms: C_1  and  C_2
REMARK    2  A    between atoms: C_7  and  N_8
REMARK    3  A    between atoms: N_13  and  C_14
REMARK                            x       y       z     vdW  Elec       q    Type
REMARK                         _______ _______ _______ _____ _____    ______ ____
ROOT
ATOM      1  N   UNL     1      -4.968  12.753  20.794  0.00  0.00    +0.000 N 
ATOM      2  C   UNL     1      -3.579  12.757  21.011  0.00  0.00    +0.000 A 
ATOM      3  N   UNL     1      -3.080  13.226  22.216  0.00  0.00    +0.000 N 
ATOM      4  C   UNL     1      -3.400  12.586  23.500  0.00  0.00    +0.000 C 
ATOM      5  C   UNL     1      -3.559  13.667  24.591  0.00  0.00    +0.000 C 
ATOM      6  N   UNL     1      -2.380  14.556  24.713  0.00  0.00    +0.000 NA
ATOM      7  C   UNL     1      -2.687  15.660  25.626  0.00  0.00    +0.000 C 
ATOM      8  C   UNL     1      -1.983  15.082  23.382  0.00  0.00    +0.000 C 
ATOM      9  C   UNL     1      -1.826  13.985  22.294  0.00  0.00    +0.000 C 
ATOM     10  N   UNL     1      -2.749  12.334  20.100  0.00  0.00    +0.000 NA
ATOM     11  C   UNL     1      -3.231  11.842  18.870  0.00  0.00    +0.000 A 
ATOM     12  C   UNL     1      -2.359  11.336  17.890  0.00  0.00    +0.000 A 
ATOM     13 CL   UNL     1      -0.657  11.215  18.179  0.00  0.00    +0.000 Cl
ATOM     14  C   UNL     1      -2.833  10.909  16.638  0.00  0.00    +0.000 A 
ATOM     15  C   UNL     1      -4.193  10.975  16.343  0.00  0.00    +0.000 A 
ATOM     16  C   UNL     1      -5.074  11.446  17.310  0.00  0.00    +0.000 A 
ATOM     17  C   UNL     1      -4.587  11.864  18.558  0.00  0.00    +0.000 A 
ATOM     18  C   UNL     1      -5.520  12.376  19.567  0.00  0.00    +0.000 A 
ATOM     19  O   UNL     1      -6.705  12.483  19.248  0.00  0.00    +0.000 OA
ENDROOT
BRANCH   1  26
ATOM     20  C   UNL     1      -5.239  15.708  20.727  0.00  0.00    +0.000 C 
ATOM     21  C   UNL     1      -5.947  14.830  21.725  0.00  0.00    +0.000 A 
ATOM     22  C   UNL     1      -6.816  15.429  22.654  0.00  0.00    +0.000 A 
ATOM     23  C   UNL     1      -7.584  14.653  23.525  0.00  0.00    +0.000 A 
ATOM     24  C   UNL     1      -7.502  13.265  23.478  0.00  0.00    +0.000 A 
ATOM     25  C   UNL     1      -6.640  12.652  22.570  0.00  0.00    +0.000 A 
ATOM     26  C   UNL     1      -5.858  13.424  21.691  0.00  0.00    +0.000 A 
ENDBRANCH   1  26
TORSDOF 1
ENDMDL
MODEL 5
REMARK VINA RESULT:      -6.1     11.538     14.087
REMARK  Name = 
REMARK  3 active torsions:
REMARK  status: ('A' for Active; 'I' for Inactive)
REMARK    1  A    between atoms: C_1  and  C_2
REMARK    2  A    between atoms: C_7  and  N_8
REMARK    3  A    between atoms: N_13  and  C_14
REMARK                            x       y       z     vdW  Elec       q    Type
REMARK                         _______ _______ _______ _____ _____    ______ ____
ROOT
ATOM      1  N   UNL     1      -4.367  12.770  20.115  0.00  0.00    +0.000 N 
ATOM      2  C   UNL     1      -3.334  12.859  21.064  0.00  0.00    +0.000 A 
ATOM      3  N   UNL     1      -3.538  13.587  22.226  0.00  0.00    +0.000 N 
ATOM      4  C   UNL     1      -4.572  13.225  23.207  0.00  0.00    +0.000 C 
ATOM      5  C   UNL     1      -5.202  14.507  23.793  0.00  0.00    +0.000 C 
ATOM      6  N   UNL     1      -4.205  15.435  24.379  0.00  0.00    +0.000 NA
ATOM      7  C   UNL     1      -4.858  16.698  24.734  0.00  0.00    +0.000 C 
ATOM      8  C   UNL     1      -3.094  15.678  23.425  0.00  0.00    +0.000 C 
ATOM      9  C   UNL     1      -2.470  14.380  22.844  0.00  0.00    +0.000 C 
ATOM     10  N   UNL     1      -2.185  12.277  20.872  0.00  0.00    +0.000 NA
ATOM     11  C   UNL     1      -1.954  11.522  19.704  0.00  0.00    +0.000 A 
ATOM     12  C   UNL     1      -0.740  10.845  19.496  0.00  0.00    +0.000 A 
ATOM     13 CL   UNL     1       0.501  10.836  20.702  0.00  0.00    +0.000 Cl
ATOM     14  C   UNL     1      -0.485  10.150  18.302  0.00  0.00    +0.000 A 
ATOM     15  C   UNL     1      -1.445  10.113  17.293  0.00  0.00    +0.000 A 
ATOM     16  C   UNL     1      -2.662  10.752  17.493  0.00  0.00    +0.000 A 
ATOM     17  C   UNL     1      -2.906  11.440  18.692  0.00  0.00    +0.000 A 
ATOM     18  C   UNL     1      -4.186  12.127  18.889  0.00  0.00    +0.000 A 
ATOM     19  O   UNL     1      -4.983  12.129  17.950  0.00  0.00    +0.000 OA
ENDROOT
BRANCH   1  26
ATOM     20  C   UNL     1      -6.985  11.588  20.863  0.00  0.00    +0.000 C 
ATOM     21  C   UNL     1      -6.802  13.037  20.497  0.00  0.00    +0.000 A 
ATOM     22  C   UNL     1      -7.916  13.892  20.548  0.00  0.00    +0.000 A 
ATOM     23  C   UNL     1      -7.779  15.265  20.330  0.00  0.00    +0.000 A 
ATOM     24  C   UNL     1      -6.525  15.808  20.065  0.00  0.00    +0.000 A 
ATOM     25  C   UNL     1      -5.410  14.975  20.003  0.00  0.00    +0.000 A 
ATOM     26  C   UNL     1      -5.536  13.590  20.215  0.00  0.00    +0.000 A 
ENDBRANCH   1  26
TORSDOF 1
ENDMDL
MODEL 6
REMARK VINA RESULT:      -6.0     10.879     13.522
REMARK  Name = 
REMARK  3 active torsions:
REMARK  status: ('A' for Active; 'I' for Inactive)
REMARK    1  A    between atoms: C_1  and  C_2
REMARK    2  A    between atoms: C_7  and  N_8
REMARK    3  A    between atoms: N_13  and  C_14
REMARK                            x       y       z     vdW  Elec       q    Type
REMARK                         _______ _______ _______ _____ _____    ______ ____
ROOT
ATOM      1  N   UNL     1      -2.678  12.992  21.158  0.00  0.00    +0.000 N 
ATOM      2  C   UNL     1      -3.807  12.974  20.320  0.00  0.00    +0.000 A 
ATOM      3  N   UNL     1      -4.929  13.708  20.673  0.00  0.00    +0.000 N 
ATOM      4  C   UNL     1      -4.900  15.172  20.803  0.00  0.00    +0.000 C 
ATOM      5  C   UNL     1      -5.799  15.605  21.982  0.00  0.00    +0.000 C 
ATOM      6  N   UNL     1      -7.189  15.102  21.874  0.00  0.00    +0.000 NA
ATOM      7  C   UNL     1      -7.916  15.392  23.114  0.00  0.00    +0.000 C 
ATOM      8  C   UNL     1      -7.197  13.643  21.601  0.00  0.00    +0.000 C 
ATOM      9  C   UNL     1      -6.289  13.221  20.414  0.00  0.00    +0.000 C 
ATOM     10  N   UNL     1      -3.824  12.277  19.220  0.00  0.00    +0.000 NA
ATOM     11  C   UNL     1      -2.693  11.530  18.832  0.00  0.00    +0.000 A 
ATOM     12  C   UNL     1      -2.668  10.808  17.626  0.00  0.00    +0.000 A 
ATOM     13 CL   UNL     1      -3.996  10.867  16.518  0.00  0.00    +0.000 Cl
ATOM     14  C   UNL     1      -1.568  10.009  17.273  0.00  0.00    +0.000 A 
ATOM     15  C   UNL     1      -0.464   9.922  18.119  0.00  0.00    +0.000 A 
ATOM     16  C   UNL     1      -0.458  10.652  19.301  0.00  0.00    +0.000 A 
ATOM     17  C   UNL     1      -1.562  11.449  19.640  0.00  0.00    +0.000 A 
ATOM     18  C   UNL     1      -1.556  12.202  20.898  0.00  0.00    +0.000 A 
ATOM     19  O   UNL     1      -0.594  12.049  21.651  0.00  0.00    +0.000 OA
ENDROOT
BRANCH   1  26
ATOM     20  C   UNL     1      -1.346  15.580  21.740  0.00  0.00    +0.000 C 
ATOM     21  C   UNL     1      -2.053  14.756  22.783  0.00  0.00    +0.000 A 
ATOM     22  C   UNL     1      -2.125  15.249  24.097  0.00  0.00    +0.000 A 
ATOM     23  C   UNL     1      -2.865  14.582  25.076  0.00  0.00    +0.000 A 
ATOM     24  C   UNL     1      -3.552  13.414  24.756  0.00  0.00    +0.000 A 
ATOM     25  C   UNL     1      -3.486  12.905  23.460  0.00  0.00    +0.000 A 
ATOM     26  C   UNL     1      -2.739  13.566  22.468  0.00  0.00    +0.000 A 
ENDBRANCH   1  26
TORSDOF 1
ENDMDL
MODEL 7
REMARK VINA RESULT:      -6.0     10.369     13.092
REMARK  Name = 
REMARK  3 active torsions:
REMARK  status: ('A' for Active; 'I' for Inactive)
REMARK    1  A    between atoms: C_1  and  C_2
REMARK    2  A    between atoms: C_7  and  N_8
REMARK    3  A    between atoms: N_13  and  C_14
REMARK                            x       y       z     vdW  Elec       q    Type
REMARK                         _______ _______ _______ _____ _____    ______ ____
ROOT
ATOM      1  N   UNL     1      -2.084  13.272  21.281  0.00  0.00    +0.000 N 
ATOM      2  C   UNL     1      -3.111  12.775  20.460  0.00  0.00    +0.000 A 
ATOM      3  N   UNL     1      -4.407  13.235  20.637  0.00  0.00    +0.000 N 
ATOM      4  C   UNL     1      -4.772  14.647  20.445  0.00  0.00    +0.000 C 
ATOM      5  C   UNL     1      -5.828  15.055  21.495  0.00  0.00    +0.000 C 
ATOM      6  N   UNL     1      -7.027  14.184  21.490  0.00  0.00    +0.000 NA
ATOM      7  C   UNL     1      -7.884  14.518  22.631  0.00  0.00    +0.000 C 
ATOM      8  C   UNL     1      -6.634  12.754  21.541  0.00  0.00    +0.000 C 
ATOM      9  C   UNL     1      -5.571  12.356  20.480  0.00  0.00    +0.000 C 
ATOM     10  N   UNL     1      -2.872  11.887  19.539  0.00  0.00    +0.000 NA
ATOM     11  C   UNL     1      -1.562  11.410  19.330  0.00  0.00    +0.000 A 
ATOM     12  C   UNL     1      -1.270  10.487  18.310  0.00  0.00    +0.000 A 
ATOM     13 CL   UNL     1      -2.491   9.953  17.207  0.00  0.00    +0.000 Cl
ATOM     14  C   UNL     1       0.022   9.961  18.147  0.00  0.00    +0.000 A 
ATOM     15  C   UNL     1       1.053  10.353  18.999  0.00  0.00    +0.000 A 
ATOM     16  C   UNL     1       0.790  11.287  19.995  0.00  0.00    +0.000 A 
ATOM     17  C   UNL     1      -0.505  11.808  20.144  0.00  0.00    +0.000 A 
ATOM     18  C   UNL     1      -0.779  12.779  21.207  0.00  0.00    +0.000 A 
ATOM     19  O   UNL     1       0.138  13.052  21.983  0.00  0.00    +0.000 OA
ENDROOT
BRANCH   1  26
ATOM     20  C   UNL     1      -3.139  12.016  23.755  0.00  0.00    +0.000 C 
ATOM     21  C   UNL     1      -2.948  13.500  23.593  0.00  0.00    +0.000 A 
ATOM     22  C   UNL     1      -3.246  14.342  24.679  0.00  0.00    +0.000 A 
ATOM     23  C   UNL     1      -2.980  15.712  24.621  0.00  0.00    +0.000 A 
ATOM     24  C   UNL     1      -2.406  16.263  23.481  0.00  0.00    +0.000 A 
ATOM     25  C   UNL     1      -2.111  15.447  22.390  0.00  0.00    +0.000 A 
ATOM     26  C   UNL     1      -2.379  14.067  22.435  0.00  0.00    +0.000 A 
ENDBRANCH   1  26
TORSDOF 1
ENDMDL
MODEL 8
REMARK VINA RESULT:      -5.9      2.998      6.720
REMARK  Name = 
REMARK  3 active torsions:
REMARK  status: ('A' for Active; 'I' for Inactive)
REMARK    1  A    between atoms: C_1  and  C_2
REMARK    2  A    between atoms: C_7  and  N_8
REMARK    3  A    between atoms: N_13  and  C_14
REMARK                            x       y       z     vdW  Elec       q    Type
REMARK                         _______ _______ _______ _____ _____    ______ ____
ROOT
ATOM      1  N   UNL     1       9.045  14.390  22.341  0.00  0.00    +0.000 N 
ATOM      2  C   UNL     1       8.402  13.140  22.306  0.00  0.00    +0.000 A 
ATOM      3  N   UNL     1       7.361  12.885  23.186  0.00  0.00    +0.000 N 
ATOM      4  C   UNL     1       6.113  13.662  23.170  0.00  0.00    +0.000 C 
ATOM      5  C   UNL     1       5.611  13.864  24.616  0.00  0.00    +0.000 C 
ATOM      6  N   UNL     1       5.445  12.594  25.361  0.00  0.00    +0.000 NA
ATOM      7  C   UNL     1       5.155  12.883  26.769  0.00  0.00    +0.000 C 
ATOM      8  C   UNL     1       6.667  11.758  25.248  0.00  0.00    +0.000 C 
ATOM      9  C   UNL     1       7.160  11.563  23.789  0.00  0.00    +0.000 C 
ATOM     10  N   UNL     1       8.769  12.213  21.469  0.00  0.00    +0.000 NA
ATOM     11  C   UNL     1       9.818  12.450  20.557  0.00  0.00    +0.000 A 
ATOM     12  C   UNL     1      10.200  11.483  19.610  0.00  0.00    +0.000 A 
ATOM     13 CL   UNL     1       9.346   9.985  19.464  0.00  0.00    +0.000 Cl
ATOM     14  C   UNL     1      11.289  11.692  18.748  0.00  0.00    +0.000 A 
ATOM     15  C   UNL     1      12.015  12.880  18.811  0.00  0.00    +0.000 A 
ATOM     16  C   UNL     1      11.634  13.860  19.720  0.00  0.00    +0.000 A 
ATOM     17  C   UNL     1      10.541  13.639  20.573  0.00  0.00    +0.000 A 
ATOM     18  C   UNL     1      10.155  14.669  21.542  0.00  0.00    +0.000 A 
ATOM     19  O   UNL     1      10.860  15.677  21.615  0.00  0.00    +0.000 OA
ENDROOT
BRANCH   1  26
ATOM     20  C   UNL     1       7.416  16.828  21.877  0.00  0.00    +0.000 C 
ATOM     21  C   UNL     1       8.091  16.517  23.186  0.00  0.00    +0.000 A 
ATOM     22  C   UNL     1       7.915  17.401  24.264  0.00  0.00    +0.000 A 
ATOM     23  C   UNL     1       8.424  17.103  25.530  0.00  0.00    +0.000 A 
ATOM     24  C   UNL     1       9.111  15.912  25.742  0.00  0.00    +0.000 A 
ATOM     25  C   UNL     1       9.303  15.026  24.684  0.00  0.00    +0.000 A 
ATOM     26  C   UNL     1       8.800  15.318  23.404  0.00  0.00    +0.000 A 
ENDBRANCH   1  26
TORSDOF 1
ENDMDL
MODEL 9
REMARK VINA RESULT:      -5.9      2.641      5.618
REMARK  Name = 
REMARK  3 active torsions:
REMARK  status: ('A' for Active; 'I' for Inactive)
REMARK    1  A    between atoms: C_1  and  C_2
REMARK    2  A    between atoms: C_7  and  N_8
REMARK    3  A    between atoms: N_13  and  C_14
REMARK                            x       y       z     vdW  Elec       q    Type
REMARK                         _______ _______ _______ _____ _____    ______ ____
ROOT
ATOM      1  N   UNL     1       8.623  14.400  21.345  0.00  0.00    +0.000 N 
ATOM      2  C   UNL     1       8.599  15.214  20.199  0.00  0.00    +0.000 A 
ATOM      3  N   UNL     1       7.733  16.296  20.150  0.00  0.00    +0.000 N 
ATOM      4  C   UNL     1       7.827  17.419  21.093  0.00  0.00    +0.000 C 
ATOM      5  C   UNL     1       6.408  17.911  21.454  0.00  0.00    +0.000 C 
ATOM      6  N   UNL     1       5.593  18.269  20.270  0.00  0.00    +0.000 NA
ATOM      7  C   UNL     1       4.213  18.539  20.684  0.00  0.00    +0.000 C 
ATOM      8  C   UNL     1       5.625  17.179  19.263  0.00  0.00    +0.000 C 
ATOM      9  C   UNL     1       7.058  16.694  18.910  0.00  0.00    +0.000 C 
ATOM     10  N   UNL     1       9.371  14.970  19.179  0.00  0.00    +0.000 NA
ATOM     11  C   UNL     1      10.268  13.883  19.207  0.00  0.00    +0.000 A 
ATOM     12  C   UNL     1      11.145  13.628  18.138  0.00  0.00    +0.000 A 
ATOM     13 CL   UNL     1      11.224  14.685  16.770  0.00  0.00    +0.000 Cl
ATOM     14  C   UNL     1      11.991  12.506  18.137  0.00  0.00    +0.000 A 
ATOM     15  C   UNL     1      11.980  11.618  19.211  0.00  0.00    +0.000 A 
ATOM     16  C   UNL     1      11.141  11.870  20.289  0.00  0.00    +0.000 A 
ATOM     17  C   UNL     1      10.304  12.998  20.280  0.00  0.00    +0.000 A 
ATOM     18  C   UNL     1       9.409  13.248  21.413  0.00  0.00    +0.000 A 
ATOM     19  O   UNL     1       9.378  12.407  22.313  0.00  0.00    +0.000 OA
ENDROOT
BRANCH   1  26
ATOM     20  C   UNL     1       9.274  15.648  23.958  0.00  0.00    +0.000 C 
ATOM     21  C   UNL     1       7.931  15.050  23.635  0.00  0.00    +0.000 A 
ATOM     22  C   UNL     1       6.913  15.115  24.601  0.00  0.00    +0.000 A 
ATOM     23  C   UNL     1       5.618  14.679  24.312  0.00  0.00    +0.000 A 
ATOM     24  C   UNL     1       5.317  14.177  23.050  0.00  0.00    +0.000 A 
ATOM     25  C   UNL     1       6.315  14.096  22.081  0.00  0.00    +0.000 A 
ATOM     26  C   UNL     1       7.623  14.527  22.362  0.00  0.00    +0.000 A 
ENDBRANCH   1  26
TORSDOF 1
ENDMDL
