MODEL 1
REMARK VINA RESULT:      -9.2      0.000      0.000
REMARK  Name = 
REMARK  11 active torsions:
REMARK  status: ('A' for Active; 'I' for Inactive)
REMARK    1  A    between atoms: C_2  and  C_29
REMARK    2  A    between atoms: N_3  and  C_4
REMARK    3  A    between atoms: C_4  and  C_5
REMARK    4  A    between atoms: C_4  and  C_23
REMARK    5  A    between atoms: C_4  and  C_26
REMARK    6  A    between atoms: C_5  and  C_6
REMARK    7  A    between atoms: C_11  and  O_12
REMARK    8  A    between atoms: O_12  and  C_13
REMARK    9  A    between atoms: C_13  and  C_14
REMARK   10  A    between atoms: C_23  and  O_25
REMARK   11  A    between atoms: C_26  and  O_28
REMARK                            x       y       z     vdW  Elec       q    Type
REMARK                         _______ _______ _______ _____ _____    ______ ____
ROOT
ATOM      1  C   UNL     1       3.506   3.538  18.388  0.00  0.00    +0.000 C 
ENDROOT
BRANCH   1   4
ATOM      2  O   UNL     1       2.210   4.718  20.644  0.00  0.00    +0.000 OA
ATOM      3  C   UNL     1       2.422   5.427  19.667  0.00  0.00    +0.000 C 
ATOM      4  N   UNL     1       3.073   4.971  18.536  0.00  0.00    +0.000 N 
ATOM      5  H   UNL     1       3.662   5.675  18.109  0.00  0.00    +0.000 HD
BRANCH   3   6
ATOM      6  C   UNL     1       2.079   6.868  19.674  0.00  0.00    +0.000 A 
ATOM      7  C   UNL     1       1.501   7.440  20.813  0.00  0.00    +0.000 A 
ATOM      8  C   UNL     1       1.115   8.785  20.795  0.00  0.00    +0.000 A 
ATOM      9  C   UNL     1       1.305   9.546  19.641  0.00  0.00    +0.000 A 
ATOM     10 CL   UNL     1       0.786  11.184  19.598  0.00  0.00    +0.000 Cl
ATOM     11  C   UNL     1       1.894   8.981  18.509  0.00  0.00    +0.000 A 
ATOM     12  C   UNL     1       2.283   7.640  18.524  0.00  0.00    +0.000 A 
ENDBRANCH   3   6
ENDBRANCH   1   4
BRANCH   1  13
ATOM     13  C   UNL     1       3.990   2.970  19.753  0.00  0.00    +0.000 C 
ATOM     14  O   UNL     1       5.101   3.161  20.233  0.00  0.00    +0.000 OA
BRANCH  13  15
ATOM     15  O   UNL     1       3.049   2.284  20.460  0.00  0.00    +0.000 OA
ATOM     16  H   UNL     1       3.298   1.362  20.645  0.00  0.00    +0.000 HD
ENDBRANCH  13  15
ENDBRANCH   1  13
BRANCH   1  17
ATOM     17  C   UNL     1       2.280   2.699  17.954  0.00  0.00    +0.000 C 
ATOM     18  O   UNL     1       1.233   3.174  17.528  0.00  0.00    +0.000 OA
BRANCH  17  19
ATOM     19  O   UNL     1       2.444   1.353  17.983  0.00  0.00    +0.000 OA
ATOM     20  H   UNL     1       1.883   0.848  17.344  0.00  0.00    +0.000 HD
ENDBRANCH  17  19
ENDBRANCH   1  17
BRANCH   1  21
ATOM     21  C   UNL     1       4.666   3.319  17.375  0.00  0.00    +0.000 C 
BRANCH  21  22
ATOM     22  C   UNL     1       5.318   4.559  16.812  0.00  0.00    +0.000 A 
ATOM     23  C   UNL     1       5.117   5.145  15.575  0.00  0.00    +0.000 A 
ATOM     24  N   UNL     1       5.888   6.267  15.484  0.00  0.00    +0.000 N 
ATOM     25  C   UNL     1       6.580   6.449  16.649  0.00  0.00    +0.000 A 
ATOM     26  C   UNL     1       7.468   7.469  16.984  0.00  0.00    +0.000 A 
ATOM     27  C   UNL     1       7.988   7.483  18.278  0.00  0.00    +0.000 A 
ATOM     28  C   UNL     1       7.670   6.466  19.178  0.00  0.00    +0.000 A 
ATOM     29  C   UNL     1       6.790   5.433  18.814  0.00  0.00    +0.000 A 
ATOM     30  C   UNL     1       6.231   5.420  17.518  0.00  0.00    +0.000 A 
ATOM     31  H   UNL     1       5.915   6.898  14.694  0.00  0.00    +0.000 HD
BRANCH  27  32
ATOM     32  O   UNL     1       8.814   8.470  18.749  0.00  0.00    +0.000 OA
BRANCH  32  33
ATOM     33  C   UNL     1       8.653   9.730  18.090  0.00  0.00    +0.000 C 
BRANCH  33  34
ATOM     34  C   UNL     1       9.574  10.739  18.711  0.00  0.00    +0.000 A 
ATOM     35  C   UNL     1      10.387  11.550  17.911  0.00  0.00    +0.000 A 
ATOM     36  C   UNL     1      11.245  12.477  18.494  0.00  0.00    +0.000 A 
ATOM     37  C   UNL     1      11.293  12.602  19.884  0.00  0.00    +0.000 A 
ATOM     38  C   UNL     1      10.483  11.806  20.689  0.00  0.00    +0.000 A 
ATOM     39  C   UNL     1       9.625  10.876  20.108  0.00  0.00    +0.000 A 
ENDBRANCH  33  34
ENDBRANCH  32  33
ENDBRANCH  27  32
ENDBRANCH  21  22
ENDBRANCH   1  21
TORSDOF 11
ENDMDL
MODEL 2
REMARK VINA RESULT:      -9.1      0.617      1.303
REMARK  Name = 
REMARK  11 active torsions:
REMARK  status: ('A' for Active; 'I' for Inactive)
REMARK    1  A    between atoms: C_2  and  C_29
REMARK    2  A    between atoms: N_3  and  C_4
REMARK    3  A    between atoms: C_4  and  C_5
REMARK    4  A    between atoms: C_4  and  C_23
REMARK    5  A    between atoms: C_4  and  C_26
REMARK    6  A    between atoms: C_5  and  C_6
REMARK    7  A    between atoms: C_11  and  O_12
REMARK    8  A    between atoms: O_12  and  C_13
REMARK    9  A    between atoms: C_13  and  C_14
REMARK   10  A    between atoms: C_23  and  O_25
REMARK   11  A    between atoms: C_26  and  O_28
REMARK                            x       y       z     vdW  Elec       q    Type
REMARK                         _______ _______ _______ _____ _____    ______ ____
ROOT
ATOM      1  C   UNL     1       3.184   3.394  18.412  0.00  0.00    +0.000 C 
ENDROOT
BRANCH   1   4
ATOM      2  O   UNL     1       3.698   5.466  20.309  0.00  0.00    +0.000 OA
ATOM      3  C   UNL     1       2.919   5.706  19.394  0.00  0.00    +0.000 C 
ATOM      4  N   UNL     1       2.626   4.790  18.401  0.00  0.00    +0.000 N 
ATOM      5  H   UNL     1       2.486   5.221  17.495  0.00  0.00    +0.000 HD
BRANCH   3   6
ATOM      6  C   UNL     1       2.312   7.047  19.232  0.00  0.00    +0.000 A 
ATOM      7  C   UNL     1       2.373   7.693  17.991  0.00  0.00    +0.000 A 
ATOM      8  C   UNL     1       1.861   8.988  17.857  0.00  0.00    +0.000 A 
ATOM      9  C   UNL     1       1.296   9.628  18.960  0.00  0.00    +0.000 A 
ATOM     10 CL   UNL     1       0.710  11.237  18.811  0.00  0.00    +0.000 Cl
ATOM     11  C   UNL     1       1.220   8.980  20.194  0.00  0.00    +0.000 A 
ATOM     12  C   UNL     1       1.729   7.687  20.331  0.00  0.00    +0.000 A 
ENDBRANCH   3   6
ENDBRANCH   1   4
BRANCH   1  13
ATOM     13  C   UNL     1       3.689   3.019  19.834  0.00  0.00    +0.000 C 
ATOM     14  O   UNL     1       4.861   2.809  20.125  0.00  0.00    +0.000 OA
BRANCH  13  15
ATOM     15  O   UNL     1       2.733   3.012  20.805  0.00  0.00    +0.000 OA
ATOM     16  H   UNL     1       2.072   3.718  20.704  0.00  0.00    +0.000 HD
ENDBRANCH  13  15
ENDBRANCH   1  13
BRANCH   1  17
ATOM     17  C   UNL     1       2.043   2.408  18.059  0.00  0.00    +0.000 C 
ATOM     18  O   UNL     1       0.980   2.336  18.666  0.00  0.00    +0.000 OA
BRANCH  17  19
ATOM     19  O   UNL     1       2.237   1.651  16.950  0.00  0.00    +0.000 OA
ATOM     20  H   UNL     1       2.416   2.159  16.121  0.00  0.00    +0.000 HD
ENDBRANCH  17  19
ENDBRANCH   1  17
BRANCH   1  21
ATOM     21  C   UNL     1       4.377   3.171  17.440  0.00  0.00    +0.000 C 
BRANCH  21  22
ATOM     22  C   UNL     1       5.032   4.408  16.874  0.00  0.00    +0.000 A 
ATOM     23  C   UNL     1       4.777   5.034  15.666  0.00  0.00    +0.000 A 
ATOM     24  N   UNL     1       5.574   6.137  15.561  0.00  0.00    +0.000 N 
ATOM     25  C   UNL     1       6.335   6.268  16.689  0.00  0.00    +0.000 A 
ATOM     26  C   UNL     1       7.269   7.254  17.000  0.00  0.00    +0.000 A 
ATOM     27  C   UNL     1       7.861   7.217  18.263  0.00  0.00    +0.000 A 
ATOM     28  C   UNL     1       7.565   6.184  19.152  0.00  0.00    +0.000 A 
ATOM     29  C   UNL     1       6.638   5.185  18.811  0.00  0.00    +0.000 A 
ATOM     30  C   UNL     1       6.007   5.224  17.549  0.00  0.00    +0.000 A 
ATOM     31  H   UNL     1       5.574   6.790  14.789  0.00  0.00    +0.000 HD
BRANCH  27  32
ATOM     32  O   UNL     1       8.740   8.168  18.712  0.00  0.00    +0.000 OA
BRANCH  32  33
ATOM     33  C   UNL     1       8.417   9.501  18.304  0.00  0.00    +0.000 C 
BRANCH  33  34
ATOM     34  C   UNL     1       9.435  10.454  18.861  0.00  0.00    +0.000 A 
ATOM     35  C   UNL     1       9.401  10.825  20.210  0.00  0.00    +0.000 A 
ATOM     36  C   UNL     1      10.342  11.715  20.717  0.00  0.00    +0.000 A 
ATOM     37  C   UNL     1      11.327  12.238  19.878  0.00  0.00    +0.000 A 
ATOM     38  C   UNL     1      11.375  11.868  18.536  0.00  0.00    +0.000 A 
ATOM     39  C   UNL     1      10.433  10.979  18.026  0.00  0.00    +0.000 A 
ENDBRANCH  33  34
ENDBRANCH  32  33
ENDBRANCH  27  32
ENDBRANCH  21  22
ENDBRANCH   1  21
TORSDOF 11
ENDMDL
MODEL 3
REMARK VINA RESULT:      -9.1      0.957      1.320
REMARK  Name = 
REMARK  11 active torsions:
REMARK  status: ('A' for Active; 'I' for Inactive)
REMARK    1  A    between atoms: C_2  and  C_29
REMARK    2  A    between atoms: N_3  and  C_4
REMARK    3  A    between atoms: C_4  and  C_5
REMARK    4  A    between atoms: C_4  and  C_23
REMARK    5  A    between atoms: C_4  and  C_26
REMARK    6  A    between atoms: C_5  and  C_6
REMARK    7  A    between atoms: C_11  and  O_12
REMARK    8  A    between atoms: O_12  and  C_13
REMARK    9  A    between atoms: C_13  and  C_14
REMARK   10  A    between atoms: C_23  and  O_25
REMARK   11  A    between atoms: C_26  and  O_28
REMARK                            x       y       z     vdW  Elec       q    Type
REMARK                         _______ _______ _______ _____ _____    ______ ____
ROOT
ATOM      1  C   UNL     1       3.498   3.028  19.087  0.00  0.00    +0.000 C 
ENDROOT
BRANCH   1   4
ATOM      2  O   UNL     1       1.637   4.596  17.591  0.00  0.00    +0.000 OA
ATOM      3  C   UNL     1       2.227   5.136  18.520  0.00  0.00    +0.000 C 
ATOM      4  N   UNL     1       3.121   4.463  19.332  0.00  0.00    +0.000 N 
ATOM      5  H   UNL     1       3.087   4.771  20.296  0.00  0.00    +0.000 HD
BRANCH   3   6
ATOM      6  C   UNL     1       1.939   6.537  18.903  0.00  0.00    +0.000 A 
ATOM      7  C   UNL     1       1.992   7.547  17.936  0.00  0.00    +0.000 A 
ATOM      8  C   UNL     1       1.789   8.879  18.311  0.00  0.00    +0.000 A 
ATOM      9  C   UNL     1       1.537   9.193  19.647  0.00  0.00    +0.000 A 
ATOM     10 CL   UNL     1       1.335  10.833  20.121  0.00  0.00    +0.000 Cl
ATOM     11  C   UNL     1       1.469   8.186  20.610  0.00  0.00    +0.000 A 
ATOM     12  C   UNL     1       1.670   6.855  20.240  0.00  0.00    +0.000 A 
ENDBRANCH   3   6
ENDBRANCH   1   4
BRANCH   1  13
ATOM     13  C   UNL     1       4.116   2.400  20.369  0.00  0.00    +0.000 C 
ATOM     14  O   UNL     1       5.235   1.904  20.433  0.00  0.00    +0.000 OA
BRANCH  13  15
ATOM     15  O   UNL     1       3.350   2.503  21.491  0.00  0.00    +0.000 OA
ATOM     16  H   UNL     1       3.837   2.832  22.265  0.00  0.00    +0.000 HD
ENDBRANCH  13  15
ENDBRANCH   1  13
BRANCH   1  17
ATOM     17  C   UNL     1       2.211   2.232  18.765  0.00  0.00    +0.000 C 
ATOM     18  O   UNL     1       1.298   2.041  19.562  0.00  0.00    +0.000 OA
BRANCH  17  19
ATOM     19  O   UNL     1       2.083   1.805  17.483  0.00  0.00    +0.000 OA
ATOM     20  H   UNL     1       2.911   1.846  16.944  0.00  0.00    +0.000 HD
ENDBRANCH  17  19
ENDBRANCH   1  17
BRANCH   1  21
ATOM     21  C   UNL     1       4.532   2.821  17.944  0.00  0.00    +0.000 C 
BRANCH  21  22
ATOM     22  C   UNL     1       5.051   4.066  17.265  0.00  0.00    +0.000 A 
ATOM     23  C   UNL     1       4.662   4.602  16.050  0.00  0.00    +0.000 A 
ATOM     24  N   UNL     1       5.366   5.750  15.826  0.00  0.00    +0.000 N 
ATOM     25  C   UNL     1       6.198   5.997  16.882  0.00  0.00    +0.000 A 
ATOM     26  C   UNL     1       7.078   7.061  17.067  0.00  0.00    +0.000 A 
ATOM     27  C   UNL     1       7.763   7.138  18.280  0.00  0.00    +0.000 A 
ATOM     28  C   UNL     1       7.611   6.140  19.241  0.00  0.00    +0.000 A 
ATOM     29  C   UNL     1       6.736   5.062  19.027  0.00  0.00    +0.000 A 
ATOM     30  C   UNL     1       6.011   4.984  17.818  0.00  0.00    +0.000 A 
ATOM     31  H   UNL     1       5.261   6.355  15.022  0.00  0.00    +0.000 HD
BRANCH  27  32
ATOM     32  O   UNL     1       8.602   8.172  18.608  0.00  0.00    +0.000 OA
BRANCH  32  33
ATOM     33  C   UNL     1       8.405   9.354  17.826  0.00  0.00    +0.000 C 
BRANCH  33  34
ATOM     34  C   UNL     1       8.997  10.531  18.545  0.00  0.00    +0.000 A 
ATOM     35  C   UNL     1       9.003  11.799  17.952  0.00  0.00    +0.000 A 
ATOM     36  C   UNL     1       9.562  12.884  18.621  0.00  0.00    +0.000 A 
ATOM     37  C   UNL     1      10.116  12.709  19.890  0.00  0.00    +0.000 A 
ATOM     38  C   UNL     1      10.107  11.453  20.492  0.00  0.00    +0.000 A 
ATOM     39  C   UNL     1       9.551  10.366  19.824  0.00  0.00    +0.000 A 
ENDBRANCH  33  34
ENDBRANCH  32  33
ENDBRANCH  27  32
ENDBRANCH  21  22
ENDBRANCH   1  21
TORSDOF 11
ENDMDL
MODEL 4
REMARK VINA RESULT:      -8.7      4.382      8.090
REMARK  Name = 
REMARK  11 active torsions:
REMARK  status: ('A' for Active; 'I' for Inactive)
REMARK    1  A    between atoms: C_2  and  C_29
REMARK    2  A    between atoms: N_3  and  C_4
REMARK    3  A    between atoms: C_4  and  C_5
REMARK    4  A    between atoms: C_4  and  C_23
REMARK    5  A    between atoms: C_4  and  C_26
REMARK    6  A    between atoms: C_5  and  C_6
REMARK    7  A    between atoms: C_11  and  O_12
REMARK    8  A    between atoms: O_12  and  C_13
REMARK    9  A    between atoms: C_13  and  C_14
REMARK   10  A    between atoms: C_23  and  O_25
REMARK   11  A    between atoms: C_26  and  O_28
REMARK                            x       y       z     vdW  Elec       q    Type
REMARK                         _______ _______ _______ _____ _____    ______ ____
ROOT
ATOM      1  C   UNL     1       2.907   3.912  19.381  0.00  0.00    +0.000 C 
ENDROOT
BRANCH   1   4
ATOM      2  O   UNL     1       5.710   4.408  19.144  0.00  0.00    +0.000 OA
ATOM      3  C   UNL     1       5.053   4.323  18.113  0.00  0.00    +0.000 C 
ATOM      4  N   UNL     1       3.697   4.049  18.109  0.00  0.00    +0.000 N 
ATOM      5  H   UNL     1       3.414   3.471  17.327  0.00  0.00    +0.000 HD
BRANCH   3   6
ATOM      6  C   UNL     1       5.696   4.406  16.781  0.00  0.00    +0.000 A 
ATOM      7  C   UNL     1       7.029   4.818  16.678  0.00  0.00    +0.000 A 
ATOM      8  C   UNL     1       7.615   4.963  15.415  0.00  0.00    +0.000 A 
ATOM      9  C   UNL     1       6.865   4.699  14.269  0.00  0.00    +0.000 A 
ATOM     10 CL   UNL     1       7.566   4.924  12.715  0.00  0.00    +0.000 Cl
ATOM     11  C   UNL     1       5.540   4.275  14.370  0.00  0.00    +0.000 A 
ATOM     12  C   UNL     1       4.953   4.127  15.628  0.00  0.00    +0.000 A 
ENDBRANCH   3   6
ENDBRANCH   1   4
BRANCH   1  13
ATOM     13  C   UNL     1       1.437   3.511  19.069  0.00  0.00    +0.000 C 
ATOM     14  O   UNL     1       0.991   3.314  17.945  0.00  0.00    +0.000 OA
BRANCH  13  15
ATOM     15  O   UNL     1       0.651   3.301  20.163  0.00  0.00    +0.000 OA
ATOM     16  H   UNL     1      -0.207   3.757  20.118  0.00  0.00    +0.000 HD
ENDBRANCH  13  15
ENDBRANCH   1  13
BRANCH   1  17
ATOM     17  C   UNL     1       3.524   2.766  20.218  0.00  0.00    +0.000 C 
ATOM     18  O   UNL     1       3.296   2.579  21.409  0.00  0.00    +0.000 OA
BRANCH  17  19
ATOM     19  O   UNL     1       4.296   1.883  19.536  0.00  0.00    +0.000 OA
ATOM     20  H   UNL     1       4.224   0.944  19.837  0.00  0.00    +0.000 HD
ENDBRANCH  17  19
ENDBRANCH   1  17
BRANCH   1  21
ATOM     21  C   UNL     1       2.845   5.205  20.242  0.00  0.00    +0.000 C 
BRANCH  21  22
ATOM     22  C   UNL     1       2.587   6.498  19.507  0.00  0.00    +0.000 A 
ATOM     23  C   UNL     1       2.975   6.844  18.224  0.00  0.00    +0.000 A 
ATOM     24  N   UNL     1       2.511   8.097  17.943  0.00  0.00    +0.000 N 
ATOM     25  C   UNL     1       1.802   8.578  19.008  0.00  0.00    +0.000 A 
ATOM     26  C   UNL     1       1.152   9.804  19.140  0.00  0.00    +0.000 A 
ATOM     27  C   UNL     1       0.418  10.031  20.304  0.00  0.00    +0.000 A 
ATOM     28  C   UNL     1       0.396   9.079  21.323  0.00  0.00    +0.000 A 
ATOM     29  C   UNL     1       1.077   7.858  21.182  0.00  0.00    +0.000 A 
ATOM     30  C   UNL     1       1.800   7.599  19.998  0.00  0.00    +0.000 A 
ATOM     31  H   UNL     1       2.631   8.584  17.065  0.00  0.00    +0.000 HD
BRANCH  27  32
ATOM     32  O   UNL     1      -0.320  11.166  20.521  0.00  0.00    +0.000 OA
BRANCH  32  33
ATOM     33  C   UNL     1      -0.425  11.540  21.898  0.00  0.00    +0.000 C 
BRANCH  33  34
ATOM     34  C   UNL     1      -1.807  12.060  22.170  0.00  0.00    +0.000 A 
ATOM     35  C   UNL     1      -2.544  12.687  21.159  0.00  0.00    +0.000 A 
ATOM     36  C   UNL     1      -3.821  13.174  21.422  0.00  0.00    +0.000 A 
ATOM     37  C   UNL     1      -4.371  13.033  22.697  0.00  0.00    +0.000 A 
ATOM     38  C   UNL     1      -3.649  12.402  23.707  0.00  0.00    +0.000 A 
ATOM     39  C   UNL     1      -2.371  11.916  23.447  0.00  0.00    +0.000 A 
ENDBRANCH  33  34
ENDBRANCH  32  33
ENDBRANCH  27  32
ENDBRANCH  21  22
ENDBRANCH   1  21
TORSDOF 11
ENDMDL
MODEL 5
REMARK VINA RESULT:      -8.7      4.503      8.227
REMARK  Name = 
REMARK  11 active torsions:
REMARK  status: ('A' for Active; 'I' for Inactive)
REMARK    1  A    between atoms: C_2  and  C_29
REMARK    2  A    between atoms: N_3  and  C_4
REMARK    3  A    between atoms: C_4  and  C_5
REMARK    4  A    between atoms: C_4  and  C_23
REMARK    5  A    between atoms: C_4  and  C_26
REMARK    6  A    between atoms: C_5  and  C_6
REMARK    7  A    between atoms: C_11  and  O_12
REMARK    8  A    between atoms: O_12  and  C_13
REMARK    9  A    between atoms: C_13  and  C_14
REMARK   10  A    between atoms: C_23  and  O_25
REMARK   11  A    between atoms: C_26  and  O_28
REMARK                            x       y       z     vdW  Elec       q    Type
REMARK                         _______ _______ _______ _____ _____    ______ ____
ROOT
ATOM      1  C   UNL     1       3.055   4.157  18.871  0.00  0.00    +0.000 C 
ENDROOT
BRANCH   1   4
ATOM      2  O   UNL     1       5.847   4.559  18.425  0.00  0.00    +0.000 OA
ATOM      3  C   UNL     1       5.116   4.471  17.445  0.00  0.00    +0.000 C 
ATOM      4  N   UNL     1       3.756   4.241  17.544  0.00  0.00    +0.000 N 
ATOM      5  H   UNL     1       3.401   3.654  16.799  0.00  0.00    +0.000 HD
BRANCH   3   6
ATOM      6  C   UNL     1       5.665   4.504  16.070  0.00  0.00    +0.000 A 
ATOM      7  C   UNL     1       4.920   3.972  15.011  0.00  0.00    +0.000 A 
ATOM      8  C   UNL     1       5.468   3.940  13.724  0.00  0.00    +0.000 A 
ATOM      9  C   UNL     1       6.753   4.436  13.505  0.00  0.00    +0.000 A 
ATOM     10 CL   UNL     1       7.449   4.355  11.935  0.00  0.00    +0.000 Cl
ATOM     11  C   UNL     1       7.491   4.981  14.556  0.00  0.00    +0.000 A 
ATOM     12  C   UNL     1       6.948   5.015  15.842  0.00  0.00    +0.000 A 
ENDBRANCH   3   6
ENDBRANCH   1   4
BRANCH   1  13
ATOM     13  C   UNL     1       1.525   3.961  18.669  0.00  0.00    +0.000 C 
ATOM     14  O   UNL     1       0.966   3.916  17.579  0.00  0.00    +0.000 OA
BRANCH  13  15
ATOM     15  O   UNL     1       0.813   3.752  19.812  0.00  0.00    +0.000 OA
ATOM     16  H   UNL     1      -0.117   4.026  19.745  0.00  0.00    +0.000 HD
ENDBRANCH  13  15
ENDBRANCH   1  13
BRANCH   1  17
ATOM     17  C   UNL     1       3.578   2.910  19.623  0.00  0.00    +0.000 C 
ATOM     18  O   UNL     1       3.378   2.685  20.812  0.00  0.00    +0.000 OA
BRANCH  17  19
ATOM     19  O   UNL     1       4.226   1.990  18.865  0.00  0.00    +0.000 OA
ATOM     20  H   UNL     1       3.960   1.969  17.913  0.00  0.00    +0.000 HD
ENDBRANCH  17  19
ENDBRANCH   1  17
BRANCH   1  21
ATOM     21  C   UNL     1       3.230   5.414  19.771  0.00  0.00    +0.000 C 
BRANCH  21  22
ATOM     22  C   UNL     1       2.781   6.733  19.188  0.00  0.00    +0.000 A 
ATOM     23  C   UNL     1       3.057   7.253  17.936  0.00  0.00    +0.000 A 
ATOM     24  N   UNL     1       2.433   8.459  17.809  0.00  0.00    +0.000 N 
ATOM     25  C   UNL     1       1.727   8.738  18.946  0.00  0.00    +0.000 A 
ATOM     26  C   UNL     1       0.943   9.853  19.233  0.00  0.00    +0.000 A 
ATOM     27  C   UNL     1       0.247   9.868  20.443  0.00  0.00    +0.000 A 
ATOM     28  C   UNL     1       0.393   8.822  21.354  0.00  0.00    +0.000 A 
ATOM     29  C   UNL     1       1.207   7.717  21.057  0.00  0.00    +0.000 A 
ATOM     30  C   UNL     1       1.894   7.671  19.824  0.00  0.00    +0.000 A 
ATOM     31  H   UNL     1       2.448   9.044  16.984  0.00  0.00    +0.000 HD
BRANCH  27  32
ATOM     32  O   UNL     1      -0.610  10.874  20.808  0.00  0.00    +0.000 OA
BRANCH  32  33
ATOM     33  C   UNL     1      -0.752  11.905  19.826  0.00  0.00    +0.000 C 
BRANCH  33  34
ATOM     34  C   UNL     1      -2.132  11.849  19.240  0.00  0.00    +0.000 A 
ATOM     35  C   UNL     1      -3.224  12.386  19.932  0.00  0.00    +0.000 A 
ATOM     36  C   UNL     1      -4.502  12.322  19.387  0.00  0.00    +0.000 A 
ATOM     37  C   UNL     1      -4.697  11.723  18.141  0.00  0.00    +0.000 A 
ATOM     38  C   UNL     1      -3.617  11.193  17.440  0.00  0.00    +0.000 A 
ATOM     39  C   UNL     1      -2.338  11.254  17.985  0.00  0.00    +0.000 A 
ENDBRANCH  33  34
ENDBRANCH  32  33
ENDBRANCH  27  32
ENDBRANCH  21  22
ENDBRANCH   1  21
TORSDOF 11
ENDMDL
MODEL 6
REMARK VINA RESULT:      -8.6      4.395      8.020
REMARK  Name = 
REMARK  11 active torsions:
REMARK  status: ('A' for Active; 'I' for Inactive)
REMARK    1  A    between atoms: C_2  and  C_29
REMARK    2  A    between atoms: N_3  and  C_4
REMARK    3  A    between atoms: C_4  and  C_5
REMARK    4  A    between atoms: C_4  and  C_23
REMARK    5  A    between atoms: C_4  and  C_26
REMARK    6  A    between atoms: C_5  and  C_6
REMARK    7  A    between atoms: C_11  and  O_12
REMARK    8  A    between atoms: O_12  and  C_13
REMARK    9  A    between atoms: C_13  and  C_14
REMARK   10  A    between atoms: C_23  and  O_25
REMARK   11  A    between atoms: C_26  and  O_28
REMARK                            x       y       z     vdW  Elec       q    Type
REMARK                         _______ _______ _______ _____ _____    ______ ____
ROOT
ATOM      1  C   UNL     1       3.186   3.822  19.198  0.00  0.00    +0.000 C 
ENDROOT
BRANCH   1   4
ATOM      2  O   UNL     1       5.990   4.240  18.852  0.00  0.00    +0.000 OA
ATOM      3  C   UNL     1       5.286   4.208  17.849  0.00  0.00    +0.000 C 
ATOM      4  N   UNL     1       3.924   3.976  17.898  0.00  0.00    +0.000 N 
ATOM      5  H   UNL     1       3.589   3.432  17.112  0.00  0.00    +0.000 HD
BRANCH   3   6
ATOM      6  C   UNL     1       5.873   4.314  16.494  0.00  0.00    +0.000 A 
ATOM      7  C   UNL     1       7.133   4.900  16.325  0.00  0.00    +0.000 A 
ATOM      8  C   UNL     1       7.656   5.062  15.038  0.00  0.00    +0.000 A 
ATOM      9  C   UNL     1       6.918   4.642  13.931  0.00  0.00    +0.000 A 
ATOM     10 CL   UNL     1       7.537   4.885  12.345  0.00  0.00    +0.000 Cl
ATOM     11  C   UNL     1       5.669   4.045  14.098  0.00  0.00    +0.000 A 
ATOM     12  C   UNL     1       5.143   3.880  15.381  0.00  0.00    +0.000 A 
ENDBRANCH   3   6
ENDBRANCH   1   4
BRANCH   1  13
ATOM     13  C   UNL     1       1.705   3.420  18.942  0.00  0.00    +0.000 C 
ATOM     14  O   UNL     1       0.765   3.722  19.668  0.00  0.00    +0.000 OA
BRANCH  13  15
ATOM     15  O   UNL     1       1.481   2.754  17.774  0.00  0.00    +0.000 OA
ATOM     16  H   UNL     1       2.131   2.957  17.080  0.00  0.00    +0.000 HD
ENDBRANCH  13  15
ENDBRANCH   1  13
BRANCH   1  17
ATOM     17  C   UNL     1       3.839   2.669  19.998  0.00  0.00    +0.000 C 
ATOM     18  O   UNL     1       3.782   2.554  21.218  0.00  0.00    +0.000 OA
BRANCH  17  19
ATOM     19  O   UNL     1       4.431   1.697  19.259  0.00  0.00    +0.000 OA
ATOM     20  H   UNL     1       5.060   1.118  19.755  0.00  0.00    +0.000 HD
ENDBRANCH  17  19
ENDBRANCH   1  17
BRANCH   1  21
ATOM     21  C   UNL     1       3.155   5.105  20.076  0.00  0.00    +0.000 C 
BRANCH  21  22
ATOM     22  C   UNL     1       2.789   6.395  19.380  0.00  0.00    +0.000 A 
ATOM     23  C   UNL     1       3.123   6.800  18.100  0.00  0.00    +0.000 A 
ATOM     24  N   UNL     1       2.563   8.022  17.861  0.00  0.00    +0.000 N 
ATOM     25  C   UNL     1       1.845   8.424  18.953  0.00  0.00    +0.000 A 
ATOM     26  C   UNL     1       1.111   9.594  19.129  0.00  0.00    +0.000 A 
ATOM     27  C   UNL     1       0.386   9.739  20.313  0.00  0.00    +0.000 A 
ATOM     28  C   UNL     1       0.456   8.762  21.307  0.00  0.00    +0.000 A 
ATOM     29  C   UNL     1       1.220   7.598  21.120  0.00  0.00    +0.000 A 
ATOM     30  C   UNL     1       1.935   7.422  19.915  0.00  0.00    +0.000 A 
ATOM     31  H   UNL     1       2.629   8.538  16.994  0.00  0.00    +0.000 HD
BRANCH  27  32
ATOM     32  O   UNL     1      -0.427  10.810  20.574  0.00  0.00    +0.000 OA
BRANCH  32  33
ATOM     33  C   UNL     1      -0.497  11.763  19.509  0.00  0.00    +0.000 C 
BRANCH  33  34
ATOM     34  C   UNL     1      -1.839  11.669  18.842  0.00  0.00    +0.000 A 
ATOM     35  C   UNL     1      -1.956  11.153  17.546  0.00  0.00    +0.000 A 
ATOM     36  C   UNL     1      -3.202  11.077  16.932  0.00  0.00    +0.000 A 
ATOM     37  C   UNL     1      -4.341  11.513  17.611  0.00  0.00    +0.000 A 
ATOM     38  C   UNL     1      -4.235  12.021  18.903  0.00  0.00    +0.000 A 
ATOM     39  C   UNL     1      -2.990  12.100  19.520  0.00  0.00    +0.000 A 
ENDBRANCH  33  34
ENDBRANCH  32  33
ENDBRANCH  27  32
ENDBRANCH  21  22
ENDBRANCH   1  21
TORSDOF 11
ENDMDL
MODEL 7
REMARK VINA RESULT:      -8.5      0.810      1.022
REMARK  Name = 
REMARK  11 active torsions:
REMARK  status: ('A' for Active; 'I' for Inactive)
REMARK    1  A    between atoms: C_2  and  C_29
REMARK    2  A    between atoms: N_3  and  C_4
REMARK    3  A    between atoms: C_4  and  C_5
REMARK    4  A    between atoms: C_4  and  C_23
REMARK    5  A    between atoms: C_4  and  C_26
REMARK    6  A    between atoms: C_5  and  C_6
REMARK    7  A    between atoms: C_11  and  O_12
REMARK    8  A    between atoms: O_12  and  C_13
REMARK    9  A    between atoms: C_13  and  C_14
REMARK   10  A    between atoms: C_23  and  O_25
REMARK   11  A    between atoms: C_26  and  O_28
REMARK                            x       y       z     vdW  Elec       q    Type
REMARK                         _______ _______ _______ _____ _____    ______ ____
ROOT
ATOM      1  C   UNL     1       3.556   3.251  19.050  0.00  0.00    +0.000 C 
ENDROOT
BRANCH   1   4
ATOM      2  O   UNL     1       1.657   4.849  17.636  0.00  0.00    +0.000 OA
ATOM      3  C   UNL     1       2.286   5.375  18.547  0.00  0.00    +0.000 C 
ATOM      4  N   UNL     1       3.202   4.687  19.320  0.00  0.00    +0.000 N 
ATOM      5  H   UNL     1       3.206   4.987  20.288  0.00  0.00    +0.000 HD
BRANCH   3   6
ATOM      6  C   UNL     1       2.027   6.776  18.952  0.00  0.00    +0.000 A 
ATOM      7  C   UNL     1       1.707   7.068  20.283  0.00  0.00    +0.000 A 
ATOM      8  C   UNL     1       1.394   8.382  20.650  0.00  0.00    +0.000 A 
ATOM      9  C   UNL     1       1.401   9.391  19.687  0.00  0.00    +0.000 A 
ATOM     10 CL   UNL     1       0.970  10.997  20.124  0.00  0.00    +0.000 Cl
ATOM     11  C   UNL     1       1.734   9.105  18.363  0.00  0.00    +0.000 A 
ATOM     12  C   UNL     1       2.047   7.796  17.993  0.00  0.00    +0.000 A 
ENDBRANCH   3   6
ENDBRANCH   1   4
BRANCH   1  13
ATOM     13  C   UNL     1       4.030   2.550  20.356  0.00  0.00    +0.000 C 
ATOM     14  O   UNL     1       3.386   2.506  21.397  0.00  0.00    +0.000 OA
BRANCH  13  15
ATOM     15  O   UNL     1       5.217   1.888  20.258  0.00  0.00    +0.000 OA
ATOM     16  H   UNL     1       5.968   2.467  20.045  0.00  0.00    +0.000 HD
ENDBRANCH  13  15
ENDBRANCH   1  13
BRANCH   1  17
ATOM     17  C   UNL     1       2.280   2.514  18.576  0.00  0.00    +0.000 C 
ATOM     18  O   UNL     1       2.170   1.950  17.492  0.00  0.00    +0.000 OA
BRANCH  17  19
ATOM     19  O   UNL     1       1.269   2.438  19.478  0.00  0.00    +0.000 OA
ATOM     20  H   UNL     1       1.138   1.548  19.887  0.00  0.00    +0.000 HD
ENDBRANCH  17  19
ENDBRANCH   1  17
BRANCH   1  21
ATOM     21  C   UNL     1       4.686   3.053  18.001  0.00  0.00    +0.000 C 
BRANCH  21  22
ATOM     22  C   UNL     1       5.129   4.281  17.242  0.00  0.00    +0.000 A 
ATOM     23  C   UNL     1       4.608   4.795  16.067  0.00  0.00    +0.000 A 
ATOM     24  N   UNL     1       5.286   5.934  15.742  0.00  0.00    +0.000 N 
ATOM     25  C   UNL     1       6.233   6.197  16.692  0.00  0.00    +0.000 A 
ATOM     26  C   UNL     1       7.132   7.260  16.755  0.00  0.00    +0.000 A 
ATOM     27  C   UNL     1       7.950   7.357  17.881  0.00  0.00    +0.000 A 
ATOM     28  C   UNL     1       7.904   6.379  18.874  0.00  0.00    +0.000 A 
ATOM     29  C   UNL     1       7.006   5.302  18.782  0.00  0.00    +0.000 A 
ATOM     30  C   UNL     1       6.149   5.205  17.664  0.00  0.00    +0.000 A 
ATOM     31  H   UNL     1       5.093   6.524  14.943  0.00  0.00    +0.000 HD
BRANCH  27  32
ATOM     32  O   UNL     1       8.824   8.392  18.092  0.00  0.00    +0.000 OA
BRANCH  32  33
ATOM     33  C   UNL     1       8.223   9.554  18.671  0.00  0.00    +0.000 C 
BRANCH  33  34
ATOM     34  C   UNL     1       9.295  10.540  19.035  0.00  0.00    +0.000 A 
ATOM     35  C   UNL     1      10.171  11.033  18.060  0.00  0.00    +0.000 A 
ATOM     36  C   UNL     1      11.168  11.939  18.406  0.00  0.00    +0.000 A 
ATOM     37  C   UNL     1      11.293  12.364  19.730  0.00  0.00    +0.000 A 
ATOM     38  C   UNL     1      10.420  11.887  20.705  0.00  0.00    +0.000 A 
ATOM     39  C   UNL     1       9.424  10.978  20.362  0.00  0.00    +0.000 A 
ENDBRANCH  33  34
ENDBRANCH  32  33
ENDBRANCH  27  32
ENDBRANCH  21  22
ENDBRANCH   1  21
TORSDOF 11
ENDMDL
MODEL 8
REMARK VINA RESULT:      -8.5      3.609      5.948
REMARK  Name = 
REMARK  11 active torsions:
REMARK  status: ('A' for Active; 'I' for Inactive)
REMARK    1  A    between atoms: C_2  and  C_29
REMARK    2  A    between atoms: N_3  and  C_4
REMARK    3  A    between atoms: C_4  and  C_5
REMARK    4  A    between atoms: C_4  and  C_23
REMARK    5  A    between atoms: C_4  and  C_26
REMARK    6  A    between atoms: C_5  and  C_6
REMARK    7  A    between atoms: C_11  and  O_12
REMARK    8  A    between atoms: O_12  and  C_13
REMARK    9  A    between atoms: C_13  and  C_14
REMARK   10  A    between atoms: C_23  and  O_25
REMARK   11  A    between atoms: C_26  and  O_28
REMARK                            x       y       z     vdW  Elec       q    Type
REMARK                         _______ _______ _______ _____ _____    ______ ____
ROOT
ATOM      1  C   UNL     1       2.548   3.779  19.220  0.00  0.00    +0.000 C 
ENDROOT
BRANCH   1   4
ATOM      2  O   UNL     1       2.288   5.840  21.180  0.00  0.00    +0.000 OA
ATOM      3  C   UNL     1       2.099   6.137  20.006  0.00  0.00    +0.000 C 
ATOM      4  N   UNL     1       2.233   5.228  18.973  0.00  0.00    +0.000 N 
ATOM      5  H   UNL     1       2.611   5.643  18.130  0.00  0.00    +0.000 HD
BRANCH   3   6
ATOM      6  C   UNL     1       1.810   7.532  19.602  0.00  0.00    +0.000 A 
ATOM      7  C   UNL     1       2.195   7.983  18.334  0.00  0.00    +0.000 A 
ATOM      8  C   UNL     1       1.985   9.320  17.979  0.00  0.00    +0.000 A 
ATOM      9  C   UNL     1       1.394  10.195  18.891  0.00  0.00    +0.000 A 
ATOM     10 CL   UNL     1       1.178  11.849  18.477  0.00  0.00    +0.000 Cl
ATOM     11  C   UNL     1       0.995   9.744  20.150  0.00  0.00    +0.000 A 
ATOM     12  C   UNL     1       1.203   8.410  20.508  0.00  0.00    +0.000 A 
ENDBRANCH   3   6
ENDBRANCH   1   4
BRANCH   1  13
ATOM     13  C   UNL     1       1.757   3.250  20.450  0.00  0.00    +0.000 C 
ATOM     14  O   UNL     1       2.268   2.873  21.499  0.00  0.00    +0.000 OA
BRANCH  13  15
ATOM     15  O   UNL     1       0.400   3.303  20.331  0.00  0.00    +0.000 OA
ATOM     16  H   UNL     1      -0.048   2.496  20.637  0.00  0.00    +0.000 HD
ENDBRANCH  13  15
ENDBRANCH   1  13
BRANCH   1  17
ATOM     17  C   UNL     1       2.082   2.961  17.992  0.00  0.00    +0.000 C 
ATOM     18  O   UNL     1       1.915   3.430  16.871  0.00  0.00    +0.000 OA
BRANCH  17  19
ATOM     19  O   UNL     1       1.940   1.625  18.189  0.00  0.00    +0.000 OA
ATOM     20  H   UNL     1       1.972   1.336  19.134  0.00  0.00    +0.000 HD
ENDBRANCH  17  19
ENDBRANCH   1  17
BRANCH   1  21
ATOM     21  C   UNL     1       4.051   3.486  19.495  0.00  0.00    +0.000 C 
BRANCH  21  22
ATOM     22  C   UNL     1       5.050   4.443  18.892  0.00  0.00    +0.000 A 
ATOM     23  C   UNL     1       5.682   5.514  19.499  0.00  0.00    +0.000 A 
ATOM     24  N   UNL     1       6.529   6.097  18.601  0.00  0.00    +0.000 N 
ATOM     25  C   UNL     1       6.488   5.417  17.416  0.00  0.00    +0.000 A 
ATOM     26  C   UNL     1       7.198   5.665  16.244  0.00  0.00    +0.000 A 
ATOM     27  C   UNL     1       7.045   4.770  15.185  0.00  0.00    +0.000 A 
ATOM     28  C   UNL     1       6.156   3.700  15.289  0.00  0.00    +0.000 A 
ATOM     29  C   UNL     1       5.431   3.478  16.471  0.00  0.00    +0.000 A 
ATOM     30  C   UNL     1       5.597   4.357  17.563  0.00  0.00    +0.000 A 
ATOM     31  H   UNL     1       7.133   6.885  18.791  0.00  0.00    +0.000 HD
BRANCH  27  32
ATOM     32  O   UNL     1       7.740   4.866  14.008  0.00  0.00    +0.000 OA
BRANCH  32  33
ATOM     33  C   UNL     1       6.918   5.104  12.862  0.00  0.00    +0.000 C 
BRANCH  33  34
ATOM     34  C   UNL     1       6.646   3.803  12.164  0.00  0.00    +0.000 A 
ATOM     35  C   UNL     1       5.334   3.357  11.973  0.00  0.00    +0.000 A 
ATOM     36  C   UNL     1       5.090   2.146  11.334  0.00  0.00    +0.000 A 
ATOM     37  C   UNL     1       6.159   1.374  10.875  0.00  0.00    +0.000 A 
ATOM     38  C   UNL     1       7.469   1.814  11.053  0.00  0.00    +0.000 A 
ATOM     39  C   UNL     1       7.715   3.024  11.694  0.00  0.00    +0.000 A 
ENDBRANCH  33  34
ENDBRANCH  32  33
ENDBRANCH  27  32
ENDBRANCH  21  22
ENDBRANCH   1  21
TORSDOF 11
ENDMDL
MODEL 9
REMARK VINA RESULT:      -8.5      4.523      8.071
REMARK  Name = 
REMARK  11 active torsions:
REMARK  status: ('A' for Active; 'I' for Inactive)
REMARK    1  A    between atoms: C_2  and  C_29
REMARK    2  A    between atoms: N_3  and  C_4
REMARK    3  A    between atoms: C_4  and  C_5
REMARK    4  A    between atoms: C_4  and  C_23
REMARK    5  A    between atoms: C_4  and  C_26
REMARK    6  A    between atoms: C_5  and  C_6
REMARK    7  A    between atoms: C_11  and  O_12
REMARK    8  A    between atoms: O_12  and  C_13
REMARK    9  A    between atoms: C_13  and  C_14
REMARK   10  A    between atoms: C_23  and  O_25
REMARK   11  A    between atoms: C_26  and  O_28
REMARK                            x       y       z     vdW  Elec       q    Type
REMARK                         _______ _______ _______ _____ _____    ______ ____
ROOT
ATOM      1  C   UNL     1       3.204   4.102  18.670  0.00  0.00    +0.000 C 
ENDROOT
BRANCH   1   4
ATOM      2  O   UNL     1       5.999   4.411  18.164  0.00  0.00    +0.000 OA
ATOM      3  C   UNL     1       5.241   4.380  17.201  0.00  0.00    +0.000 C 
ATOM      4  N   UNL     1       3.876   4.199  17.328  0.00  0.00    +0.000 N 
ATOM      5  H   UNL     1       3.480   3.650  16.575  0.00  0.00    +0.000 HD
BRANCH   3   6
ATOM      6  C   UNL     1       5.757   4.434  15.814  0.00  0.00    +0.000 A 
ATOM      7  C   UNL     1       5.083   3.752  14.795  0.00  0.00    +0.000 A 
ATOM      8  C   UNL     1       5.609   3.746  13.498  0.00  0.00    +0.000 A 
ATOM      9  C   UNL     1       6.802   4.416  13.231  0.00  0.00    +0.000 A 
ATOM     10 CL   UNL     1       7.477   4.370  11.650  0.00  0.00    +0.000 Cl
ATOM     11  C   UNL     1       7.468   5.109  14.242  0.00  0.00    +0.000 A 
ATOM     12  C   UNL     1       6.946   5.119  15.537  0.00  0.00    +0.000 A 
ENDBRANCH   3   6
ENDBRANCH   1   4
BRANCH   1  13
ATOM     13  C   UNL     1       1.666   3.945  18.500  0.00  0.00    +0.000 C 
ATOM     14  O   UNL     1       1.072   4.009  17.430  0.00  0.00    +0.000 OA
BRANCH  13  15
ATOM     15  O   UNL     1       0.987   3.640  19.642  0.00  0.00    +0.000 OA
ATOM     16  H   UNL     1       1.131   2.728  19.947  0.00  0.00    +0.000 HD
ENDBRANCH  13  15
ENDBRANCH   1  13
BRANCH   1  17
ATOM     17  C   UNL     1       3.717   2.827  19.382  0.00  0.00    +0.000 C 
ATOM     18  O   UNL     1       3.696   2.658  20.597  0.00  0.00    +0.000 OA
BRANCH  17  19
ATOM     19  O   UNL     1       4.130   1.821  18.571  0.00  0.00    +0.000 OA
ATOM     20  H   UNL     1       3.415   1.388  18.043  0.00  0.00    +0.000 HD
ENDBRANCH  17  19
ENDBRANCH   1  17
BRANCH   1  21
ATOM     21  C   UNL     1       3.429   5.334  19.592  0.00  0.00    +0.000 C 
BRANCH  21  22
ATOM     22  C   UNL     1       2.941   6.666  19.075  0.00  0.00    +0.000 A 
ATOM     23  C   UNL     1       3.211   7.262  17.856  0.00  0.00    +0.000 A 
ATOM     24  N   UNL     1       2.547   8.451  17.786  0.00  0.00    +0.000 N 
ATOM     25  C   UNL     1       1.821   8.645  18.928  0.00  0.00    +0.000 A 
ATOM     26  C   UNL     1       0.996   9.716  19.265  0.00  0.00    +0.000 A 
ATOM     27  C   UNL     1       0.289   9.642  20.465  0.00  0.00    +0.000 A 
ATOM     28  C   UNL     1       0.462   8.555  21.322  0.00  0.00    +0.000 A 
ATOM     29  C   UNL     1       1.316   7.495  20.975  0.00  0.00    +0.000 A 
ATOM     30  C   UNL     1       2.016   7.538  19.750  0.00  0.00    +0.000 A 
ATOM     31  H   UNL     1       2.549   9.079  16.993  0.00  0.00    +0.000 HD
BRANCH  27  32
ATOM     32  O   UNL     1      -0.606  10.597  20.874  0.00  0.00    +0.000 OA
BRANCH  32  33
ATOM     33  C   UNL     1      -0.113  11.454  21.908  0.00  0.00    +0.000 C 
BRANCH  33  34
ATOM     34  C   UNL     1      -1.244  12.273  22.458  0.00  0.00    +0.000 A 
ATOM     35  C   UNL     1      -2.244  11.677  23.236  0.00  0.00    +0.000 A 
ATOM     36  C   UNL     1      -3.294  12.441  23.735  0.00  0.00    +0.000 A 
ATOM     37  C   UNL     1      -3.350  13.809  23.463  0.00  0.00    +0.000 A 
ATOM     38  C   UNL     1      -2.356  14.413  22.697  0.00  0.00    +0.000 A 
ATOM     39  C   UNL     1      -1.305  13.651  22.196  0.00  0.00    +0.000 A 
ENDBRANCH  33  34
ENDBRANCH  32  33
ENDBRANCH  27  32
ENDBRANCH  21  22
ENDBRANCH   1  21
TORSDOF 11
ENDMDL
