MODEL 1
REMARK VINA RESULT:      -8.0      0.000      0.000
REMARK  Name = 
REMARK  5 active torsions:
REMARK  status: ('A' for Active; 'I' for Inactive)
REMARK    1  A    between atoms: C_1  and  N_2
REMARK    2  A    between atoms: N_2  and  C_3
REMARK    3  A    between atoms: N_2  and  C_4
REMARK    4  A    between atoms: C_7  and  C_8
REMARK    5  A    between atoms: C_13  and  C_14
REMARK                            x       y       z     vdW  Elec       q    Type
REMARK                         _______ _______ _______ _____ _____    ______ ____
ROOT
ATOM      1  C   UNL     1       1.477   8.513  19.911  0.00  0.00    +0.000 A 
ATOM      2  N   UNL     1       1.113   8.258  21.151  0.00  0.00    +0.000 NA
ATOM      3  C   UNL     1       0.340   9.281  21.657  0.00  0.00    +0.000 A 
ATOM      4  C   UNL     1      -0.231   9.305  22.939  0.00  0.00    +0.000 A 
ATOM      5  C   UNL     1      -0.988  10.409  23.347  0.00  0.00    +0.000 A 
ATOM      6  C   UNL     1      -1.189  11.519  22.510  0.00  0.00    +0.000 A 
ATOM      7  C   UNL     1      -0.623  11.488  21.216  0.00  0.00    +0.000 A 
ATOM      8  C   UNL     1       0.134  10.365  20.807  0.00  0.00    +0.000 A 
ATOM      9  S   UNL     1       0.937  10.038  19.311  0.00  0.00    +0.000 S 
ENDROOT
BRANCH   6  10
ATOM     10  C   UNL     1      -1.951  12.716  22.953  0.00  0.00    +0.000 A 
ATOM     11  N   UNL     1      -1.434  13.731  23.622  0.00  0.00    +0.000 NA
ATOM     12  C   UNL     1      -2.416  14.657  23.955  0.00  0.00    +0.000 A 
ATOM     13  C   UNL     1      -2.229  15.848  24.692  0.00  0.00    +0.000 A 
ATOM     14  C   UNL     1      -3.324  16.670  24.980  0.00  0.00    +0.000 A 
ATOM     15  C   UNL     1      -4.589  16.320  24.533  0.00  0.00    +0.000 A 
ATOM     16  F   UNL     1      -5.630  17.112  24.826  0.00  0.00    +0.000 F 
ATOM     17  C   UNL     1      -4.810  15.163  23.790  0.00  0.00    +0.000 A 
ATOM     18  C   UNL     1      -3.703  14.343  23.516  0.00  0.00    +0.000 A 
ATOM     19  S   UNL     1      -3.647  12.866  22.648  0.00  0.00    +0.000 S 
ENDBRANCH   6  10
BRANCH   1  23
ATOM     20  C   UNL     1       4.067   5.920  17.546  0.00  0.00    +0.000 A 
ATOM     21  C   UNL     1       3.474   5.468  18.739  0.00  0.00    +0.000 A 
ATOM     22  C   UNL     1       2.612   6.273  19.513  0.00  0.00    +0.000 A 
ATOM     23  C   UNL     1       2.294   7.573  19.115  0.00  0.00    +0.000 A 
ATOM     24  C   UNL     1       2.849   8.023  17.910  0.00  0.00    +0.000 A 
ATOM     25  C   UNL     1       3.707   7.214  17.147  0.00  0.00    +0.000 A 
BRANCH  20  27
ATOM     26  C   UNL     1       5.796   5.744  15.778  0.00  0.00    +0.000 C 
ATOM     27  N   UNL     1       4.943   5.137  16.794  0.00  0.00    +0.000 N 
ATOM     28  C   UNL     1       4.705   3.699  16.679  0.00  0.00    +0.000 C 
ENDBRANCH  20  27
ENDBRANCH   1  23
TORSDOF 3
ENDMDL
MODEL 2
REMARK VINA RESULT:      -8.0      0.470      1.015
REMARK  Name = 
REMARK  5 active torsions:
REMARK  status: ('A' for Active; 'I' for Inactive)
REMARK    1  A    between atoms: C_1  and  N_2
REMARK    2  A    between atoms: N_2  and  C_3
REMARK    3  A    between atoms: N_2  and  C_4
REMARK    4  A    between atoms: C_7  and  C_8
REMARK    5  A    between atoms: C_13  and  C_14
REMARK                            x       y       z     vdW  Elec       q    Type
REMARK                         _______ _______ _______ _____ _____    ______ ____
ROOT
ATOM      1  C   UNL     1       1.516   8.545  19.873  0.00  0.00    +0.000 A 
ATOM      2  N   UNL     1       1.219   8.345  21.141  0.00  0.00    +0.000 NA
ATOM      3  C   UNL     1       0.373   9.326  21.608  0.00  0.00    +0.000 A 
ATOM      4  C   UNL     1      -0.155   9.388  22.908  0.00  0.00    +0.000 A 
ATOM      5  C   UNL     1      -0.997  10.445  23.272  0.00  0.00    +0.000 A 
ATOM      6  C   UNL     1      -1.328  11.471  22.373  0.00  0.00    +0.000 A 
ATOM      7  C   UNL     1      -0.805  11.402  21.061  0.00  0.00    +0.000 A 
ATOM      8  C   UNL     1       0.039  10.326  20.698  0.00  0.00    +0.000 A 
ATOM      9  S   UNL     1       0.818   9.969  19.196  0.00  0.00    +0.000 S 
ENDROOT
BRANCH   6  10
ATOM     10  C   UNL     1      -2.183  12.623  22.765  0.00  0.00    +0.000 A 
ATOM     11  N   UNL     1      -1.857  13.526  23.672  0.00  0.00    +0.000 NA
ATOM     12  C   UNL     1      -2.895  14.429  23.868  0.00  0.00    +0.000 A 
ATOM     13  C   UNL     1      -2.905  15.507  24.781  0.00  0.00    +0.000 A 
ATOM     14  C   UNL     1      -4.041  16.317  24.891  0.00  0.00    +0.000 A 
ATOM     15  C   UNL     1      -5.150  16.067  24.098  0.00  0.00    +0.000 A 
ATOM     16  F   UNL     1      -6.235  16.843  24.223  0.00  0.00    +0.000 F 
ATOM     17  C   UNL     1      -5.171  15.023  23.175  0.00  0.00    +0.000 A 
ATOM     18  C   UNL     1      -4.027  14.214  23.081  0.00  0.00    +0.000 A 
ATOM     19  S   UNL     1      -3.746  12.861  22.066  0.00  0.00    +0.000 S 
ENDBRANCH   6  10
BRANCH   1  23
ATOM     20  C   UNL     1       3.908   5.669  17.628  0.00  0.00    +0.000 A 
ATOM     21  C   UNL     1       3.768   7.000  17.194  0.00  0.00    +0.000 A 
ATOM     22  C   UNL     1       3.022   7.961  17.910  0.00  0.00    +0.000 A 
ATOM     23  C   UNL     1       2.390   7.629  19.110  0.00  0.00    +0.000 A 
ATOM     24  C   UNL     1       2.552   6.317  19.573  0.00  0.00    +0.000 A 
ATOM     25  C   UNL     1       3.295   5.368  18.852  0.00  0.00    +0.000 A 
BRANCH  20  27
ATOM     26  C   UNL     1       5.343   5.077  15.696  0.00  0.00    +0.000 C 
ATOM     27  N   UNL     1       4.619   4.710  16.908  0.00  0.00    +0.000 N 
ATOM     28  C   UNL     1       4.290   3.295  17.075  0.00  0.00    +0.000 C 
ENDBRANCH  20  27
ENDBRANCH   1  23
TORSDOF 3
ENDMDL
MODEL 3
REMARK VINA RESULT:      -8.0      0.902      1.639
REMARK  Name = 
REMARK  5 active torsions:
REMARK  status: ('A' for Active; 'I' for Inactive)
REMARK    1  A    between atoms: C_1  and  N_2
REMARK    2  A    between atoms: N_2  and  C_3
REMARK    3  A    between atoms: N_2  and  C_4
REMARK    4  A    between atoms: C_7  and  C_8
REMARK    5  A    between atoms: C_13  and  C_14
REMARK                            x       y       z     vdW  Elec       q    Type
REMARK                         _______ _______ _______ _____ _____    ______ ____
ROOT
ATOM      1  C   UNL     1       1.466   8.615  19.891  0.00  0.00    +0.000 A 
ATOM      2  N   UNL     1       1.281   8.433  21.182  0.00  0.00    +0.000 NA
ATOM      3  C   UNL     1       0.377   9.345  21.683  0.00  0.00    +0.000 A 
ATOM      4  C   UNL     1      -0.061   9.401  23.016  0.00  0.00    +0.000 A 
ATOM      5  C   UNL     1      -0.975  10.385  23.411  0.00  0.00    +0.000 A 
ATOM      6  C   UNL     1      -1.469  11.342  22.509  0.00  0.00    +0.000 A 
ATOM      7  C   UNL     1      -1.036  11.276  21.165  0.00  0.00    +0.000 A 
ATOM      8  C   UNL     1      -0.118  10.274  20.771  0.00  0.00    +0.000 A 
ATOM      9  S   UNL     1       0.584   9.940  19.227  0.00  0.00    +0.000 S 
ENDROOT
BRANCH   6  10
ATOM     10  C   UNL     1      -2.403  12.419  22.931  0.00  0.00    +0.000 A 
ATOM     11  N   UNL     1      -3.720  12.334  22.879  0.00  0.00    +0.000 NA
ATOM     12  C   UNL     1      -4.310  13.530  23.270  0.00  0.00    +0.000 A 
ATOM     13  C   UNL     1      -5.694  13.808  23.309  0.00  0.00    +0.000 A 
ATOM     14  C   UNL     1      -6.141  15.076  23.696  0.00  0.00    +0.000 A 
ATOM     15  C   UNL     1      -5.226  16.055  24.050  0.00  0.00    +0.000 A 
ATOM     16  F   UNL     1      -5.668  17.269  24.407  0.00  0.00    +0.000 F 
ATOM     17  C   UNL     1      -3.854  15.814  24.040  0.00  0.00    +0.000 A 
ATOM     18  C   UNL     1      -3.419  14.539  23.641  0.00  0.00    +0.000 A 
ATOM     19  S   UNL     1      -1.819  13.939  23.512  0.00  0.00    +0.000 S 
ENDBRANCH   6  10
BRANCH   1  23
ATOM     20  C   UNL     1       3.953   5.913  17.537  0.00  0.00    +0.000 A 
ATOM     21  C   UNL     1       3.747   7.247  17.142  0.00  0.00    +0.000 A 
ATOM     22  C   UNL     1       2.970   8.153  17.893  0.00  0.00    +0.000 A 
ATOM     23  C   UNL     1       2.369   7.761  19.091  0.00  0.00    +0.000 A 
ATOM     24  C   UNL     1       2.596   6.446  19.516  0.00  0.00    +0.000 A 
ATOM     25  C   UNL     1       3.370   5.551  18.760  0.00  0.00    +0.000 A 
BRANCH  20  27
ATOM     26  C   UNL     1       5.377   5.436  15.565  0.00  0.00    +0.000 C 
ATOM     27  N   UNL     1       4.697   5.006  16.781  0.00  0.00    +0.000 N 
ATOM     28  C   UNL     1       4.441   3.574  16.921  0.00  0.00    +0.000 C 
ENDBRANCH  20  27
ENDBRANCH   1  23
TORSDOF 3
ENDMDL
MODEL 4
REMARK VINA RESULT:      -8.0      1.435      1.799
REMARK  Name = 
REMARK  5 active torsions:
REMARK  status: ('A' for Active; 'I' for Inactive)
REMARK    1  A    between atoms: C_1  and  N_2
REMARK    2  A    between atoms: N_2  and  C_3
REMARK    3  A    between atoms: N_2  and  C_4
REMARK    4  A    between atoms: C_7  and  C_8
REMARK    5  A    between atoms: C_13  and  C_14
REMARK                            x       y       z     vdW  Elec       q    Type
REMARK                         _______ _______ _______ _____ _____    ______ ____
ROOT
ATOM      1  C   UNL     1       2.208   7.878  18.850  0.00  0.00    +0.000 A 
ATOM      2  N   UNL     1       1.969   7.679  20.130  0.00  0.00    +0.000 NA
ATOM      3  C   UNL     1       1.136   8.655  20.632  0.00  0.00    +0.000 A 
ATOM      4  C   UNL     1       0.665   8.714  21.954  0.00  0.00    +0.000 A 
ATOM      5  C   UNL     1      -0.168   9.765  22.353  0.00  0.00    +0.000 A 
ATOM      6  C   UNL     1      -0.546  10.788  21.467  0.00  0.00    +0.000 A 
ATOM      7  C   UNL     1      -0.081  10.720  20.134  0.00  0.00    +0.000 A 
ATOM      8  C   UNL     1       0.754   9.650  19.736  0.00  0.00    +0.000 A 
ATOM      9  S   UNL     1       1.470   9.296  18.202  0.00  0.00    +0.000 S 
ENDROOT
BRANCH   6  10
ATOM     10  C   UNL     1      -1.392  11.933  21.896  0.00  0.00    +0.000 A 
ATOM     11  N   UNL     1      -2.056  11.992  23.035  0.00  0.00    +0.000 NA
ATOM     12  C   UNL     1      -2.812  13.156  23.110  0.00  0.00    +0.000 A 
ATOM     13  C   UNL     1      -3.665  13.535  24.170  0.00  0.00    +0.000 A 
ATOM     14  C   UNL     1      -4.392  14.728  24.090  0.00  0.00    +0.000 A 
ATOM     15  C   UNL     1      -4.266  15.541  22.974  0.00  0.00    +0.000 A 
ATOM     16  F   UNL     1      -4.977  16.675  22.906  0.00  0.00    +0.000 F 
ATOM     17  C   UNL     1      -3.422  15.210  21.916  0.00  0.00    +0.000 A 
ATOM     18  C   UNL     1      -2.705  14.006  22.007  0.00  0.00    +0.000 A 
ATOM     19  S   UNL     1      -1.609  13.318  20.883  0.00  0.00    +0.000 S 
ENDBRANCH   6  10
BRANCH   1  23
ATOM     20  C   UNL     1       4.911   5.310  16.586  0.00  0.00    +0.000 A 
ATOM     21  C   UNL     1       3.849   4.772  17.337  0.00  0.00    +0.000 A 
ATOM     22  C   UNL     1       2.943   5.576  18.059  0.00  0.00    +0.000 A 
ATOM     23  C   UNL     1       3.054   6.968  18.050  0.00  0.00    +0.000 A 
ATOM     24  C   UNL     1       4.085   7.519  17.277  0.00  0.00    +0.000 A 
ATOM     25  C   UNL     1       4.983   6.709  16.563  0.00  0.00    +0.000 A 
BRANCH  20  27
ATOM     26  C   UNL     1       7.189   4.352  16.389  0.00  0.00    +0.000 C 
ATOM     27  N   UNL     1       5.826   4.516  15.895  0.00  0.00    +0.000 N 
ATOM     28  C   UNL     1       5.599   4.222  14.481  0.00  0.00    +0.000 C 
ENDBRANCH  20  27
ENDBRANCH   1  23
TORSDOF 3
ENDMDL
MODEL 5
REMARK VINA RESULT:      -7.8      4.261     11.418
REMARK  Name = 
REMARK  5 active torsions:
REMARK  status: ('A' for Active; 'I' for Inactive)
REMARK    1  A    between atoms: C_1  and  N_2
REMARK    2  A    between atoms: N_2  and  C_3
REMARK    3  A    between atoms: N_2  and  C_4
REMARK    4  A    between atoms: C_7  and  C_8
REMARK    5  A    between atoms: C_13  and  C_14
REMARK                            x       y       z     vdW  Elec       q    Type
REMARK                         _______ _______ _______ _____ _____    ______ ____
ROOT
ATOM      1  C   UNL     1      -0.980  11.382  20.993  0.00  0.00    +0.000 A 
ATOM      2  N   UNL     1      -0.666  10.342  21.738  0.00  0.00    +0.000 NA
ATOM      3  C   UNL     1       0.210   9.509  21.077  0.00  0.00    +0.000 A 
ATOM      4  C   UNL     1       0.761   8.331  21.606  0.00  0.00    +0.000 A 
ATOM      5  C   UNL     1       1.632   7.557  20.831  0.00  0.00    +0.000 A 
ATOM      6  C   UNL     1       1.971   7.916  19.516  0.00  0.00    +0.000 A 
ATOM      7  C   UNL     1       1.425   9.108  18.990  0.00  0.00    +0.000 A 
ATOM      8  C   UNL     1       0.551   9.890  19.781  0.00  0.00    +0.000 A 
ATOM      9  S   UNL     1      -0.261  11.374  19.425  0.00  0.00    +0.000 S 
ENDROOT
BRANCH   6  10
ATOM     10  C   UNL     1       2.858   7.075  18.669  0.00  0.00    +0.000 A 
ATOM     11  N   UNL     1       3.600   7.529  17.676  0.00  0.00    +0.000 NA
ATOM     12  C   UNL     1       4.257   6.487  17.031  0.00  0.00    +0.000 A 
ATOM     13  C   UNL     1       5.110   6.601  15.911  0.00  0.00    +0.000 A 
ATOM     14  C   UNL     1       5.677   5.453  15.346  0.00  0.00    +0.000 A 
ATOM     15  C   UNL     1       5.410   4.208  15.893  0.00  0.00    +0.000 A 
ATOM     16  F   UNL     1       5.951   3.116  15.335  0.00  0.00    +0.000 F 
ATOM     17  C   UNL     1       4.587   4.057  17.007  0.00  0.00    +0.000 A 
ATOM     18  C   UNL     1       4.018   5.217  17.558  0.00  0.00    +0.000 A 
ATOM     19  S   UNL     1       2.967   5.365  18.904  0.00  0.00    +0.000 S 
ENDBRANCH   6  10
BRANCH   1  23
ATOM     20  C   UNL     1      -3.557  14.505  22.615  0.00  0.00    +0.000 A 
ATOM     21  C   UNL     1      -2.816  14.708  21.436  0.00  0.00    +0.000 A 
ATOM     22  C   UNL     1      -1.994  13.710  20.871  0.00  0.00    +0.000 A 
ATOM     23  C   UNL     1      -1.886  12.450  21.463  0.00  0.00    +0.000 A 
ATOM     24  C   UNL     1      -2.646  12.222  22.617  0.00  0.00    +0.000 A 
ATOM     25  C   UNL     1      -3.461  13.222  23.172  0.00  0.00    +0.000 A 
BRANCH  20  27
ATOM     26  C   UNL     1      -4.016  16.046  24.502  0.00  0.00    +0.000 C 
ATOM     27  N   UNL     1      -4.348  15.499  23.191  0.00  0.00    +0.000 N 
ATOM     28  C   UNL     1      -5.725  15.677  22.734  0.00  0.00    +0.000 C 
ENDBRANCH  20  27
ENDBRANCH   1  23
TORSDOF 3
ENDMDL
MODEL 6
REMARK VINA RESULT:      -7.8      4.207     11.391
REMARK  Name = 
REMARK  5 active torsions:
REMARK  status: ('A' for Active; 'I' for Inactive)
REMARK    1  A    between atoms: C_1  and  N_2
REMARK    2  A    between atoms: N_2  and  C_3
REMARK    3  A    between atoms: N_2  and  C_4
REMARK    4  A    between atoms: C_7  and  C_8
REMARK    5  A    between atoms: C_13  and  C_14
REMARK                            x       y       z     vdW  Elec       q    Type
REMARK                         _______ _______ _______ _____ _____    ______ ____
ROOT
ATOM      1  C   UNL     1      -0.657  11.586  22.186  0.00  0.00    +0.000 A 
ATOM      2  N   UNL     1      -0.121  11.723  20.990  0.00  0.00    +0.000 NA
ATOM      3  C   UNL     1       0.426  10.534  20.558  0.00  0.00    +0.000 A 
ATOM      4  C   UNL     1       1.046  10.335  19.314  0.00  0.00    +0.000 A 
ATOM      5  C   UNL     1       1.578   9.081  18.991  0.00  0.00    +0.000 A 
ATOM      6  C   UNL     1       1.525   8.001  19.887  0.00  0.00    +0.000 A 
ATOM      7  C   UNL     1       0.889   8.200  21.133  0.00  0.00    +0.000 A 
ATOM      8  C   UNL     1       0.346   9.468  21.450  0.00  0.00    +0.000 A 
ATOM      9  S   UNL     1      -0.479  10.012  22.869  0.00  0.00    +0.000 S 
ENDROOT
BRANCH   6  10
ATOM     10  C   UNL     1       2.130   6.680  19.570  0.00  0.00    +0.000 A 
ATOM     11  N   UNL     1       2.844   6.420  18.491  0.00  0.00    +0.000 NA
ATOM     12  C   UNL     1       3.205   5.078  18.446  0.00  0.00    +0.000 A 
ATOM     13  C   UNL     1       3.945   4.444  17.423  0.00  0.00    +0.000 A 
ATOM     14  C   UNL     1       4.205   3.071  17.498  0.00  0.00    +0.000 A 
ATOM     15  C   UNL     1       3.744   2.337  18.581  0.00  0.00    +0.000 A 
ATOM     16  F   UNL     1       3.991   1.021  18.634  0.00  0.00    +0.000 F 
ATOM     17  C   UNL     1       3.025   2.931  19.617  0.00  0.00    +0.000 A 
ATOM     18  C   UNL     1       2.765   4.308  19.523  0.00  0.00    +0.000 A 
ATOM     19  S   UNL     1       1.909   5.317  20.612  0.00  0.00    +0.000 S 
ENDBRANCH   6  10
BRANCH   1  23
ATOM     20  C   UNL     1      -2.606  15.019  24.041  0.00  0.00    +0.000 A 
ATOM     21  C   UNL     1      -3.234  13.761  23.992  0.00  0.00    +0.000 A 
ATOM     22  C   UNL     1      -2.621  12.625  23.422  0.00  0.00    +0.000 A 
ATOM     23  C   UNL     1      -1.335  12.699  22.883  0.00  0.00    +0.000 A 
ATOM     24  C   UNL     1      -0.684  13.937  22.958  0.00  0.00    +0.000 A 
ATOM     25  C   UNL     1      -1.304  15.062  23.526  0.00  0.00    +0.000 A 
BRANCH  20  27
ATOM     26  C   UNL     1      -2.503  17.020  25.501  0.00  0.00    +0.000 C 
ATOM     27  N   UNL     1      -3.222  16.150  24.577  0.00  0.00    +0.000 N 
ATOM     28  C   UNL     1      -4.681  16.234  24.596  0.00  0.00    +0.000 C 
ENDBRANCH  20  27
ENDBRANCH   1  23
TORSDOF 3
ENDMDL
MODEL 7
REMARK VINA RESULT:      -7.8      0.819      1.223
REMARK  Name = 
REMARK  5 active torsions:
REMARK  status: ('A' for Active; 'I' for Inactive)
REMARK    1  A    between atoms: C_1  and  N_2
REMARK    2  A    between atoms: N_2  and  C_3
REMARK    3  A    between atoms: N_2  and  C_4
REMARK    4  A    between atoms: C_7  and  C_8
REMARK    5  A    between atoms: C_13  and  C_14
REMARK                            x       y       z     vdW  Elec       q    Type
REMARK                         _______ _______ _______ _____ _____    ______ ____
ROOT
ATOM      1  C   UNL     1       1.480   8.449  19.837  0.00  0.00    +0.000 A 
ATOM      2  N   UNL     1       1.188   8.216  21.100  0.00  0.00    +0.000 NA
ATOM      3  C   UNL     1       0.391   9.216  21.614  0.00  0.00    +0.000 A 
ATOM      4  C   UNL     1      -0.119   9.252  22.921  0.00  0.00    +0.000 A 
ATOM      5  C   UNL     1      -0.909  10.331  23.334  0.00  0.00    +0.000 A 
ATOM      6  C   UNL     1      -1.203  11.404  22.477  0.00  0.00    +0.000 A 
ATOM      7  C   UNL     1      -0.698  11.361  21.158  0.00  0.00    +0.000 A 
ATOM      8  C   UNL     1       0.093  10.263  20.745  0.00  0.00    +0.000 A 
ATOM      9  S   UNL     1       0.839   9.928  19.221  0.00  0.00    +0.000 S 
ENDROOT
BRANCH   6  10
ATOM     10  C   UNL     1      -2.001  12.577  22.923  0.00  0.00    +0.000 A 
ATOM     11  N   UNL     1      -3.318  12.601  23.009  0.00  0.00    +0.000 NA
ATOM     12  C   UNL     1      -3.768  13.862  23.382  0.00  0.00    +0.000 A 
ATOM     13  C   UNL     1      -5.115  14.256  23.543  0.00  0.00    +0.000 A 
ATOM     14  C   UNL     1      -5.419  15.577  23.893  0.00  0.00    +0.000 A 
ATOM     15  C   UNL     1      -4.397  16.493  24.092  0.00  0.00    +0.000 A 
ATOM     16  F   UNL     1      -4.703  17.757  24.416  0.00  0.00    +0.000 F 
ATOM     17  C   UNL     1      -3.057  16.137  23.959  0.00  0.00    +0.000 A 
ATOM     18  C   UNL     1      -2.768  14.810  23.599  0.00  0.00    +0.000 A 
ATOM     19  S   UNL     1      -1.242  14.072  23.348  0.00  0.00    +0.000 S 
ENDBRANCH   6  10
BRANCH   1  23
ATOM     20  C   UNL     1       4.097   5.895  17.459  0.00  0.00    +0.000 A 
ATOM     21  C   UNL     1       3.414   5.396  18.583  0.00  0.00    +0.000 A 
ATOM     22  C   UNL     1       2.541   6.189  19.358  0.00  0.00    +0.000 A 
ATOM     23  C   UNL     1       2.303   7.525  19.029  0.00  0.00    +0.000 A 
ATOM     24  C   UNL     1       2.949   8.024  17.891  0.00  0.00    +0.000 A 
ATOM     25  C   UNL     1       3.817   7.227  17.127  0.00  0.00    +0.000 A 
BRANCH  20  27
ATOM     26  C   UNL     1       5.689   5.697  15.569  0.00  0.00    +0.000 C 
ATOM     27  N   UNL     1       4.983   5.122  16.709  0.00  0.00    +0.000 N 
ATOM     28  C   UNL     1       4.879   3.665  16.751  0.00  0.00    +0.000 C 
ENDBRANCH  20  27
ENDBRANCH   1  23
TORSDOF 3
ENDMDL
MODEL 8
REMARK VINA RESULT:      -7.6      1.468      1.806
REMARK  Name = 
REMARK  5 active torsions:
REMARK  status: ('A' for Active; 'I' for Inactive)
REMARK    1  A    between atoms: C_1  and  N_2
REMARK    2  A    between atoms: N_2  and  C_3
REMARK    3  A    between atoms: N_2  and  C_4
REMARK    4  A    between atoms: C_7  and  C_8
REMARK    5  A    between atoms: C_13  and  C_14
REMARK                            x       y       z     vdW  Elec       q    Type
REMARK                         _______ _______ _______ _____ _____    ______ ____
ROOT
ATOM      1  C   UNL     1       2.203   7.876  18.997  0.00  0.00    +0.000 A 
ATOM      2  N   UNL     1       1.886   7.713  20.265  0.00  0.00    +0.000 NA
ATOM      3  C   UNL     1       1.027   8.704  20.688  0.00  0.00    +0.000 A 
ATOM      4  C   UNL     1       0.477   8.802  21.976  0.00  0.00    +0.000 A 
ATOM      5  C   UNL     1      -0.376   9.865  22.294  0.00  0.00    +0.000 A 
ATOM      6  C   UNL     1      -0.697  10.862  21.358  0.00  0.00    +0.000 A 
ATOM      7  C   UNL     1      -0.152  10.756  20.059  0.00  0.00    +0.000 A 
ATOM      8  C   UNL     1       0.703   9.674  19.742  0.00  0.00    +0.000 A 
ATOM      9  S   UNL     1       1.509   9.276  18.265  0.00  0.00    +0.000 S 
ENDROOT
BRANCH   6  10
ATOM     10  C   UNL     1      -1.564  12.020  21.702  0.00  0.00    +0.000 A 
ATOM     11  N   UNL     1      -1.823  13.031  20.892  0.00  0.00    +0.000 NA
ATOM     12  C   UNL     1      -2.602  13.990  21.529  0.00  0.00    +0.000 A 
ATOM     13  C   UNL     1      -3.044  15.212  20.977  0.00  0.00    +0.000 A 
ATOM     14  C   UNL     1      -3.798  16.098  21.754  0.00  0.00    +0.000 A 
ATOM     15  C   UNL     1      -4.120  15.769  23.062  0.00  0.00    +0.000 A 
ATOM     16  F   UNL     1      -4.834  16.632  23.798  0.00  0.00    +0.000 F 
ATOM     17  C   UNL     1      -3.717  14.566  23.636  0.00  0.00    +0.000 A 
ATOM     18  C   UNL     1      -2.953  13.691  22.847  0.00  0.00    +0.000 A 
ATOM     19  S   UNL     1      -2.302  12.160  23.259  0.00  0.00    +0.000 S 
ENDBRANCH   6  10
BRANCH   1  23
ATOM     20  C   UNL     1       5.025   5.283  16.914  0.00  0.00    +0.000 A 
ATOM     21  C   UNL     1       4.148   4.774  17.889  0.00  0.00    +0.000 A 
ATOM     22  C   UNL     1       3.206   5.581  18.563  0.00  0.00    +0.000 A 
ATOM     23  C   UNL     1       3.094   6.943  18.276  0.00  0.00    +0.000 A 
ATOM     24  C   UNL     1       3.936   7.455  17.281  0.00  0.00    +0.000 A 
ATOM     25  C   UNL     1       4.871   6.644  16.617  0.00  0.00    +0.000 A 
BRANCH  20  27
ATOM     26  C   UNL     1       7.358   4.464  16.735  0.00  0.00    +0.000 C 
ATOM     27  N   UNL     1       5.976   4.494  16.268  0.00  0.00    +0.000 N 
ATOM     28  C   UNL     1       5.738   4.063  14.891  0.00  0.00    +0.000 C 
ENDBRANCH  20  27
ENDBRANCH   1  23
TORSDOF 3
ENDMDL
MODEL 9
REMARK VINA RESULT:      -7.6      1.073      1.587
REMARK  Name = 
REMARK  5 active torsions:
REMARK  status: ('A' for Active; 'I' for Inactive)
REMARK    1  A    between atoms: C_1  and  N_2
REMARK    2  A    between atoms: N_2  and  C_3
REMARK    3  A    between atoms: N_2  and  C_4
REMARK    4  A    between atoms: C_7  and  C_8
REMARK    5  A    between atoms: C_13  and  C_14
REMARK                            x       y       z     vdW  Elec       q    Type
REMARK                         _______ _______ _______ _____ _____    ______ ____
ROOT
ATOM      1  C   UNL     1       1.477   8.293  20.031  0.00  0.00    +0.000 A 
ATOM      2  N   UNL     1       1.057   8.173  21.274  0.00  0.00    +0.000 NA
ATOM      3  C   UNL     1       0.340   9.284  21.660  0.00  0.00    +0.000 A 
ATOM      4  C   UNL     1      -0.270   9.458  22.913  0.00  0.00    +0.000 A 
ATOM      5  C   UNL     1      -0.963  10.640  23.196  0.00  0.00    +0.000 A 
ATOM      6  C   UNL     1      -1.061  11.683  22.260  0.00  0.00    +0.000 A 
ATOM      7  C   UNL     1      -0.457  11.501  20.995  0.00  0.00    +0.000 A 
ATOM      8  C   UNL     1       0.235  10.300  20.713  0.00  0.00    +0.000 A 
ATOM      9  S   UNL     1       1.062   9.791  19.283  0.00  0.00    +0.000 S 
ENDROOT
BRANCH   6  10
ATOM     10  C   UNL     1      -1.755  12.961  22.569  0.00  0.00    +0.000 A 
ATOM     11  N   UNL     1      -2.141  13.334  23.776  0.00  0.00    +0.000 NA
ATOM     12  C   UNL     1      -2.827  14.541  23.726  0.00  0.00    +0.000 A 
ATOM     13  C   UNL     1      -3.406  15.221  24.821  0.00  0.00    +0.000 A 
ATOM     14  C   UNL     1      -4.098  16.419  24.612  0.00  0.00    +0.000 A 
ATOM     15  C   UNL     1      -4.206  16.943  23.332  0.00  0.00    +0.000 A 
ATOM     16  F   UNL     1      -4.881  18.085  23.146  0.00  0.00    +0.000 F 
ATOM     17  C   UNL     1      -3.634  16.310  22.231  0.00  0.00    +0.000 A 
ATOM     18  C   UNL     1      -2.950  15.104  22.455  0.00  0.00    +0.000 A 
ATOM     19  S   UNL     1      -2.157  14.090  21.323  0.00  0.00    +0.000 S 
ENDBRANCH   6  10
BRANCH   1  23
ATOM     20  C   UNL     1       3.563   5.023  18.035  0.00  0.00    +0.000 A 
ATOM     21  C   UNL     1       3.598   6.333  17.522  0.00  0.00    +0.000 A 
ATOM     22  C   UNL     1       2.955   7.417  18.157  0.00  0.00    +0.000 A 
ATOM     23  C   UNL     1       2.254   7.236  19.351  0.00  0.00    +0.000 A 
ATOM     24  C   UNL     1       2.242   5.944  19.892  0.00  0.00    +0.000 A 
ATOM     25  C   UNL     1       2.884   4.871  19.251  0.00  0.00    +0.000 A 
BRANCH  20  27
ATOM     26  C   UNL     1       3.890   2.576  17.813  0.00  0.00    +0.000 C 
ATOM     27  N   UNL     1       4.172   3.944  17.394  0.00  0.00    +0.000 N 
ATOM     28  C   UNL     1       5.404   4.160  16.638  0.00  0.00    +0.000 C 
ENDBRANCH  20  27
ENDBRANCH   1  23
TORSDOF 3
ENDMDL
