MODEL 1
REMARK VINA RESULT:      -8.3      0.000      0.000
REMARK  Name = 
REMARK  6 active torsions:
REMARK  status: ('A' for Active; 'I' for Inactive)
REMARK    1  A    between atoms: C_1  and  C_2
REMARK    2  A    between atoms: C_6  and  N_7
REMARK    3  A    between atoms: C_8  and  O_10
REMARK    4  A    between atoms: O_10  and  C_11
REMARK    5  A    between atoms: C_11  and  C_12
REMARK    6  A    between atoms: C_16  and  C_17
REMARK                            x       y       z     vdW  Elec       q    Type
REMARK                         _______ _______ _______ _____ _____    ______ ____
ROOT
ATOM      1  C   UNL     1       3.121   5.503  19.885  0.00  0.00    +0.000 C 
ENDROOT
BRANCH   1   2
ATOM      2  C   UNL     1       2.485   6.799  19.446  0.00  0.00    +0.000 A 
ATOM      3  C   UNL     1       2.746   7.322  18.180  0.00  0.00    +0.000 A 
ATOM      4  C   UNL     1       2.222   8.558  17.817  0.00  0.00    +0.000 A 
ATOM      5  C   UNL     1       1.458   9.288  18.728  0.00  0.00    +0.000 A 
ATOM      6  C   UNL     1       1.174   8.800  20.018  0.00  0.00    +0.000 A 
ATOM      7  C   UNL     1       1.677   7.526  20.340  0.00  0.00    +0.000 A 
BRANCH   6   8
ATOM      8  C   UNL     1       0.449   9.630  21.014  0.00  0.00    +0.000 A 
ATOM      9  C   UNL     1       0.271   9.206  22.344  0.00  0.00    +0.000 A 
ATOM     10  C   UNL     1      -0.502   9.941  23.250  0.00  0.00    +0.000 A 
ATOM     11  C   UNL     1      -1.099  11.133  22.853  0.00  0.00    +0.000 A 
ATOM     12  C   UNL     1      -0.911  11.596  21.555  0.00  0.00    +0.000 A 
ATOM     13  C   UNL     1      -0.150  10.851  20.649  0.00  0.00    +0.000 A 
ENDBRANCH   6   8
ENDBRANCH   1   2
BRANCH   1  14
ATOM     14  O   UNL     1       3.374   4.670  18.740  0.00  0.00    +0.000 OA
BRANCH  14  16
ATOM     15  N   UNL     1       5.133   4.754  17.392  0.00  0.00    +0.000 N 
ATOM     16  C   UNL     1       4.661   4.291  18.582  0.00  0.00    +0.000 C 
ATOM     17  O   UNL     1       5.329   3.647  19.378  0.00  0.00    +0.000 OA
ATOM     18  H   UNL     1       4.474   5.277  16.830  0.00  0.00    +0.000 HD
BRANCH  15  24
ATOM     19  C   UNL     1       7.056   7.048  17.388  0.00  0.00    +0.000 C 
ATOM     20  C   UNL     1       7.481   5.686  16.873  0.00  0.00    +0.000 C 
ATOM     21  O   UNL     1       7.451   5.644  15.415  0.00  0.00    +0.000 OA
ATOM     22  C   UNL     1       6.726   4.494  15.403  0.00  0.00    +0.000 C 
ATOM     23  O   UNL     1       6.367   3.842  14.449  0.00  0.00    +0.000 OA
ATOM     24  C   UNL     1       6.514   4.484  16.940  0.00  0.00    +0.000 C 
ENDBRANCH  15  24
ENDBRANCH  14  16
ENDBRANCH   1  14
TORSDOF 5
ENDMDL
MODEL 2
REMARK VINA RESULT:      -8.1      3.991      8.265
REMARK  Name = 
REMARK  6 active torsions:
REMARK  status: ('A' for Active; 'I' for Inactive)
REMARK    1  A    between atoms: C_1  and  C_2
REMARK    2  A    between atoms: C_6  and  N_7
REMARK    3  A    between atoms: C_8  and  O_10
REMARK    4  A    between atoms: O_10  and  C_11
REMARK    5  A    between atoms: C_11  and  C_12
REMARK    6  A    between atoms: C_16  and  C_17
REMARK                            x       y       z     vdW  Elec       q    Type
REMARK                         _______ _______ _______ _____ _____    ______ ____
ROOT
ATOM      1  C   UNL     1       4.115   7.316  17.788  0.00  0.00    +0.000 C 
ENDROOT
BRANCH   1   2
ATOM      2  C   UNL     1       5.186   6.306  17.460  0.00  0.00    +0.000 A 
ATOM      3  C   UNL     1       6.101   5.903  18.433  0.00  0.00    +0.000 A 
ATOM      4  C   UNL     1       7.135   5.035  18.098  0.00  0.00    +0.000 A 
ATOM      5  C   UNL     1       7.275   4.591  16.782  0.00  0.00    +0.000 A 
ATOM      6  C   UNL     1       6.377   4.975  15.769  0.00  0.00    +0.000 A 
ATOM      7  C   UNL     1       5.314   5.814  16.148  0.00  0.00    +0.000 A 
BRANCH   6   8
ATOM      8  C   UNL     1       6.597   4.580  14.354  0.00  0.00    +0.000 A 
ATOM      9  C   UNL     1       7.594   5.177  13.562  0.00  0.00    +0.000 A 
ATOM     10  C   UNL     1       7.728   4.877  12.202  0.00  0.00    +0.000 A 
ATOM     11  C   UNL     1       6.879   3.951  11.604  0.00  0.00    +0.000 A 
ATOM     12  C   UNL     1       5.907   3.318  12.369  0.00  0.00    +0.000 A 
ATOM     13  C   UNL     1       5.767   3.631  13.724  0.00  0.00    +0.000 A 
ENDBRANCH   6   8
ENDBRANCH   1   2
BRANCH   1  14
ATOM     14  O   UNL     1       2.821   6.687  17.748  0.00  0.00    +0.000 OA
BRANCH  14  16
ATOM     15  N   UNL     1       2.247   4.699  18.545  0.00  0.00    +0.000 N 
ATOM     16  C   UNL     1       2.484   6.002  18.862  0.00  0.00    +0.000 C 
ATOM     17  O   UNL     1       2.412   6.453  19.995  0.00  0.00    +0.000 OA
ATOM     18  H   UNL     1       2.345   4.458  17.567  0.00  0.00    +0.000 HD
BRANCH  15  24
ATOM     19  C   UNL     1       4.364   2.857  19.586  0.00  0.00    +0.000 C 
ATOM     20  C   UNL     1       2.925   2.714  20.045  0.00  0.00    +0.000 C 
ATOM     21  O   UNL     1       2.256   1.626  19.340  0.00  0.00    +0.000 OA
ATOM     22  C   UNL     1       1.195   2.411  19.012  0.00  0.00    +0.000 C 
ATOM     23  O   UNL     1       0.185   2.101  18.422  0.00  0.00    +0.000 OA
ATOM     24  C   UNL     1       1.845   3.706  19.564  0.00  0.00    +0.000 C 
ENDBRANCH  15  24
ENDBRANCH  14  16
ENDBRANCH   1  14
TORSDOF 5
ENDMDL
MODEL 3
REMARK VINA RESULT:      -8.1      1.000      1.067
REMARK  Name = 
REMARK  6 active torsions:
REMARK  status: ('A' for Active; 'I' for Inactive)
REMARK    1  A    between atoms: C_1  and  C_2
REMARK    2  A    between atoms: C_6  and  N_7
REMARK    3  A    between atoms: C_8  and  O_10
REMARK    4  A    between atoms: O_10  and  C_11
REMARK    5  A    between atoms: C_11  and  C_12
REMARK    6  A    between atoms: C_16  and  C_17
REMARK                            x       y       z     vdW  Elec       q    Type
REMARK                         _______ _______ _______ _____ _____    ______ ____
ROOT
ATOM      1  C   UNL     1       3.398   5.563  19.652  0.00  0.00    +0.000 C 
ENDROOT
BRANCH   1   2
ATOM      2  C   UNL     1       2.674   6.834  19.284  0.00  0.00    +0.000 A 
ATOM      3  C   UNL     1       2.849   7.411  18.027  0.00  0.00    +0.000 A 
ATOM      4  C   UNL     1       2.243   8.626  17.728  0.00  0.00    +0.000 A 
ATOM      5  C   UNL     1       1.481   9.283  18.696  0.00  0.00    +0.000 A 
ATOM      6  C   UNL     1       1.281   8.739  19.979  0.00  0.00    +0.000 A 
ATOM      7  C   UNL     1       1.867   7.486  20.235  0.00  0.00    +0.000 A 
BRANCH   6   8
ATOM      8  C   UNL     1       0.557   9.495  21.032  0.00  0.00    +0.000 A 
ATOM      9  C   UNL     1       0.500   9.042  22.364  0.00  0.00    +0.000 A 
ATOM     10  C   UNL     1      -0.271   9.701  23.329  0.00  0.00    +0.000 A 
ATOM     11  C   UNL     1      -0.987  10.845  22.990  0.00  0.00    +0.000 A 
ATOM     12  C   UNL     1      -0.921  11.336  21.691  0.00  0.00    +0.000 A 
ATOM     13  C   UNL     1      -0.162  10.667  20.726  0.00  0.00    +0.000 A 
ENDBRANCH   6   8
ENDBRANCH   1   2
BRANCH   1  14
ATOM     14  O   UNL     1       2.999   4.499  18.769  0.00  0.00    +0.000 OA
BRANCH  14  16
ATOM     15  N   UNL     1       5.122   4.715  18.167  0.00  0.00    +0.000 N 
ATOM     16  C   UNL     1       3.934   4.121  17.871  0.00  0.00    +0.000 C 
ATOM     17  O   UNL     1       3.770   3.349  16.937  0.00  0.00    +0.000 OA
ATOM     18  H   UNL     1       5.119   5.330  18.971  0.00  0.00    +0.000 HD
BRANCH  15  24
ATOM     19  C   UNL     1       7.709   5.802  19.210  0.00  0.00    +0.000 C 
ATOM     20  C   UNL     1       7.650   5.120  17.856  0.00  0.00    +0.000 C 
ATOM     21  O   UNL     1       7.616   6.101  16.777  0.00  0.00    +0.000 OA
ATOM     22  C   UNL     1       6.544   5.508  16.188  0.00  0.00    +0.000 C 
ATOM     23  O   UNL     1       5.991   5.808  15.155  0.00  0.00    +0.000 OA
ATOM     24  C   UNL     1       6.332   4.497  17.347  0.00  0.00    +0.000 C 
ENDBRANCH  15  24
ENDBRANCH  14  16
ENDBRANCH   1  14
TORSDOF 5
ENDMDL
MODEL 4
REMARK VINA RESULT:      -8.0      0.309      1.045
REMARK  Name = 
REMARK  6 active torsions:
REMARK  status: ('A' for Active; 'I' for Inactive)
REMARK    1  A    between atoms: C_1  and  C_2
REMARK    2  A    between atoms: C_6  and  N_7
REMARK    3  A    between atoms: C_8  and  O_10
REMARK    4  A    between atoms: O_10  and  C_11
REMARK    5  A    between atoms: C_11  and  C_12
REMARK    6  A    between atoms: C_16  and  C_17
REMARK                            x       y       z     vdW  Elec       q    Type
REMARK                         _______ _______ _______ _____ _____    ______ ____
ROOT
ATOM      1  C   UNL     1       2.979   5.290  19.534  0.00  0.00    +0.000 C 
ENDROOT
BRANCH   1   2
ATOM      2  C   UNL     1       2.423   6.655  19.212  0.00  0.00    +0.000 A 
ATOM      3  C   UNL     1       2.780   7.305  18.031  0.00  0.00    +0.000 A 
ATOM      4  C   UNL     1       2.328   8.597  17.784  0.00  0.00    +0.000 A 
ATOM      5  C   UNL     1       1.541   9.254  18.730  0.00  0.00    +0.000 A 
ATOM      6  C   UNL     1       1.161   8.638  19.937  0.00  0.00    +0.000 A 
ATOM      7  C   UNL     1       1.592   7.314  20.137  0.00  0.00    +0.000 A 
BRANCH   6   8
ATOM      8  C   UNL     1       0.411   9.383  20.981  0.00  0.00    +0.000 A 
ATOM      9  C   UNL     1      -0.267  10.582  20.693  0.00  0.00    +0.000 A 
ATOM     10  C   UNL     1      -0.882  11.335  21.700  0.00  0.00    +0.000 A 
ATOM     11  C   UNL     1      -0.855  10.893  23.019  0.00  0.00    +0.000 A 
ATOM     12  C   UNL     1      -0.224   9.694  23.328  0.00  0.00    +0.000 A 
ATOM     13  C   UNL     1       0.403   8.952  22.322  0.00  0.00    +0.000 A 
ENDBRANCH   6   8
ENDBRANCH   1   2
BRANCH   1  14
ATOM     14  O   UNL     1       3.353   4.616  18.318  0.00  0.00    +0.000 OA
BRANCH  14  16
ATOM     15  N   UNL     1       5.135   4.613  16.999  0.00  0.00    +0.000 N 
ATOM     16  C   UNL     1       4.658   4.280  18.229  0.00  0.00    +0.000 C 
ATOM     17  O   UNL     1       5.336   3.771  19.110  0.00  0.00    +0.000 OA
ATOM     18  H   UNL     1       4.465   5.032  16.365  0.00  0.00    +0.000 HD
BRANCH  15  24
ATOM     19  C   UNL     1       7.092   6.857  17.303  0.00  0.00    +0.000 C 
ATOM     20  C   UNL     1       7.524   5.534  16.698  0.00  0.00    +0.000 C 
ATOM     21  O   UNL     1       7.580   5.617  15.243  0.00  0.00    +0.000 OA
ATOM     22  C   UNL     1       6.838   4.489  15.089  0.00  0.00    +0.000 C 
ATOM     23  O   UNL     1       6.525   3.928  14.064  0.00  0.00    +0.000 OA
ATOM     24  C   UNL     1       6.535   4.353  16.605  0.00  0.00    +0.000 C 
ENDBRANCH  15  24
ENDBRANCH  14  16
ENDBRANCH   1  14
TORSDOF 5
ENDMDL
MODEL 5
REMARK VINA RESULT:      -7.8      4.147      8.357
REMARK  Name = 
REMARK  6 active torsions:
REMARK  status: ('A' for Active; 'I' for Inactive)
REMARK    1  A    between atoms: C_1  and  C_2
REMARK    2  A    between atoms: C_6  and  N_7
REMARK    3  A    between atoms: C_8  and  O_10
REMARK    4  A    between atoms: O_10  and  C_11
REMARK    5  A    between atoms: C_11  and  C_12
REMARK    6  A    between atoms: C_16  and  C_17
REMARK                            x       y       z     vdW  Elec       q    Type
REMARK                         _______ _______ _______ _____ _____    ______ ____
ROOT
ATOM      1  C   UNL     1       4.019   7.202  17.826  0.00  0.00    +0.000 C 
ENDROOT
BRANCH   1   2
ATOM      2  C   UNL     1       5.129   6.239  17.490  0.00  0.00    +0.000 A 
ATOM      3  C   UNL     1       6.062   5.867  18.459  0.00  0.00    +0.000 A 
ATOM      4  C   UNL     1       7.130   5.045  18.116  0.00  0.00    +0.000 A 
ATOM      5  C   UNL     1       7.286   4.614  16.798  0.00  0.00    +0.000 A 
ATOM      6  C   UNL     1       6.371   4.969  15.788  0.00  0.00    +0.000 A 
ATOM      7  C   UNL     1       5.275   5.762  16.174  0.00  0.00    +0.000 A 
BRANCH   6   8
ATOM      8  C   UNL     1       6.603   4.591  14.371  0.00  0.00    +0.000 A 
ATOM      9  C   UNL     1       7.604   5.204  13.594  0.00  0.00    +0.000 A 
ATOM     10  C   UNL     1       7.750   4.921  12.231  0.00  0.00    +0.000 A 
ATOM     11  C   UNL     1       6.911   3.998  11.616  0.00  0.00    +0.000 A 
ATOM     12  C   UNL     1       5.936   3.350  12.365  0.00  0.00    +0.000 A 
ATOM     13  C   UNL     1       5.783   3.646  13.723  0.00  0.00    +0.000 A 
ENDBRANCH   6   8
ENDBRANCH   1   2
BRANCH   1  14
ATOM     14  O   UNL     1       3.244   6.691  18.926  0.00  0.00    +0.000 OA
BRANCH  14  16
ATOM     15  N   UNL     1       2.164   4.879  19.610  0.00  0.00    +0.000 N 
ATOM     16  C   UNL     1       2.316   5.769  18.591  0.00  0.00    +0.000 C 
ATOM     17  O   UNL     1       1.682   5.725  17.547  0.00  0.00    +0.000 OA
ATOM     18  H   UNL     1       2.751   5.033  20.421  0.00  0.00    +0.000 HD
BRANCH  15  24
ATOM     19  C   UNL     1       2.165   2.913  21.867  0.00  0.00    +0.000 C 
ATOM     20  C   UNL     1       1.276   2.697  20.657  0.00  0.00    +0.000 C 
ATOM     21  O   UNL     1       1.862   1.723  19.743  0.00  0.00    +0.000 OA
ATOM     22  C   UNL     1       1.701   2.541  18.670  0.00  0.00    +0.000 C 
ATOM     23  O   UNL     1       1.955   2.318  17.509  0.00  0.00    +0.000 OA
ATOM     24  C   UNL     1       1.221   3.744  19.525  0.00  0.00    +0.000 C 
ENDBRANCH  15  24
ENDBRANCH  14  16
ENDBRANCH   1  14
TORSDOF 5
ENDMDL
MODEL 6
REMARK VINA RESULT:      -7.7      2.786      8.744
REMARK  Name = 
REMARK  6 active torsions:
REMARK  status: ('A' for Active; 'I' for Inactive)
REMARK    1  A    between atoms: C_1  and  C_2
REMARK    2  A    between atoms: C_6  and  N_7
REMARK    3  A    between atoms: C_8  and  O_10
REMARK    4  A    between atoms: O_10  and  C_11
REMARK    5  A    between atoms: C_11  and  C_12
REMARK    6  A    between atoms: C_16  and  C_17
REMARK                            x       y       z     vdW  Elec       q    Type
REMARK                         _______ _______ _______ _____ _____    ______ ____
ROOT
ATOM      1  C   UNL     1       3.248   5.178  18.490  0.00  0.00    +0.000 C 
ENDROOT
BRANCH   1   2
ATOM      2  C   UNL     1       4.657   5.003  17.981  0.00  0.00    +0.000 A 
ATOM      3  C   UNL     1       5.745   5.182  18.835  0.00  0.00    +0.000 A 
ATOM      4  C   UNL     1       7.041   5.100  18.336  0.00  0.00    +0.000 A 
ATOM      5  C   UNL     1       7.253   4.868  16.976  0.00  0.00    +0.000 A 
ATOM      6  C   UNL     1       6.183   4.685  16.079  0.00  0.00    +0.000 A 
ATOM      7  C   UNL     1       4.886   4.725  16.621  0.00  0.00    +0.000 A 
BRANCH   6   8
ATOM      8  C   UNL     1       6.418   4.542  14.619  0.00  0.00    +0.000 A 
ATOM      9  C   UNL     1       5.650   3.669  13.827  0.00  0.00    +0.000 A 
ATOM     10  C   UNL     1       5.943   3.458  12.475  0.00  0.00    +0.000 A 
ATOM     11  C   UNL     1       6.999   4.136  11.874  0.00  0.00    +0.000 A 
ATOM     12  C   UNL     1       7.753   5.033  12.623  0.00  0.00    +0.000 A 
ATOM     13  C   UNL     1       7.467   5.229  13.978  0.00  0.00    +0.000 A 
ENDBRANCH   6   8
ENDBRANCH   1   2
BRANCH   1  14
ATOM     14  O   UNL     1       3.273   5.551  19.880  0.00  0.00    +0.000 OA
BRANCH  14  16
ATOM     15  N   UNL     1       2.122   7.378  20.385  0.00  0.00    +0.000 N 
ATOM     16  C   UNL     1       2.103   6.017  20.368  0.00  0.00    +0.000 C 
ATOM     17  O   UNL     1       1.149   5.343  20.729  0.00  0.00    +0.000 OA
ATOM     18  H   UNL     1       2.976   7.811  20.055  0.00  0.00    +0.000 HD
BRANCH  15  24
ATOM     19  C   UNL     1       1.154   9.627  18.663  0.00  0.00    +0.000 C 
ATOM     20  C   UNL     1       0.529   9.373  20.022  0.00  0.00    +0.000 C 
ATOM     21  O   UNL     1       1.052  10.297  21.021  0.00  0.00    +0.000 OA
ATOM     22  C   UNL     1       1.333   9.293  21.893  0.00  0.00    +0.000 C 
ATOM     23  O   UNL     1       1.777   9.373  23.015  0.00  0.00    +0.000 OA
ATOM     24  C   UNL     1       0.978   8.171  20.881  0.00  0.00    +0.000 C 
ENDBRANCH  15  24
ENDBRANCH  14  16
ENDBRANCH   1  14
TORSDOF 5
ENDMDL
MODEL 7
REMARK VINA RESULT:      -7.6      4.625      8.215
REMARK  Name = 
REMARK  6 active torsions:
REMARK  status: ('A' for Active; 'I' for Inactive)
REMARK    1  A    between atoms: C_1  and  C_2
REMARK    2  A    between atoms: C_6  and  N_7
REMARK    3  A    between atoms: C_8  and  O_10
REMARK    4  A    between atoms: O_10  and  C_11
REMARK    5  A    between atoms: C_11  and  C_12
REMARK    6  A    between atoms: C_16  and  C_17
REMARK                            x       y       z     vdW  Elec       q    Type
REMARK                         _______ _______ _______ _____ _____    ______ ____
ROOT
ATOM      1  C   UNL     1       5.494   4.159  19.319  0.00  0.00    +0.000 C 
ENDROOT
BRANCH   1   2
ATOM      2  C   UNL     1       5.352   5.045  18.107  0.00  0.00    +0.000 A 
ATOM      3  C   UNL     1       4.626   6.234  18.181  0.00  0.00    +0.000 A 
ATOM      4  C   UNL     1       4.430   7.001  17.037  0.00  0.00    +0.000 A 
ATOM      5  C   UNL     1       4.934   6.567  15.810  0.00  0.00    +0.000 A 
ATOM      6  C   UNL     1       5.668   5.372  15.690  0.00  0.00    +0.000 A 
ATOM      7  C   UNL     1       5.892   4.643  16.872  0.00  0.00    +0.000 A 
BRANCH   6   8
ATOM      8  C   UNL     1       6.110   4.869  14.364  0.00  0.00    +0.000 A 
ATOM      9  C   UNL     1       5.382   3.892  13.661  0.00  0.00    +0.000 A 
ATOM     10  C   UNL     1       5.857   3.345  12.463  0.00  0.00    +0.000 A 
ATOM     11  C   UNL     1       7.063   3.781  11.925  0.00  0.00    +0.000 A 
ATOM     12  C   UNL     1       7.788   4.772  12.579  0.00  0.00    +0.000 A 
ATOM     13  C   UNL     1       7.318   5.305  13.783  0.00  0.00    +0.000 A 
ENDBRANCH   6   8
ENDBRANCH   1   2
BRANCH   1  14
ATOM     14  O   UNL     1       5.424   2.776  18.926  0.00  0.00    +0.000 OA
BRANCH  14  16
ATOM     15  N   UNL     1       3.390   2.684  19.806  0.00  0.00    +0.000 N 
ATOM     16  C   UNL     1       4.174   2.292  18.764  0.00  0.00    +0.000 C 
ATOM     17  O   UNL     1       3.774   1.617  17.826  0.00  0.00    +0.000 OA
ATOM     18  H   UNL     1       3.847   3.243  20.515  0.00  0.00    +0.000 HD
BRANCH  15  24
ATOM     19  C   UNL     1       1.408   4.257  18.206  0.00  0.00    +0.000 C 
ATOM     20  C   UNL     1       0.944   3.151  19.136  0.00  0.00    +0.000 C 
ATOM     21  O   UNL     1       0.440   3.698  20.391  0.00  0.00    +0.000 OA
ATOM     22  C   UNL     1       1.208   2.858  21.135  0.00  0.00    +0.000 C 
ATOM     23  O   UNL     1       1.246   2.744  22.339  0.00  0.00    +0.000 OA
ATOM     24  C   UNL     1       1.969   2.292  19.908  0.00  0.00    +0.000 C 
ENDBRANCH  15  24
ENDBRANCH  14  16
ENDBRANCH   1  14
TORSDOF 5
ENDMDL
MODEL 8
REMARK VINA RESULT:      -7.6      5.020      8.406
REMARK  Name = 
REMARK  6 active torsions:
REMARK  status: ('A' for Active; 'I' for Inactive)
REMARK    1  A    between atoms: C_1  and  C_2
REMARK    2  A    between atoms: C_6  and  N_7
REMARK    3  A    between atoms: C_8  and  O_10
REMARK    4  A    between atoms: O_10  and  C_11
REMARK    5  A    between atoms: C_11  and  C_12
REMARK    6  A    between atoms: C_16  and  C_17
REMARK                            x       y       z     vdW  Elec       q    Type
REMARK                         _______ _______ _______ _____ _____    ______ ____
ROOT
ATOM      1  C   UNL     1       5.181   4.822  19.235  0.00  0.00    +0.000 C 
ENDROOT
BRANCH   1   2
ATOM      2  C   UNL     1       6.066   5.394  18.156  0.00  0.00    +0.000 A 
ATOM      3  C   UNL     1       6.770   6.578  18.371  0.00  0.00    +0.000 A 
ATOM      4  C   UNL     1       7.517   7.141  17.341  0.00  0.00    +0.000 A 
ATOM      5  C   UNL     1       7.539   6.536  16.084  0.00  0.00    +0.000 A 
ATOM      6  C   UNL     1       6.839   5.342  15.822  0.00  0.00    +0.000 A 
ATOM      7  C   UNL     1       6.133   4.771  16.896  0.00  0.00    +0.000 A 
BRANCH   6   8
ATOM      8  C   UNL     1       6.786   4.764  14.454  0.00  0.00    +0.000 A 
ATOM      9  C   UNL     1       7.673   5.174  13.441  0.00  0.00    +0.000 A 
ATOM     10  C   UNL     1       7.551   4.705  12.128  0.00  0.00    +0.000 A 
ATOM     11  C   UNL     1       6.552   3.794  11.800  0.00  0.00    +0.000 A 
ATOM     12  C   UNL     1       5.683   3.344  12.788  0.00  0.00    +0.000 A 
ATOM     13  C   UNL     1       5.798   3.826  14.096  0.00  0.00    +0.000 A 
ENDBRANCH   6   8
ENDBRANCH   1   2
BRANCH   1  14
ATOM     14  O   UNL     1       5.650   3.515  19.611  0.00  0.00    +0.000 OA
BRANCH  14  16
ATOM     15  N   UNL     1       3.507   2.990  19.382  0.00  0.00    +0.000 N 
ATOM     16  C   UNL     1       4.683   2.644  19.974  0.00  0.00    +0.000 C 
ATOM     17  O   UNL     1       4.820   1.675  20.706  0.00  0.00    +0.000 OA
ATOM     18  H   UNL     1       3.535   3.815  18.796  0.00  0.00    +0.000 HD
BRANCH  15  24
ATOM     19  C   UNL     1       1.076   3.834  17.854  0.00  0.00    +0.000 C 
ATOM     20  C   UNL     1       0.997   2.707  18.866  0.00  0.00    +0.000 C 
ATOM     21  O   UNL     1       0.428   3.173  20.126  0.00  0.00    +0.000 OA
ATOM     22  C   UNL     1       1.441   2.633  20.854  0.00  0.00    +0.000 C 
ATOM     23  O   UNL     1       1.577   2.615  22.056  0.00  0.00    +0.000 OA
ATOM     24  C   UNL     1       2.263   2.223  19.604  0.00  0.00    +0.000 C 
ENDBRANCH  15  24
ENDBRANCH  14  16
ENDBRANCH   1  14
TORSDOF 5
ENDMDL
MODEL 9
REMARK VINA RESULT:      -7.6      4.294      8.260
REMARK  Name = 
REMARK  6 active torsions:
REMARK  status: ('A' for Active; 'I' for Inactive)
REMARK    1  A    between atoms: C_1  and  C_2
REMARK    2  A    between atoms: C_6  and  N_7
REMARK    3  A    between atoms: C_8  and  O_10
REMARK    4  A    between atoms: O_10  and  C_11
REMARK    5  A    between atoms: C_11  and  C_12
REMARK    6  A    between atoms: C_16  and  C_17
REMARK                            x       y       z     vdW  Elec       q    Type
REMARK                         _______ _______ _______ _____ _____    ______ ____
ROOT
ATOM      1  C   UNL     1       3.574   6.079  18.276  0.00  0.00    +0.000 C 
ENDROOT
BRANCH   1   2
ATOM      2  C   UNL     1       4.903   5.547  17.801  0.00  0.00    +0.000 A 
ATOM      3  C   UNL     1       5.974   5.429  18.686  0.00  0.00    +0.000 A 
ATOM      4  C   UNL     1       7.219   5.017  18.220  0.00  0.00    +0.000 A 
ATOM      5  C   UNL     1       7.402   4.749  16.863  0.00  0.00    +0.000 A 
ATOM      6  C   UNL     1       6.349   4.860  15.935  0.00  0.00    +0.000 A 
ATOM      7  C   UNL     1       5.091   5.231  16.443  0.00  0.00    +0.000 A 
BRANCH   6   8
ATOM      8  C   UNL     1       6.582   4.673  14.480  0.00  0.00    +0.000 A 
ATOM      9  C   UNL     1       5.839   3.748  13.723  0.00  0.00    +0.000 A 
ATOM     10  C   UNL     1       6.132   3.500  12.377  0.00  0.00    +0.000 A 
ATOM     11  C   UNL     1       7.163   4.189  11.747  0.00  0.00    +0.000 A 
ATOM     12  C   UNL     1       7.891   5.135  12.460  0.00  0.00    +0.000 A 
ATOM     13  C   UNL     1       7.605   5.370  13.808  0.00  0.00    +0.000 A 
ENDBRANCH   6   8
ENDBRANCH   1   2
BRANCH   1  14
ATOM     14  O   UNL     1       2.503   5.414  17.580  0.00  0.00    +0.000 OA
BRANCH  14  16
ATOM     15  N   UNL     1       2.797   3.829  19.104  0.00  0.00    +0.000 N 
ATOM     16  C   UNL     1       2.396   4.091  17.829  0.00  0.00    +0.000 C 
ATOM     17  O   UNL     1       1.987   3.239  17.054  0.00  0.00    +0.000 OA
ATOM     18  H   UNL     1       3.110   4.629  19.640  0.00  0.00    +0.000 HD
BRANCH  15  24
ATOM     19  C   UNL     1       1.256   3.358  21.626  0.00  0.00    +0.000 C 
ATOM     20  C   UNL     1       2.063   2.238  20.995  0.00  0.00    +0.000 C 
ATOM     21  O   UNL     1       3.337   2.060  21.682  0.00  0.00    +0.000 OA
ATOM     22  C   UNL     1       4.038   2.091  20.518  0.00  0.00    +0.000 C 
ATOM     23  O   UNL     1       5.228   1.946  20.353  0.00  0.00    +0.000 OA
ATOM     24  C   UNL     1       2.801   2.459  19.658  0.00  0.00    +0.000 C 
ENDBRANCH  15  24
ENDBRANCH  14  16
ENDBRANCH   1  14
TORSDOF 5
ENDMDL
