MODEL 1
REMARK VINA RESULT:      -6.7      0.000      0.000
REMARK  Name = 
REMARK  9 active torsions:
REMARK  status: ('A' for Active; 'I' for Inactive)
REMARK    1  A    between atoms: C_1  and  C_2
REMARK    2  A    between atoms: C_2  and  C_3
REMARK    3  A    between atoms: C_3  and  C_4
REMARK    4  A    between atoms: C_4  and  C_5
REMARK    5  A    between atoms: C_10  and  N_11
REMARK    6  A    between atoms: C_10  and  C_12
REMARK    7  A    between atoms: C_12  and  O_14
REMARK    8  A    between atoms: C_15  and  C_16
REMARK    9  A    between atoms: C_16  and  O_18
REMARK                            x       y       z     vdW  Elec       q    Type
REMARK                         _______ _______ _______ _____ _____    ______ ____
ROOT
ATOM      1  C   UNL     1       3.297   3.541  16.949  0.00  0.00    +0.000 C 
ATOM      2  C   UNL     1       2.037   4.294  17.430  0.00  0.00    +0.000 C 
ATOM      3  C   UNL     1       1.705   3.601  18.763  0.00  0.00    +0.000 C 
ATOM      4  C   UNL     1       2.116   2.166  18.439  0.00  0.00    +0.000 C 
ATOM      5  C   UNL     1       3.580   2.556  18.126  0.00  0.00    +0.000 C 
ATOM      6  C   UNL     1       4.017   3.229  19.468  0.00  0.00    +0.000 C 
ATOM      7  C   UNL     1       2.716   3.996  19.879  0.00  0.00    +0.000 C 
ENDROOT
BRANCH   6   8
ATOM      8  N   UNL     1       5.292   3.986  19.411  0.00  0.00    +0.000 NA
ATOM      9  H   UNL     1       5.901   3.601  18.688  0.00  0.00    +0.000 HD
ATOM     10  H   UNL     1       5.110   4.964  19.140  0.00  0.00    +0.000 HD
ENDBRANCH   6   8
BRANCH   6  11
ATOM     11  C   UNL     1       4.292   2.145  20.578  0.00  0.00    +0.000 C 
ATOM     12  O   UNL     1       3.702   2.008  21.635  0.00  0.00    +0.000 OA
BRANCH  11  13
ATOM     13  O   UNL     1       5.362   1.372  20.239  0.00  0.00    +0.000 OA
ATOM     14  H   UNL     1       5.556   1.608  19.294  0.00  0.00    +0.000 HD
ENDBRANCH  11  13
ENDBRANCH   6  11
BRANCH   7  15
ATOM     15  C   UNL     1       2.823   5.501  20.043  0.00  0.00    +0.000 C 
ATOM     16  O   UNL     1       3.592   6.224  19.431  0.00  0.00    +0.000 OA
BRANCH  15  17
ATOM     17  O   UNL     1       1.949   5.999  20.948  0.00  0.00    +0.000 OA
ATOM     18  H   UNL     1       2.343   6.593  21.614  0.00  0.00    +0.000 HD
ENDBRANCH  15  17
ENDBRANCH   7  15
BRANCH   1  19
ATOM     19  C   UNL     1       4.386   4.483  16.436  0.00  0.00    +0.000 C 
BRANCH  19  20
ATOM     20  C   UNL     1       5.602   3.731  15.896  0.00  0.00    +0.000 C 
BRANCH  20  22
ATOM     21  C   UNL     1       6.099   3.814  13.436  0.00  0.00    +0.000 C 
ATOM     22  C   UNL     1       6.292   4.508  14.776  0.00  0.00    +0.000 C 
ENDBRANCH  20  22
ENDBRANCH  19  20
ENDBRANCH   1  19
TORSDOF 8
ENDMDL
MODEL 2
REMARK VINA RESULT:      -6.7      2.347      3.047
REMARK  Name = 
REMARK  9 active torsions:
REMARK  status: ('A' for Active; 'I' for Inactive)
REMARK    1  A    between atoms: C_1  and  C_2
REMARK    2  A    between atoms: C_2  and  C_3
REMARK    3  A    between atoms: C_3  and  C_4
REMARK    4  A    between atoms: C_4  and  C_5
REMARK    5  A    between atoms: C_10  and  N_11
REMARK    6  A    between atoms: C_10  and  C_12
REMARK    7  A    between atoms: C_12  and  O_14
REMARK    8  A    between atoms: C_15  and  C_16
REMARK    9  A    between atoms: C_16  and  O_18
REMARK                            x       y       z     vdW  Elec       q    Type
REMARK                         _______ _______ _______ _____ _____    ______ ____
ROOT
ATOM      1  C   UNL     1       5.171   3.872  18.887  0.00  0.00    +0.000 C 
ATOM      2  C   UNL     1       4.446   3.572  17.557  0.00  0.00    +0.000 C 
ATOM      3  C   UNL     1       3.260   2.697  17.996  0.00  0.00    +0.000 C 
ATOM      4  C   UNL     1       3.900   1.915  19.141  0.00  0.00    +0.000 C 
ATOM      5  C   UNL     1       4.246   3.191  19.945  0.00  0.00    +0.000 C 
ATOM      6  C   UNL     1       2.836   3.844  20.114  0.00  0.00    +0.000 C 
ATOM      7  C   UNL     1       2.173   3.536  18.730  0.00  0.00    +0.000 C 
ENDROOT
BRANCH   6   8
ATOM      8  N   UNL     1       2.841   5.248  20.595  0.00  0.00    +0.000 NA
ATOM      9  H   UNL     1       2.307   5.329  21.461  0.00  0.00    +0.000 HD
ATOM     10  H   UNL     1       3.805   5.538  20.825  0.00  0.00    +0.000 HD
ENDBRANCH   6   8
BRANCH   6  11
ATOM     11  C   UNL     1       1.995   3.091  21.214  0.00  0.00    +0.000 C 
ATOM     12  O   UNL     1       2.407   2.611  22.255  0.00  0.00    +0.000 OA
BRANCH  11  13
ATOM     13  O   UNL     1       0.694   2.972  20.825  0.00  0.00    +0.000 OA
ATOM     14  H   UNL     1       0.737   2.585  19.911  0.00  0.00    +0.000 HD
ENDBRANCH  11  13
ENDBRANCH   6  11
BRANCH   7  15
ATOM     15  C   UNL     1       1.716   4.723  17.902  0.00  0.00    +0.000 C 
ATOM     16  O   UNL     1       2.146   5.861  18.004  0.00  0.00    +0.000 OA
BRANCH  15  17
ATOM     17  O   UNL     1       0.765   4.403  16.994  0.00  0.00    +0.000 OA
ATOM     18  H   UNL     1       0.166   5.132  16.753  0.00  0.00    +0.000 HD
ENDBRANCH  15  17
ENDBRANCH   7  15
BRANCH   1  19
ATOM     19  C   UNL     1       5.569   5.341  19.024  0.00  0.00    +0.000 C 
BRANCH  19  20
ATOM     20  C   UNL     1       5.921   5.978  17.680  0.00  0.00    +0.000 C 
BRANCH  20  22
ATOM     21  C   UNL     1       7.633   7.810  17.538  0.00  0.00    +0.000 C 
ATOM     22  C   UNL     1       7.410   6.306  17.587  0.00  0.00    +0.000 C 
ENDBRANCH  20  22
ENDBRANCH  19  20
ENDBRANCH   1  19
TORSDOF 8
ENDMDL
MODEL 3
REMARK VINA RESULT:      -6.6      2.623      4.844
REMARK  Name = 
REMARK  9 active torsions:
REMARK  status: ('A' for Active; 'I' for Inactive)
REMARK    1  A    between atoms: C_1  and  C_2
REMARK    2  A    between atoms: C_2  and  C_3
REMARK    3  A    between atoms: C_3  and  C_4
REMARK    4  A    between atoms: C_4  and  C_5
REMARK    5  A    between atoms: C_10  and  N_11
REMARK    6  A    between atoms: C_10  and  C_12
REMARK    7  A    between atoms: C_12  and  O_14
REMARK    8  A    between atoms: C_15  and  C_16
REMARK    9  A    between atoms: C_16  and  O_18
REMARK                            x       y       z     vdW  Elec       q    Type
REMARK                         _______ _______ _______ _____ _____    ______ ____
ROOT
ATOM      1  C   UNL     1       3.153   5.805  19.558  0.00  0.00    +0.000 C 
ATOM      2  C   UNL     1       2.385   5.545  18.243  0.00  0.00    +0.000 C 
ATOM      3  C   UNL     1       3.507   5.488  17.191  0.00  0.00    +0.000 C 
ATOM      4  C   UNL     1       4.472   6.528  17.756  0.00  0.00    +0.000 C 
ATOM      5  C   UNL     1       4.644   5.777  19.098  0.00  0.00    +0.000 C 
ATOM      6  C   UNL     1       5.165   4.385  18.611  0.00  0.00    +0.000 C 
ATOM      7  C   UNL     1       4.329   4.170  17.305  0.00  0.00    +0.000 C 
ENDROOT
BRANCH   6   8
ATOM      8  N   UNL     1       5.158   3.312  19.636  0.00  0.00    +0.000 NA
ATOM      9  H   UNL     1       5.937   2.672  19.484  0.00  0.00    +0.000 HD
ATOM     10  H   UNL     1       5.301   3.719  20.573  0.00  0.00    +0.000 HD
ENDBRANCH   6   8
BRANCH   6  11
ATOM     11  C   UNL     1       6.681   4.468  18.187  0.00  0.00    +0.000 C 
ATOM     12  O   UNL     1       7.603   4.927  18.838  0.00  0.00    +0.000 OA
BRANCH  11  13
ATOM     13  O   UNL     1       6.850   4.002  16.918  0.00  0.00    +0.000 OA
ATOM     14  H   UNL     1       7.650   4.483  16.576  0.00  0.00    +0.000 HD
ENDBRANCH  11  13
ENDBRANCH   6  11
BRANCH   7  15
ATOM     15  C   UNL     1       3.442   2.940  17.246  0.00  0.00    +0.000 C 
ATOM     16  O   UNL     1       2.263   2.935  16.934  0.00  0.00    +0.000 OA
BRANCH  15  17
ATOM     17  O   UNL     1       4.097   1.799  17.565  0.00  0.00    +0.000 OA
ATOM     18  H   UNL     1       3.563   1.142  18.048  0.00  0.00    +0.000 HD
ENDBRANCH  15  17
ENDBRANCH   7  15
BRANCH   1  19
ATOM     19  C   UNL     1       2.670   4.919  20.706  0.00  0.00    +0.000 C 
BRANCH  19  20
ATOM     20  C   UNL     1       1.321   4.265  20.412  0.00  0.00    +0.000 C 
BRANCH  20  22
ATOM     21  C   UNL     1       2.512   2.453  21.679  0.00  0.00    +0.000 C 
ATOM     22  C   UNL     1       1.172   2.931  21.143  0.00  0.00    +0.000 C 
ENDBRANCH  20  22
ENDBRANCH  19  20
ENDBRANCH   1  19
TORSDOF 8
ENDMDL
MODEL 4
REMARK VINA RESULT:      -6.6      2.626      3.877
REMARK  Name = 
REMARK  9 active torsions:
REMARK  status: ('A' for Active; 'I' for Inactive)
REMARK    1  A    between atoms: C_1  and  C_2
REMARK    2  A    between atoms: C_2  and  C_3
REMARK    3  A    between atoms: C_3  and  C_4
REMARK    4  A    between atoms: C_4  and  C_5
REMARK    5  A    between atoms: C_10  and  N_11
REMARK    6  A    between atoms: C_10  and  C_12
REMARK    7  A    between atoms: C_12  and  O_14
REMARK    8  A    between atoms: C_15  and  C_16
REMARK    9  A    between atoms: C_16  and  O_18
REMARK                            x       y       z     vdW  Elec       q    Type
REMARK                         _______ _______ _______ _____ _____    ______ ____
ROOT
ATOM      1  C   UNL     1       5.270   4.406  15.332  0.00  0.00    +0.000 C 
ATOM      2  C   UNL     1       5.099   5.940  15.269  0.00  0.00    +0.000 C 
ATOM      3  C   UNL     1       4.759   6.311  16.723  0.00  0.00    +0.000 C 
ATOM      4  C   UNL     1       3.937   5.093  17.137  0.00  0.00    +0.000 C 
ATOM      5  C   UNL     1       5.089   4.100  16.852  0.00  0.00    +0.000 C 
ATOM      6  C   UNL     1       6.216   4.656  17.782  0.00  0.00    +0.000 C 
ATOM      7  C   UNL     1       6.008   6.202  17.646  0.00  0.00    +0.000 C 
ENDROOT
BRANCH   6   8
ATOM      8  N   UNL     1       7.571   4.104  17.535  0.00  0.00    +0.000 NA
ATOM      9  H   UNL     1       7.615   3.128  17.831  0.00  0.00    +0.000 HD
ATOM     10  H   UNL     1       7.773   4.105  16.523  0.00  0.00    +0.000 HD
ENDBRANCH   6   8
BRANCH   6  11
ATOM     11  C   UNL     1       5.942   4.278  19.287  0.00  0.00    +0.000 C 
ATOM     12  O   UNL     1       5.256   3.361  19.702  0.00  0.00    +0.000 OA
BRANCH  11  13
ATOM     13  O   UNL     1       6.537   5.174  20.123  0.00  0.00    +0.000 OA
ATOM     14  H   UNL     1       7.118   4.624  20.713  0.00  0.00    +0.000 HD
ENDBRANCH  11  13
ENDBRANCH   6  11
BRANCH   7  15
ATOM     15  C   UNL     1       7.177   7.013  17.120  0.00  0.00    +0.000 C 
ATOM     16  O   UNL     1       7.977   6.634  16.280  0.00  0.00    +0.000 OA
BRANCH  15  17
ATOM     17  O   UNL     1       7.256   8.248  17.668  0.00  0.00    +0.000 OA
ATOM     18  H   UNL     1       7.423   8.260  18.628  0.00  0.00    +0.000 HD
ENDBRANCH  15  17
ENDBRANCH   7  15
BRANCH   1  19
ATOM     19  C   UNL     1       6.507   3.920  14.577  0.00  0.00    +0.000 C 
BRANCH  19  20
ATOM     20  C   UNL     1       6.498   4.342  13.108  0.00  0.00    +0.000 C 
BRANCH  20  22
ATOM     21  C   UNL     1       4.688   3.259  11.745  0.00  0.00    +0.000 C 
ATOM     22  C   UNL     1       6.140   3.174  12.190  0.00  0.00    +0.000 C 
ENDBRANCH  20  22
ENDBRANCH  19  20
ENDBRANCH   1  19
TORSDOF 8
ENDMDL
MODEL 5
REMARK VINA RESULT:      -6.5      2.280      4.861
REMARK  Name = 
REMARK  9 active torsions:
REMARK  status: ('A' for Active; 'I' for Inactive)
REMARK    1  A    between atoms: C_1  and  C_2
REMARK    2  A    between atoms: C_2  and  C_3
REMARK    3  A    between atoms: C_3  and  C_4
REMARK    4  A    between atoms: C_4  and  C_5
REMARK    5  A    between atoms: C_10  and  N_11
REMARK    6  A    between atoms: C_10  and  C_12
REMARK    7  A    between atoms: C_12  and  O_14
REMARK    8  A    between atoms: C_15  and  C_16
REMARK    9  A    between atoms: C_16  and  O_18
REMARK                            x       y       z     vdW  Elec       q    Type
REMARK                         _______ _______ _______ _____ _____    ______ ____
ROOT
ATOM      1  C   UNL     1       3.420   6.026  18.129  0.00  0.00    +0.000 C 
ATOM      2  C   UNL     1       2.936   4.686  17.532  0.00  0.00    +0.000 C 
ATOM      3  C   UNL     1       4.179   4.169  16.786  0.00  0.00    +0.000 C 
ATOM      4  C   UNL     1       4.772   5.485  16.289  0.00  0.00    +0.000 C 
ATOM      5  C   UNL     1       4.925   6.065  17.716  0.00  0.00    +0.000 C 
ATOM      6  C   UNL     1       5.830   4.986  18.394  0.00  0.00    +0.000 C 
ATOM      7  C   UNL     1       5.269   3.662  17.776  0.00  0.00    +0.000 C 
ENDROOT
BRANCH   6   8
ATOM      8  N   UNL     1       5.933   5.085  19.872  0.00  0.00    +0.000 NA
ATOM      9  H   UNL     1       6.911   5.058  20.162  0.00  0.00    +0.000 HD
ATOM     10  H   UNL     1       5.565   5.994  20.191  0.00  0.00    +0.000 HD
ENDBRANCH   6   8
BRANCH   6  11
ATOM     11  C   UNL     1       7.326   5.127  17.920  0.00  0.00    +0.000 C 
ATOM     12  O   UNL     1       7.943   4.368  17.193  0.00  0.00    +0.000 OA
BRANCH  11  13
ATOM     13  O   UNL     1       7.910   6.217  18.493  0.00  0.00    +0.000 OA
ATOM     14  H   UNL     1       7.154   6.746  18.861  0.00  0.00    +0.000 HD
ENDBRANCH  11  13
ENDBRANCH   6  11
BRANCH   7  15
ATOM     15  C   UNL     1       4.723   2.625  18.740  0.00  0.00    +0.000 C 
ATOM     16  O   UNL     1       4.883   2.634  19.950  0.00  0.00    +0.000 OA
BRANCH  15  17
ATOM     17  O   UNL     1       4.001   1.658  18.127  0.00  0.00    +0.000 OA
ATOM     18  H   UNL     1       3.037   1.726  18.251  0.00  0.00    +0.000 HD
ENDBRANCH  15  17
ENDBRANCH   7  15
BRANCH   1  19
ATOM     19  C   UNL     1       3.003   6.204  19.589  0.00  0.00    +0.000 C 
BRANCH  19  20
ATOM     20  C   UNL     1       1.871   5.261  19.993  0.00  0.00    +0.000 C 
BRANCH  20  22
ATOM     21  C   UNL     1       1.515   3.100  21.223  0.00  0.00    +0.000 C 
ATOM     22  C   UNL     1       2.237   4.439  21.228  0.00  0.00    +0.000 C 
ENDBRANCH  20  22
ENDBRANCH  19  20
ENDBRANCH   1  19
TORSDOF 8
ENDMDL
MODEL 6
REMARK VINA RESULT:      -6.5      2.370      3.822
REMARK  Name = 
REMARK  9 active torsions:
REMARK  status: ('A' for Active; 'I' for Inactive)
REMARK    1  A    between atoms: C_1  and  C_2
REMARK    2  A    between atoms: C_2  and  C_3
REMARK    3  A    between atoms: C_3  and  C_4
REMARK    4  A    between atoms: C_4  and  C_5
REMARK    5  A    between atoms: C_10  and  N_11
REMARK    6  A    between atoms: C_10  and  C_12
REMARK    7  A    between atoms: C_12  and  O_14
REMARK    8  A    between atoms: C_15  and  C_16
REMARK    9  A    between atoms: C_16  and  O_18
REMARK                            x       y       z     vdW  Elec       q    Type
REMARK                         _______ _______ _______ _____ _____    ______ ____
ROOT
ATOM      1  C   UNL     1       5.536   5.292  15.698  0.00  0.00    +0.000 C 
ATOM      2  C   UNL     1       6.574   6.257  16.313  0.00  0.00    +0.000 C 
ATOM      3  C   UNL     1       5.862   6.774  17.575  0.00  0.00    +0.000 C 
ATOM      4  C   UNL     1       4.419   6.825  17.079  0.00  0.00    +0.000 C 
ATOM      5  C   UNL     1       4.380   5.314  16.747  0.00  0.00    +0.000 C 
ATOM      6  C   UNL     1       4.727   4.682  18.134  0.00  0.00    +0.000 C 
ATOM      7  C   UNL     1       5.798   5.682  18.682  0.00  0.00    +0.000 C 
ENDROOT
BRANCH   6   8
ATOM      8  N   UNL     1       5.063   3.236  18.104  0.00  0.00    +0.000 NA
ATOM      9  H   UNL     1       5.787   3.055  17.409  0.00  0.00    +0.000 HD
ATOM     10  H   UNL     1       5.458   2.948  19.012  0.00  0.00    +0.000 HD
ENDBRANCH   6   8
BRANCH   6  11
ATOM     11  C   UNL     1       3.488   4.743  19.106  0.00  0.00    +0.000 C 
ATOM     12  O   UNL     1       2.415   4.182  18.968  0.00  0.00    +0.000 OA
BRANCH  11  13
ATOM     13  O   UNL     1       3.735   5.588  20.145  0.00  0.00    +0.000 OA
ATOM     14  H   UNL     1       4.511   5.187  20.619  0.00  0.00    +0.000 HD
ENDBRANCH  11  13
ENDBRANCH   6  11
BRANCH   7  15
ATOM     15  C   UNL     1       7.170   5.118  19.005  0.00  0.00    +0.000 C 
ATOM     16  O   UNL     1       7.800   4.349  18.298  0.00  0.00    +0.000 OA
BRANCH  15  17
ATOM     17  O   UNL     1       7.665   5.568  20.181  0.00  0.00    +0.000 OA
ATOM     18  H   UNL     1       7.009   5.657  20.895  0.00  0.00    +0.000 HD
ENDBRANCH  15  17
ENDBRANCH   7  15
BRANCH   1  19
ATOM     19  C   UNL     1       6.157   3.971  15.244  0.00  0.00    +0.000 C 
BRANCH  19  20
ATOM     20  C   UNL     1       6.508   3.971  13.756  0.00  0.00    +0.000 C 
BRANCH  20  22
ATOM     21  C   UNL     1       5.636   2.685  11.784  0.00  0.00    +0.000 C 
ATOM     22  C   UNL     1       5.286   3.669  12.890  0.00  0.00    +0.000 C 
ENDBRANCH  20  22
ENDBRANCH  19  20
ENDBRANCH   1  19
TORSDOF 8
ENDMDL
MODEL 7
REMARK VINA RESULT:      -6.5      0.613      1.204
REMARK  Name = 
REMARK  9 active torsions:
REMARK  status: ('A' for Active; 'I' for Inactive)
REMARK    1  A    between atoms: C_1  and  C_2
REMARK    2  A    between atoms: C_2  and  C_3
REMARK    3  A    between atoms: C_3  and  C_4
REMARK    4  A    between atoms: C_4  and  C_5
REMARK    5  A    between atoms: C_10  and  N_11
REMARK    6  A    between atoms: C_10  and  C_12
REMARK    7  A    between atoms: C_12  and  O_14
REMARK    8  A    between atoms: C_15  and  C_16
REMARK    9  A    between atoms: C_16  and  O_18
REMARK                            x       y       z     vdW  Elec       q    Type
REMARK                         _______ _______ _______ _____ _____    ______ ____
ROOT
ATOM      1  C   UNL     1       3.372   3.551  16.956  0.00  0.00    +0.000 C 
ATOM      2  C   UNL     1       2.081   4.251  17.432  0.00  0.00    +0.000 C 
ATOM      3  C   UNL     1       1.767   3.538  18.759  0.00  0.00    +0.000 C 
ATOM      4  C   UNL     1       2.236   2.123  18.431  0.00  0.00    +0.000 C 
ATOM      5  C   UNL     1       3.686   2.571  18.130  0.00  0.00    +0.000 C 
ATOM      6  C   UNL     1       4.087   3.253  19.478  0.00  0.00    +0.000 C 
ATOM      7  C   UNL     1       2.754   3.967  19.884  0.00  0.00    +0.000 C 
ENDROOT
BRANCH   6   8
ATOM      8  N   UNL     1       5.332   4.060  19.434  0.00  0.00    +0.000 NA
ATOM      9  H   UNL     1       6.150   3.452  19.470  0.00  0.00    +0.000 HD
ATOM     10  H   UNL     1       5.392   4.567  18.537  0.00  0.00    +0.000 HD
ENDBRANCH   6   8
BRANCH   6  11
ATOM     11  C   UNL     1       4.397   2.175  20.585  0.00  0.00    +0.000 C 
ATOM     12  O   UNL     1       5.283   1.339  20.571  0.00  0.00    +0.000 OA
BRANCH  11  13
ATOM     13  O   UNL     1       3.476   2.239  21.588  0.00  0.00    +0.000 OA
ATOM     14  H   UNL     1       2.652   2.585  21.154  0.00  0.00    +0.000 HD
ENDBRANCH  11  13
ENDBRANCH   6  11
BRANCH   7  15
ATOM     15  C   UNL     1       2.800   5.474  20.056  0.00  0.00    +0.000 C 
ATOM     16  O   UNL     1       3.530   6.232  19.438  0.00  0.00    +0.000 OA
BRANCH  15  17
ATOM     17  O   UNL     1       1.921   5.930  20.978  0.00  0.00    +0.000 OA
ATOM     18  H   UNL     1       1.290   5.264  21.308  0.00  0.00    +0.000 HD
ENDBRANCH  15  17
ENDBRANCH   7  15
BRANCH   1  19
ATOM     19  C   UNL     1       4.427   4.537  16.456  0.00  0.00    +0.000 C 
BRANCH  19  20
ATOM     20  C   UNL     1       5.643   3.835  15.850  0.00  0.00    +0.000 C 
BRANCH  20  22
ATOM     21  C   UNL     1       7.068   5.742  16.649  0.00  0.00    +0.000 C 
ATOM     22  C   UNL     1       6.739   4.832  15.476  0.00  0.00    +0.000 C 
ENDBRANCH  20  22
ENDBRANCH  19  20
ENDBRANCH   1  19
TORSDOF 8
ENDMDL
MODEL 8
REMARK VINA RESULT:      -6.3      1.917      3.220
REMARK  Name = 
REMARK  9 active torsions:
REMARK  status: ('A' for Active; 'I' for Inactive)
REMARK    1  A    between atoms: C_1  and  C_2
REMARK    2  A    between atoms: C_2  and  C_3
REMARK    3  A    between atoms: C_3  and  C_4
REMARK    4  A    between atoms: C_4  and  C_5
REMARK    5  A    between atoms: C_10  and  N_11
REMARK    6  A    between atoms: C_10  and  C_12
REMARK    7  A    between atoms: C_12  and  O_14
REMARK    8  A    between atoms: C_15  and  C_16
REMARK    9  A    between atoms: C_16  and  O_18
REMARK                            x       y       z     vdW  Elec       q    Type
REMARK                         _______ _______ _______ _____ _____    ______ ____
ROOT
ATOM      1  C   UNL     1       3.910   4.774  17.608  0.00  0.00    +0.000 C 
ATOM      2  C   UNL     1       4.719   4.818  18.923  0.00  0.00    +0.000 C 
ATOM      3  C   UNL     1       3.652   4.548  19.998  0.00  0.00    +0.000 C 
ATOM      4  C   UNL     1       2.449   5.258  19.380  0.00  0.00    +0.000 C 
ATOM      5  C   UNL     1       2.478   4.392  18.098  0.00  0.00    +0.000 C 
ATOM      6  C   UNL     1       2.338   2.953  18.691  0.00  0.00    +0.000 C 
ATOM      7  C   UNL     1       3.202   3.058  19.992  0.00  0.00    +0.000 C 
ENDROOT
BRANCH   6   8
ATOM      8  N   UNL     1       2.624   1.847  17.743  0.00  0.00    +0.000 NA
ATOM      9  H   UNL     1       3.322   1.215  18.136  0.00  0.00    +0.000 HD
ATOM     10  H   UNL     1       1.774   1.279  17.597  0.00  0.00    +0.000 HD
ENDBRANCH   6   8
BRANCH   6  11
ATOM     11  C   UNL     1       0.853   2.669  19.136  0.00  0.00    +0.000 C 
ATOM     12  O   UNL     1      -0.076   2.326  18.426  0.00  0.00    +0.000 OA
BRANCH  11  13
ATOM     13  O   UNL     1       0.694   2.924  20.465  0.00  0.00    +0.000 OA
ATOM     14  H   UNL     1       0.140   3.749  20.501  0.00  0.00    +0.000 HD
ENDBRANCH  11  13
ENDBRANCH   6  11
BRANCH   7  15
ATOM     15  C   UNL     1       4.378   2.107  20.120  0.00  0.00    +0.000 C 
ATOM     16  O   UNL     1       5.107   2.015  21.094  0.00  0.00    +0.000 OA
BRANCH  15  17
ATOM     17  O   UNL     1       4.550   1.327  19.028  0.00  0.00    +0.000 OA
ATOM     18  H   UNL     1       5.478   1.116  18.817  0.00  0.00    +0.000 HD
ENDBRANCH  15  17
ENDBRANCH   7  15
BRANCH   1  19
ATOM     19  C   UNL     1       4.606   3.963  16.515  0.00  0.00    +0.000 C 
BRANCH  19  20
ATOM     20  C   UNL     1       5.348   4.848  15.514  0.00  0.00    +0.000 C 
BRANCH  20  22
ATOM     21  C   UNL     1       6.087   3.770  13.370  0.00  0.00    +0.000 C 
ATOM     22  C   UNL     1       6.467   4.083  14.809  0.00  0.00    +0.000 C 
ENDBRANCH  20  22
ENDBRANCH  19  20
ENDBRANCH   1  19
TORSDOF 8
ENDMDL
MODEL 9
REMARK VINA RESULT:      -6.3      2.996      5.414
REMARK  Name = 
REMARK  9 active torsions:
REMARK  status: ('A' for Active; 'I' for Inactive)
REMARK    1  A    between atoms: C_1  and  C_2
REMARK    2  A    between atoms: C_2  and  C_3
REMARK    3  A    between atoms: C_3  and  C_4
REMARK    4  A    between atoms: C_4  and  C_5
REMARK    5  A    between atoms: C_10  and  N_11
REMARK    6  A    between atoms: C_10  and  C_12
REMARK    7  A    between atoms: C_12  and  O_14
REMARK    8  A    between atoms: C_15  and  C_16
REMARK    9  A    between atoms: C_16  and  O_18
REMARK                            x       y       z     vdW  Elec       q    Type
REMARK                         _______ _______ _______ _____ _____    ______ ____
ROOT
ATOM      1  C   UNL     1       4.159   4.644  18.921  0.00  0.00    +0.000 C 
ATOM      2  C   UNL     1       3.486   4.735  17.533  0.00  0.00    +0.000 C 
ATOM      3  C   UNL     1       4.202   5.930  16.878  0.00  0.00    +0.000 C 
ATOM      4  C   UNL     1       4.419   6.825  18.096  0.00  0.00    +0.000 C 
ATOM      5  C   UNL     1       5.249   5.759  18.850  0.00  0.00    +0.000 C 
ATOM      6  C   UNL     1       6.409   5.493  17.836  0.00  0.00    +0.000 C 
ATOM      7  C   UNL     1       5.658   5.566  16.465  0.00  0.00    +0.000 C 
ENDROOT
BRANCH   6   8
ATOM      8  N   UNL     1       7.238   4.295  18.123  0.00  0.00    +0.000 NA
ATOM      9  H   UNL     1       6.645   3.507  18.382  0.00  0.00    +0.000 HD
ATOM     10  H   UNL     1       7.744   4.005  17.271  0.00  0.00    +0.000 HD
ENDBRANCH   6   8
BRANCH   6  11
ATOM     11  C   UNL     1       7.458   6.669  17.859  0.00  0.00    +0.000 C 
ATOM     12  O   UNL     1       7.669   7.484  16.978  0.00  0.00    +0.000 OA
BRANCH  11  13
ATOM     13  O   UNL     1       8.188   6.638  19.009  0.00  0.00    +0.000 OA
ATOM     14  H   UNL     1       7.935   5.783  19.447  0.00  0.00    +0.000 HD
ENDBRANCH  11  13
ENDBRANCH   6  11
BRANCH   7  15
ATOM     15  C   UNL     1       5.707   4.332  15.583  0.00  0.00    +0.000 C 
ATOM     16  O   UNL     1       5.851   3.187  15.980  0.00  0.00    +0.000 OA
BRANCH  15  17
ATOM     17  O   UNL     1       5.557   4.613  14.268  0.00  0.00    +0.000 OA
ATOM     18  H   UNL     1       5.499   5.562  14.056  0.00  0.00    +0.000 HD
ENDBRANCH  15  17
ENDBRANCH   7  15
BRANCH   1  19
ATOM     19  C   UNL     1       4.528   3.210  19.303  0.00  0.00    +0.000 C 
BRANCH  19  20
ATOM     20  C   UNL     1       3.304   2.370  19.670  0.00  0.00    +0.000 C 
BRANCH  20  22
ATOM     21  C   UNL     1       1.267   3.288  20.815  0.00  0.00    +0.000 C 
ATOM     22  C   UNL     1       2.699   2.811  21.002  0.00  0.00    +0.000 C 
ENDBRANCH  20  22
ENDBRANCH  19  20
ENDBRANCH   1  19
TORSDOF 8
ENDMDL
