MODEL 1
REMARK VINA RESULT:      -7.7      0.000      0.000
REMARK  Name = 
REMARK  7 active torsions:
REMARK  status: ('A' for Active; 'I' for Inactive)
REMARK    1  A    between atoms: C_1  and  C_2
REMARK    2  A    between atoms: C_2  and  O_3
REMARK    3  A    between atoms: O_3  and  C_4
REMARK    4  A    between atoms: C_4  and  C_6
REMARK    5  A    between atoms: C_7  and  C_8
REMARK    6  A    between atoms: C_8  and  N_9
REMARK    7  A    between atoms: C_23  and  C_24
REMARK                            x       y       z     vdW  Elec       q    Type
REMARK                         _______ _______ _______ _____ _____    ______ ____
ROOT
ATOM      1  C   UNL     1       3.138   5.381  17.812  0.00  0.00    +0.000 A 
ATOM      2  C   UNL     1       3.752   6.364  17.016  0.00  0.00    +0.000 A 
ATOM      3  N   UNL     1       3.423   7.681  17.151  0.00  0.00    +0.000 NA
ATOM      4  C   UNL     1       2.590   8.071  18.120  0.00  0.00    +0.000 A 
ATOM      5  C   UNL     1       2.281   9.429  18.174  0.00  0.00    +0.000 A 
ATOM      6  C   UNL     1       1.462   9.962  19.170  0.00  0.00    +0.000 A 
ATOM      7  C   UNL     1       0.988   9.129  20.165  0.00  0.00    +0.000 A 
ATOM      8 CL   UNL     1      -0.029   9.747  21.403  0.00  0.00    +0.000 Cl
ATOM      9  C   UNL     1       1.319   7.776  20.152  0.00  0.00    +0.000 A 
ATOM     10  C   UNL     1       2.067   7.182  19.084  0.00  0.00    +0.000 A 
ATOM     11  C   UNL     1       2.344   5.777  18.925  0.00  0.00    +0.000 A 
ENDROOT
BRANCH  11  12
ATOM     12  C   UNL     1       1.885   4.801  19.980  0.00  0.00    +0.000 A 
ATOM     13  C   UNL     1       2.569   4.630  21.202  0.00  0.00    +0.000 A 
ATOM     14  C   UNL     1       2.381   3.492  21.996  0.00  0.00    +0.000 A 
ATOM     15  C   UNL     1       1.396   2.569  21.666  0.00  0.00    +0.000 A 
ATOM     16  C   UNL     1       0.586   2.804  20.560  0.00  0.00    +0.000 A 
ATOM     17  C   UNL     1       0.842   3.894  19.716  0.00  0.00    +0.000 A 
ENDBRANCH  11  12
BRANCH   1  18
ATOM     18  C   UNL     1       3.144   3.955  17.415  0.00  0.00    +0.000 C 
ATOM     19  O   UNL     1       2.300   3.483  16.670  0.00  0.00    +0.000 OA
BRANCH  18  20
ATOM     20  O   UNL     1       4.164   3.277  17.983  0.00  0.00    +0.000 OA
BRANCH  20  22
ATOM     21  C   UNL     1       4.599   1.868  19.849  0.00  0.00    +0.000 C 
ATOM     22  C   UNL     1       3.801   2.018  18.571  0.00  0.00    +0.000 C 
ENDBRANCH  20  22
ENDBRANCH  18  20
ENDBRANCH   1  18
BRANCH   2  23
ATOM     23  C   UNL     1       5.017   6.160  16.165  0.00  0.00    +0.000 C 
BRANCH  23  24
ATOM     24  N   UNL     1       6.330   6.661  16.629  0.00  0.00    +0.000 NA
ATOM     25  C   UNL     1       6.472   6.717  18.103  0.00  0.00    +0.000 C 
ATOM     26  C   UNL     1       6.553   5.351  18.834  0.00  0.00    +0.000 C 
ATOM     27  N   UNL     1       7.549   4.422  18.280  0.00  0.00    +0.000 NA
ATOM     28  C   UNL     1       7.472   4.359  16.819  0.00  0.00    +0.000 C 
ATOM     29  C   UNL     1       7.412   5.752  16.142  0.00  0.00    +0.000 C 
ATOM     30  H   UNL     1       7.402   3.491  18.673  0.00  0.00    +0.000 HD
ENDBRANCH  23  24
ENDBRANCH   2  23
TORSDOF 6
ENDMDL
MODEL 2
REMARK VINA RESULT:      -6.6      3.350      6.363
REMARK  Name = 
REMARK  7 active torsions:
REMARK  status: ('A' for Active; 'I' for Inactive)
REMARK    1  A    between atoms: C_1  and  C_2
REMARK    2  A    between atoms: C_2  and  O_3
REMARK    3  A    between atoms: O_3  and  C_4
REMARK    4  A    between atoms: C_4  and  C_6
REMARK    5  A    between atoms: C_7  and  C_8
REMARK    6  A    between atoms: C_8  and  N_9
REMARK    7  A    between atoms: C_23  and  C_24
REMARK                            x       y       z     vdW  Elec       q    Type
REMARK                         _______ _______ _______ _____ _____    ______ ____
ROOT
ATOM      1  C   UNL     1       1.568   7.671  19.669  0.00  0.00    +0.000 A 
ATOM      2  C   UNL     1       1.781   8.738  18.778  0.00  0.00    +0.000 A 
ATOM      3  N   UNL     1       2.740   8.662  17.811  0.00  0.00    +0.000 NA
ATOM      4  C   UNL     1       3.420   7.528  17.625  0.00  0.00    +0.000 A 
ATOM      5  C   UNL     1       4.403   7.539  16.636  0.00  0.00    +0.000 A 
ATOM      6  C   UNL     1       5.144   6.400  16.318  0.00  0.00    +0.000 A 
ATOM      7  C   UNL     1       4.858   5.212  16.961  0.00  0.00    +0.000 A 
ATOM      8 CL   UNL     1       5.755   3.792  16.601  0.00  0.00    +0.000 Cl
ATOM      9  C   UNL     1       3.851   5.170  17.923  0.00  0.00    +0.000 A 
ATOM     10  C   UNL     1       3.149   6.345  18.347  0.00  0.00    +0.000 A 
ATOM     11  C   UNL     1       2.189   6.416  19.419  0.00  0.00    +0.000 A 
ENDROOT
BRANCH  11  12
ATOM     12  C   UNL     1       1.799   5.159  20.157  0.00  0.00    +0.000 A 
ATOM     13  C   UNL     1       2.434   4.754  21.351  0.00  0.00    +0.000 A 
ATOM     14  C   UNL     1       2.348   3.438  21.820  0.00  0.00    +0.000 A 
ATOM     15  C   UNL     1       1.504   2.530  21.190  0.00  0.00    +0.000 A 
ATOM     16  C   UNL     1       0.731   2.953  20.114  0.00  0.00    +0.000 A 
ATOM     17  C   UNL     1       0.893   4.243  19.591  0.00  0.00    +0.000 A 
ENDBRANCH  11  12
BRANCH   1  18
ATOM     18  C   UNL     1       0.866   7.874  20.957  0.00  0.00    +0.000 C 
ATOM     19  O   UNL     1      -0.336   7.699  21.077  0.00  0.00    +0.000 OA
BRANCH  18  20
ATOM     20  O   UNL     1       1.707   8.277  21.932  0.00  0.00    +0.000 OA
BRANCH  20  22
ATOM     21  C   UNL     1       0.140   9.415  23.313  0.00  0.00    +0.000 C 
ATOM     22  C   UNL     1       1.406   9.563  22.497  0.00  0.00    +0.000 C 
ENDBRANCH  20  22
ENDBRANCH  18  20
ENDBRANCH   1  18
BRANCH   2  23
ATOM     23  C   UNL     1       0.828   9.928  18.566  0.00  0.00    +0.000 C 
BRANCH  23  24
ATOM     24  N   UNL     1       0.527  10.862  19.674  0.00  0.00    +0.000 NA
ATOM     25  C   UNL     1       1.146  12.200  19.524  0.00  0.00    +0.000 C 
ATOM     26  C   UNL     1       0.570  13.096  18.396  0.00  0.00    +0.000 C 
ATOM     27  N   UNL     1      -0.895  13.231  18.413  0.00  0.00    +0.000 NA
ATOM     28  C   UNL     1      -1.551  11.935  18.596  0.00  0.00    +0.000 C 
ATOM     29  C   UNL     1      -0.947  11.092  19.747  0.00  0.00    +0.000 C 
ATOM     30  H   UNL     1      -1.207  13.656  17.539  0.00  0.00    +0.000 HD
ENDBRANCH  23  24
ENDBRANCH   2  23
TORSDOF 6
ENDMDL
MODEL 3
REMARK VINA RESULT:      -6.6      6.268      9.989
REMARK  Name = 
REMARK  7 active torsions:
REMARK  status: ('A' for Active; 'I' for Inactive)
REMARK    1  A    between atoms: C_1  and  C_2
REMARK    2  A    between atoms: C_2  and  O_3
REMARK    3  A    between atoms: O_3  and  C_4
REMARK    4  A    between atoms: C_4  and  C_6
REMARK    5  A    between atoms: C_7  and  C_8
REMARK    6  A    between atoms: C_8  and  N_9
REMARK    7  A    between atoms: C_23  and  C_24
REMARK                            x       y       z     vdW  Elec       q    Type
REMARK                         _______ _______ _______ _____ _____    ______ ____
ROOT
ATOM      1  C   UNL     1      -1.032  11.958  20.336  0.00  0.00    +0.000 A 
ATOM      2  C   UNL     1      -2.286  12.571  20.506  0.00  0.00    +0.000 A 
ATOM      3  N   UNL     1      -3.243  12.490  19.537  0.00  0.00    +0.000 NA
ATOM      4  C   UNL     1      -3.042  11.735  18.454  0.00  0.00    +0.000 A 
ATOM      5  C   UNL     1      -4.055  11.727  17.497  0.00  0.00    +0.000 A 
ATOM      6  C   UNL     1      -3.981  10.939  16.348  0.00  0.00    +0.000 A 
ATOM      7  C   UNL     1      -2.898  10.098  16.181  0.00  0.00    +0.000 A 
ATOM      8 CL   UNL     1      -2.768   9.119  14.775  0.00  0.00    +0.000 Cl
ATOM      9  C   UNL     1      -1.894  10.060  17.147  0.00  0.00    +0.000 A 
ATOM     10  C   UNL     1      -1.891  10.936  18.280  0.00  0.00    +0.000 A 
ATOM     11  C   UNL     1      -0.837  11.053  19.255  0.00  0.00    +0.000 A 
ENDROOT
BRANCH  11  12
ATOM     12  C   UNL     1       0.371  10.152  19.161  0.00  0.00    +0.000 A 
ATOM     13  C   UNL     1       1.219  10.138  18.034  0.00  0.00    +0.000 A 
ATOM     14  C   UNL     1       2.088   9.070  17.781  0.00  0.00    +0.000 A 
ATOM     15  C   UNL     1       2.241   8.061  18.724  0.00  0.00    +0.000 A 
ATOM     16  C   UNL     1       1.546   8.142  19.926  0.00  0.00    +0.000 A 
ATOM     17  C   UNL     1       0.607   9.162  20.132  0.00  0.00    +0.000 A 
ENDBRANCH  11  12
BRANCH   1  18
ATOM     18  C   UNL     1       0.141  12.370  21.139  0.00  0.00    +0.000 C 
ATOM     19  O   UNL     1       0.427  11.833  22.197  0.00  0.00    +0.000 OA
BRANCH  18  20
ATOM     20  O   UNL     1       0.811  13.393  20.566  0.00  0.00    +0.000 OA
BRANCH  20  22
ATOM     21  C   UNL     1       2.533  13.439  18.926  0.00  0.00    +0.000 C 
ATOM     22  C   UNL     1       2.218  13.167  20.382  0.00  0.00    +0.000 C 
ENDBRANCH  20  22
ENDBRANCH  18  20
ENDBRANCH   1  18
BRANCH   2  23
ATOM     23  C   UNL     1      -2.843  13.108  21.836  0.00  0.00    +0.000 C 
BRANCH  23  24
ATOM     24  N   UNL     1      -3.876  12.357  22.583  0.00  0.00    +0.000 NA
ATOM     25  C   UNL     1      -3.677  12.347  24.052  0.00  0.00    +0.000 C 
ATOM     26  C   UNL     1      -3.903  13.698  24.780  0.00  0.00    +0.000 C 
ATOM     27  N   UNL     1      -5.178  14.357  24.461  0.00  0.00    +0.000 NA
ATOM     28  C   UNL     1      -5.437  14.359  23.020  0.00  0.00    +0.000 C 
ATOM     29  C   UNL     1      -5.213  12.980  22.349  0.00  0.00    +0.000 C 
ATOM     30  H   UNL     1      -5.162  15.316  24.810  0.00  0.00    +0.000 HD
ENDBRANCH  23  24
ENDBRANCH   2  23
TORSDOF 6
ENDMDL
MODEL 4
REMARK VINA RESULT:      -6.5      0.813      1.186
REMARK  Name = 
REMARK  7 active torsions:
REMARK  status: ('A' for Active; 'I' for Inactive)
REMARK    1  A    between atoms: C_1  and  C_2
REMARK    2  A    between atoms: C_2  and  O_3
REMARK    3  A    between atoms: O_3  and  C_4
REMARK    4  A    between atoms: C_4  and  C_6
REMARK    5  A    between atoms: C_7  and  C_8
REMARK    6  A    between atoms: C_8  and  N_9
REMARK    7  A    between atoms: C_23  and  C_24
REMARK                            x       y       z     vdW  Elec       q    Type
REMARK                         _______ _______ _______ _____ _____    ______ ____
ROOT
ATOM      1  C   UNL     1       3.438   5.285  17.879  0.00  0.00    +0.000 A 
ATOM      2  C   UNL     1       3.835   6.330  17.026  0.00  0.00    +0.000 A 
ATOM      3  N   UNL     1       3.374   7.600  17.212  0.00  0.00    +0.000 NA
ATOM      4  C   UNL     1       2.622   7.894  18.276  0.00  0.00    +0.000 A 
ATOM      5  C   UNL     1       2.166   9.207  18.380  0.00  0.00    +0.000 A 
ATOM      6  C   UNL     1       1.414   9.645  19.471  0.00  0.00    +0.000 A 
ATOM      7  C   UNL     1       1.162   8.767  20.506  0.00  0.00    +0.000 A 
ATOM      8 CL   UNL     1       0.233   9.267  21.862  0.00  0.00    +0.000 Cl
ATOM      9  C   UNL     1       1.643   7.461  20.441  0.00  0.00    +0.000 A 
ATOM     10  C   UNL     1       2.324   6.954  19.287  0.00  0.00    +0.000 A 
ATOM     11  C   UNL     1       2.741   5.590  19.082  0.00  0.00    +0.000 A 
ENDROOT
BRANCH  11  12
ATOM     12  C   UNL     1       2.526   4.571  20.174  0.00  0.00    +0.000 A 
ATOM     13  C   UNL     1       3.561   3.732  20.640  0.00  0.00    +0.000 A 
ATOM     14  C   UNL     1       3.289   2.560  21.357  0.00  0.00    +0.000 A 
ATOM     15  C   UNL     1       1.989   2.275  21.755  0.00  0.00    +0.000 A 
ATOM     16  C   UNL     1       0.973   3.177  21.459  0.00  0.00    +0.000 A 
ATOM     17  C   UNL     1       1.235   4.299  20.661  0.00  0.00    +0.000 A 
ENDBRANCH  11  12
BRANCH   1  18
ATOM     18  C   UNL     1       3.563   3.868  17.470  0.00  0.00    +0.000 C 
ATOM     19  O   UNL     1       4.640   3.294  17.431  0.00  0.00    +0.000 OA
BRANCH  18  20
ATOM     20  O   UNL     1       2.369   3.330  17.144  0.00  0.00    +0.000 OA
BRANCH  20  22
ATOM     21  C   UNL     1       0.749   2.040  18.316  0.00  0.00    +0.000 C 
ATOM     22  C   UNL     1       2.126   2.022  17.687  0.00  0.00    +0.000 C 
ENDBRANCH  20  22
ENDBRANCH  18  20
ENDBRANCH   1  18
BRANCH   2  23
ATOM     23  C   UNL     1       5.006   6.271  16.029  0.00  0.00    +0.000 C 
BRANCH  23  24
ATOM     24  N   UNL     1       6.356   6.736  16.419  0.00  0.00    +0.000 NA
ATOM     25  C   UNL     1       6.573   6.811  17.884  0.00  0.00    +0.000 C 
ATOM     26  C   UNL     1       6.648   5.453  18.632  0.00  0.00    +0.000 C 
ATOM     27  N   UNL     1       7.585   4.485  18.045  0.00  0.00    +0.000 NA
ATOM     28  C   UNL     1       7.433   4.403  16.591  0.00  0.00    +0.000 C 
ATOM     29  C   UNL     1       7.382   5.787  15.895  0.00  0.00    +0.000 C 
ATOM     30  H   UNL     1       7.429   3.565  18.460  0.00  0.00    +0.000 HD
ENDBRANCH  23  24
ENDBRANCH   2  23
TORSDOF 6
ENDMDL
MODEL 5
REMARK VINA RESULT:      -6.5      6.227      9.850
REMARK  Name = 
REMARK  7 active torsions:
REMARK  status: ('A' for Active; 'I' for Inactive)
REMARK    1  A    between atoms: C_1  and  C_2
REMARK    2  A    between atoms: C_2  and  O_3
REMARK    3  A    between atoms: O_3  and  C_4
REMARK    4  A    between atoms: C_4  and  C_6
REMARK    5  A    between atoms: C_7  and  C_8
REMARK    6  A    between atoms: C_8  and  N_9
REMARK    7  A    between atoms: C_23  and  C_24
REMARK                            x       y       z     vdW  Elec       q    Type
REMARK                         _______ _______ _______ _____ _____    ______ ____
ROOT
ATOM      1  C   UNL     1      -1.193  11.879  20.569  0.00  0.00    +0.000 A 
ATOM      2  C   UNL     1      -2.466  12.445  20.764  0.00  0.00    +0.000 A 
ATOM      3  N   UNL     1      -3.407  12.411  19.777  0.00  0.00    +0.000 NA
ATOM      4  C   UNL     1      -3.171  11.742  18.646  0.00  0.00    +0.000 A 
ATOM      5  C   UNL     1      -4.170  11.778  17.674  0.00  0.00    +0.000 A 
ATOM      6  C   UNL     1      -4.059  11.078  16.472  0.00  0.00    +0.000 A 
ATOM      7  C   UNL     1      -2.952  10.280  16.262  0.00  0.00    +0.000 A 
ATOM      8 CL   UNL     1      -2.777   9.410  14.791  0.00  0.00    +0.000 Cl
ATOM      9  C   UNL     1      -1.961  10.198  17.237  0.00  0.00    +0.000 A 
ATOM     10  C   UNL     1      -1.997  10.988  18.431  0.00  0.00    +0.000 A 
ATOM     11  C   UNL     1      -0.959  11.061  19.428  0.00  0.00    +0.000 A 
ENDROOT
BRANCH  11  12
ATOM     12  C   UNL     1       0.274  10.201  19.288  0.00  0.00    +0.000 A 
ATOM     13  C   UNL     1       1.087  10.228  18.136  0.00  0.00    +0.000 A 
ATOM     14  C   UNL     1       1.983   9.192  17.844  0.00  0.00    +0.000 A 
ATOM     15  C   UNL     1       2.196   8.177  18.770  0.00  0.00    +0.000 A 
ATOM     16  C   UNL     1       1.535   8.221  19.993  0.00  0.00    +0.000 A 
ATOM     17  C   UNL     1       0.571   9.208  20.239  0.00  0.00    +0.000 A 
ENDBRANCH  11  12
BRANCH   1  18
ATOM     18  C   UNL     1      -0.042  12.262  21.418  0.00  0.00    +0.000 C 
ATOM     19  O   UNL     1       0.241  11.658  22.440  0.00  0.00    +0.000 OA
BRANCH  18  20
ATOM     20  O   UNL     1       0.609  13.338  20.929  0.00  0.00    +0.000 OA
BRANCH  20  22
ATOM     21  C   UNL     1       2.329  13.490  19.293  0.00  0.00    +0.000 C 
ATOM     22  C   UNL     1       2.021  13.155  20.737  0.00  0.00    +0.000 C 
ENDBRANCH  20  22
ENDBRANCH  18  20
ENDBRANCH   1  18
BRANCH   2  23
ATOM     23  C   UNL     1      -3.054  12.869  22.121  0.00  0.00    +0.000 C 
BRANCH  23  24
ATOM     24  N   UNL     1      -3.388  14.285  22.392  0.00  0.00    +0.000 NA
ATOM     25  C   UNL     1      -4.096  14.508  23.675  0.00  0.00    +0.000 C 
ATOM     26  C   UNL     1      -3.257  14.291  24.963  0.00  0.00    +0.000 C 
ATOM     27  N   UNL     1      -1.971  15.004  24.980  0.00  0.00    +0.000 NA
ATOM     28  C   UNL     1      -1.250  14.843  23.716  0.00  0.00    +0.000 C 
ATOM     29  C   UNL     1      -2.131  15.089  22.465  0.00  0.00    +0.000 C 
ATOM     30  H   UNL     1      -1.399  14.655  25.750  0.00  0.00    +0.000 HD
ENDBRANCH  23  24
ENDBRANCH   2  23
TORSDOF 6
ENDMDL
MODEL 6
REMARK VINA RESULT:      -6.4      3.314      7.141
REMARK  Name = 
REMARK  7 active torsions:
REMARK  status: ('A' for Active; 'I' for Inactive)
REMARK    1  A    between atoms: C_1  and  C_2
REMARK    2  A    between atoms: C_2  and  O_3
REMARK    3  A    between atoms: O_3  and  C_4
REMARK    4  A    between atoms: C_4  and  C_6
REMARK    5  A    between atoms: C_7  and  C_8
REMARK    6  A    between atoms: C_8  and  N_9
REMARK    7  A    between atoms: C_23  and  C_24
REMARK                            x       y       z     vdW  Elec       q    Type
REMARK                         _______ _______ _______ _____ _____    ______ ____
ROOT
ATOM      1  C   UNL     1       2.769   7.205  18.985  0.00  0.00    +0.000 A 
ATOM      2  C   UNL     1       1.929   7.213  20.112  0.00  0.00    +0.000 A 
ATOM      3  N   UNL     1       1.725   6.078  20.842  0.00  0.00    +0.000 NA
ATOM      4  C   UNL     1       2.408   4.965  20.561  0.00  0.00    +0.000 A 
ATOM      5  C   UNL     1       2.123   3.841  21.333  0.00  0.00    +0.000 A 
ATOM      6  C   UNL     1       2.805   2.635  21.165  0.00  0.00    +0.000 A 
ATOM      7  C   UNL     1       3.833   2.570  20.245  0.00  0.00    +0.000 A 
ATOM      8 CL   UNL     1       4.691   1.101  20.005  0.00  0.00    +0.000 Cl
ATOM      9  C   UNL     1       4.162   3.695  19.492  0.00  0.00    +0.000 A 
ATOM     10  C   UNL     1       3.409   4.911  19.566  0.00  0.00    +0.000 A 
ATOM     11  C   UNL     1       3.597   6.075  18.737  0.00  0.00    +0.000 A 
ENDROOT
BRANCH  11  12
ATOM     12  C   UNL     1       4.715   6.097  17.723  0.00  0.00    +0.000 A 
ATOM     13  C   UNL     1       4.638   5.405  16.496  0.00  0.00    +0.000 A 
ATOM     14  C   UNL     1       5.782   5.112  15.744  0.00  0.00    +0.000 A 
ATOM     15  C   UNL     1       7.014   5.632  16.123  0.00  0.00    +0.000 A 
ATOM     16  C   UNL     1       7.089   6.465  17.234  0.00  0.00    +0.000 A 
ATOM     17  C   UNL     1       5.959   6.676  18.036  0.00  0.00    +0.000 A 
ENDBRANCH  11  12
BRANCH   1  18
ATOM     18  C   UNL     1       2.680   8.262  17.952  0.00  0.00    +0.000 C 
ATOM     19  O   UNL     1       2.631   8.003  16.760  0.00  0.00    +0.000 OA
BRANCH  18  20
ATOM     20  O   UNL     1       2.676   9.498  18.493  0.00  0.00    +0.000 OA
BRANCH  20  22
ATOM     21  C   UNL     1       2.273  11.833  18.285  0.00  0.00    +0.000 C 
ATOM     22  C   UNL     1       1.861  10.459  17.802  0.00  0.00    +0.000 C 
ENDBRANCH  20  22
ENDBRANCH  18  20
ENDBRANCH   1  18
BRANCH   2  23
ATOM     23  C   UNL     1       1.407   8.471  20.828  0.00  0.00    +0.000 C 
BRANCH  23  24
ATOM     24  N   UNL     1      -0.045   8.731  20.939  0.00  0.00    +0.000 NA
ATOM     25  C   UNL     1      -0.582   8.603  22.315  0.00  0.00    +0.000 C 
ATOM     26  C   UNL     1      -0.145   9.700  23.321  0.00  0.00    +0.000 C 
ATOM     27  N   UNL     1      -0.338  11.078  22.844  0.00  0.00    +0.000 NA
ATOM     28  C   UNL     1       0.145  11.244  21.472  0.00  0.00    +0.000 C 
ATOM     29  C   UNL     1      -0.337  10.131  20.507  0.00  0.00    +0.000 C 
ATOM     30  H   UNL     1       0.153  11.724  23.463  0.00  0.00    +0.000 HD
ENDBRANCH  23  24
ENDBRANCH   2  23
TORSDOF 6
ENDMDL
MODEL 7
REMARK VINA RESULT:      -6.3      6.835     10.635
REMARK  Name = 
REMARK  7 active torsions:
REMARK  status: ('A' for Active; 'I' for Inactive)
REMARK    1  A    between atoms: C_1  and  C_2
REMARK    2  A    between atoms: C_2  and  O_3
REMARK    3  A    between atoms: O_3  and  C_4
REMARK    4  A    between atoms: C_4  and  C_6
REMARK    5  A    between atoms: C_7  and  C_8
REMARK    6  A    between atoms: C_8  and  N_9
REMARK    7  A    between atoms: C_23  and  C_24
REMARK                            x       y       z     vdW  Elec       q    Type
REMARK                         _______ _______ _______ _____ _____    ______ ____
ROOT
ATOM      1  C   UNL     1      -1.813  12.286  20.584  0.00  0.00    +0.000 A 
ATOM      2  C   UNL     1      -3.171  12.560  20.828  0.00  0.00    +0.000 A 
ATOM      3  N   UNL     1      -4.100  12.428  19.839  0.00  0.00    +0.000 NA
ATOM      4  C   UNL     1      -3.752  11.932  18.649  0.00  0.00    +0.000 A 
ATOM      5  C   UNL     1      -4.752  11.856  17.681  0.00  0.00    +0.000 A 
ATOM      6  C   UNL     1      -4.520  11.311  16.418  0.00  0.00    +0.000 A 
ATOM      7  C   UNL     1      -3.277  10.779  16.136  0.00  0.00    +0.000 A 
ATOM      8 CL   UNL     1      -2.952  10.107  14.589  0.00  0.00    +0.000 Cl
ATOM      9  C   UNL     1      -2.275  10.808  17.103  0.00  0.00    +0.000 A 
ATOM     10  C   UNL     1      -2.452  11.457  18.368  0.00  0.00    +0.000 A 
ATOM     11  C   UNL     1      -1.435  11.645  19.371  0.00  0.00    +0.000 A 
ENDROOT
BRANCH  11  12
ATOM     12  C   UNL     1      -0.056  11.073  19.154  0.00  0.00    +0.000 A 
ATOM     13  C   UNL     1       0.997  11.826  18.592  0.00  0.00    +0.000 A 
ATOM     14  C   UNL     1       2.131  11.212  18.048  0.00  0.00    +0.000 A 
ATOM     15  C   UNL     1       2.312   9.841  18.186  0.00  0.00    +0.000 A 
ATOM     16  C   UNL     1       1.372   9.098  18.892  0.00  0.00    +0.000 A 
ATOM     17  C   UNL     1       0.194   9.702  19.350  0.00  0.00    +0.000 A 
ENDBRANCH  11  12
BRANCH   1  18
ATOM     18  C   UNL     1      -0.751  12.813  21.471  0.00  0.00    +0.000 C 
ATOM     19  O   UNL     1      -0.526  14.008  21.577  0.00  0.00    +0.000 OA
BRANCH  18  20
ATOM     20  O   UNL     1      -0.086  11.824  22.104  0.00  0.00    +0.000 OA
BRANCH  20  22
ATOM     21  C   UNL     1      -0.243   9.665  23.091  0.00  0.00    +0.000 C 
ATOM     22  C   UNL     1      -0.885  11.033  22.998  0.00  0.00    +0.000 C 
ENDBRANCH  20  22
ENDBRANCH  18  20
ENDBRANCH   1  18
BRANCH   2  23
ATOM     23  C   UNL     1      -3.812  12.724  22.217  0.00  0.00    +0.000 C 
BRANCH  23  24
ATOM     24  N   UNL     1      -3.726  14.010  22.943  0.00  0.00    +0.000 NA
ATOM     25  C   UNL     1      -3.952  15.203  22.093  0.00  0.00    +0.000 C 
ATOM     26  C   UNL     1      -5.401  15.407  21.575  0.00  0.00    +0.000 C 
ATOM     27  N   UNL     1      -6.435  15.343  22.618  0.00  0.00    +0.000 NA
ATOM     28  C   UNL     1      -6.232  14.198  23.507  0.00  0.00    +0.000 C 
ATOM     29  C   UNL     1      -4.772  14.054  24.008  0.00  0.00    +0.000 C 
ATOM     30  H   UNL     1      -7.356  15.281  22.181  0.00  0.00    +0.000 HD
ENDBRANCH  23  24
ENDBRANCH   2  23
TORSDOF 6
ENDMDL
MODEL 8
REMARK VINA RESULT:      -6.3      3.466      6.788
REMARK  Name = 
REMARK  7 active torsions:
REMARK  status: ('A' for Active; 'I' for Inactive)
REMARK    1  A    between atoms: C_1  and  C_2
REMARK    2  A    between atoms: C_2  and  O_3
REMARK    3  A    between atoms: O_3  and  C_4
REMARK    4  A    between atoms: C_4  and  C_6
REMARK    5  A    between atoms: C_7  and  C_8
REMARK    6  A    between atoms: C_8  and  N_9
REMARK    7  A    between atoms: C_23  and  C_24
REMARK                            x       y       z     vdW  Elec       q    Type
REMARK                         _______ _______ _______ _____ _____    ______ ____
ROOT
ATOM      1  C   UNL     1       4.179   5.466  17.497  0.00  0.00    +0.000 A 
ATOM      2  C   UNL     1       3.440   4.420  16.916  0.00  0.00    +0.000 A 
ATOM      3  N   UNL     1       3.802   3.891  15.712  0.00  0.00    +0.000 NA
ATOM      4  C   UNL     1       4.930   4.286  15.115  0.00  0.00    +0.000 A 
ATOM      5  C   UNL     1       5.215   3.719  13.874  0.00  0.00    +0.000 A 
ATOM      6  C   UNL     1       6.387   4.016  13.177  0.00  0.00    +0.000 A 
ATOM      7  C   UNL     1       7.320   4.852  13.760  0.00  0.00    +0.000 A 
ATOM      8 CL   UNL     1       8.771   5.246  12.929  0.00  0.00    +0.000 Cl
ATOM      9  C   UNL     1       7.072   5.396  15.018  0.00  0.00    +0.000 A 
ATOM     10  C   UNL     1       5.832   5.196  15.707  0.00  0.00    +0.000 A 
ATOM     11  C   UNL     1       5.443   5.819  16.946  0.00  0.00    +0.000 A 
ENDROOT
BRANCH  11  12
ATOM     12  C   UNL     1       6.413   6.727  17.663  0.00  0.00    +0.000 A 
ATOM     13  C   UNL     1       6.578   8.084  17.314  0.00  0.00    +0.000 A 
ATOM     14  C   UNL     1       7.712   8.810  17.701  0.00  0.00    +0.000 A 
ATOM     15  C   UNL     1       8.635   8.243  18.572  0.00  0.00    +0.000 A 
ATOM     16  C   UNL     1       8.405   6.966  19.072  0.00  0.00    +0.000 A 
ATOM     17  C   UNL     1       7.320   6.210  18.606  0.00  0.00    +0.000 A 
ENDBRANCH  11  12
BRANCH   1  18
ATOM     18  C   UNL     1       3.595   6.330  18.548  0.00  0.00    +0.000 C 
ATOM     19  O   UNL     1       3.541   5.985  19.717  0.00  0.00    +0.000 OA
BRANCH  18  20
ATOM     20  O   UNL     1       3.135   7.495  18.046  0.00  0.00    +0.000 OA
BRANCH  20  22
ATOM     21  C   UNL     1       1.489   9.210  17.958  0.00  0.00    +0.000 C 
ATOM     22  C   UNL     1       2.091   8.115  18.814  0.00  0.00    +0.000 C 
ENDBRANCH  20  22
ENDBRANCH  18  20
ENDBRANCH   1  18
BRANCH   2  23
ATOM     23  C   UNL     1       2.386   3.564  17.640  0.00  0.00    +0.000 C 
BRANCH  23  24
ATOM     24  N   UNL     1       2.719   2.206  18.125  0.00  0.00    +0.000 NA
ATOM     25  C   UNL     1       4.033   2.108  18.802  0.00  0.00    +0.000 C 
ATOM     26  C   UNL     1       4.142   2.804  20.185  0.00  0.00    +0.000 C 
ATOM     27  N   UNL     1       3.073   2.449  21.131  0.00  0.00    +0.000 NA
ATOM     28  C   UNL     1       1.755   2.497  20.496  0.00  0.00    +0.000 C 
ATOM     29  C   UNL     1       1.701   1.771  19.128  0.00  0.00    +0.000 C 
ATOM     30  H   UNL     1       3.096   3.089  21.926  0.00  0.00    +0.000 HD
ENDBRANCH  23  24
ENDBRANCH   2  23
TORSDOF 6
ENDMDL
MODEL 9
REMARK VINA RESULT:      -6.3      6.208      9.825
REMARK  Name = 
REMARK  7 active torsions:
REMARK  status: ('A' for Active; 'I' for Inactive)
REMARK    1  A    between atoms: C_1  and  C_2
REMARK    2  A    between atoms: C_2  and  O_3
REMARK    3  A    between atoms: O_3  and  C_4
REMARK    4  A    between atoms: C_4  and  C_6
REMARK    5  A    between atoms: C_7  and  C_8
REMARK    6  A    between atoms: C_8  and  N_9
REMARK    7  A    between atoms: C_23  and  C_24
REMARK                            x       y       z     vdW  Elec       q    Type
REMARK                         _______ _______ _______ _____ _____    ______ ____
ROOT
ATOM      1  C   UNL     1      -0.938  11.874  20.371  0.00  0.00    +0.000 A 
ATOM      2  C   UNL     1      -2.186  12.490  20.573  0.00  0.00    +0.000 A 
ATOM      3  N   UNL     1      -3.156  12.438  19.615  0.00  0.00    +0.000 NA
ATOM      4  C   UNL     1      -2.974  11.707  18.512  0.00  0.00    +0.000 A 
ATOM      5  C   UNL     1      -4.000  11.728  17.568  0.00  0.00    +0.000 A 
ATOM      6  C   UNL     1      -3.945  10.967  16.400  0.00  0.00    +0.000 A 
ATOM      7  C   UNL     1      -2.870  10.124  16.199  0.00  0.00    +0.000 A 
ATOM      8 CL   UNL     1      -2.764   9.178  14.769  0.00  0.00    +0.000 Cl
ATOM      9  C   UNL     1      -1.854  10.057  17.150  0.00  0.00    +0.000 A 
ATOM     10  C   UNL     1      -1.830  10.906  18.304  0.00  0.00    +0.000 A 
ATOM     11  C   UNL     1      -0.762  10.994  19.267  0.00  0.00    +0.000 A 
ENDROOT
BRANCH  11  12
ATOM     12  C   UNL     1       0.438  10.089  19.136  0.00  0.00    +0.000 A 
ATOM     13  C   UNL     1       1.355  10.198  18.069  0.00  0.00    +0.000 A 
ATOM     14  C   UNL     1       2.226   9.152  17.738  0.00  0.00    +0.000 A 
ATOM     15  C   UNL     1       2.308   8.033  18.557  0.00  0.00    +0.000 A 
ATOM     16  C   UNL     1       1.541   7.978  19.716  0.00  0.00    +0.000 A 
ATOM     17  C   UNL     1       0.603   8.983  19.989  0.00  0.00    +0.000 A 
ENDBRANCH  11  12
BRANCH   1  18
ATOM     18  C   UNL     1       0.248  12.261  21.168  0.00  0.00    +0.000 C 
ATOM     19  O   UNL     1       0.845  13.309  20.980  0.00  0.00    +0.000 OA
BRANCH  18  20
ATOM     20  O   UNL     1       0.570  11.321  22.082  0.00  0.00    +0.000 OA
BRANCH  20  22
ATOM     21  C   UNL     1      -0.124   9.463  23.396  0.00  0.00    +0.000 C 
ATOM     22  C   UNL     1      -0.538  10.809  22.840  0.00  0.00    +0.000 C 
ENDBRANCH  20  22
ENDBRANCH  18  20
ENDBRANCH   1  18
BRANCH   2  23
ATOM     23  C   UNL     1      -2.722  12.999  21.923  0.00  0.00    +0.000 C 
BRANCH  23  24
ATOM     24  N   UNL     1      -3.877  12.343  22.574  0.00  0.00    +0.000 NA
ATOM     25  C   UNL     1      -3.793  12.293  24.053  0.00  0.00    +0.000 C 
ATOM     26  C   UNL     1      -3.942  13.650  24.791  0.00  0.00    +0.000 C 
ATOM     27  N   UNL     1      -5.119  14.435  24.392  0.00  0.00    +0.000 NA
ATOM     28  C   UNL     1      -5.265  14.483  22.935  0.00  0.00    +0.000 C 
ATOM     29  C   UNL     1      -5.126  13.097  22.254  0.00  0.00    +0.000 C 
ATOM     30  H   UNL     1      -5.037  15.383  24.761  0.00  0.00    +0.000 HD
ENDBRANCH  23  24
ENDBRANCH   2  23
TORSDOF 6
ENDMDL
