MODEL 1
REMARK VINA RESULT:      -7.2      0.000      0.000
REMARK  Name = 
REMARK  6 active torsions:
REMARK  status: ('A' for Active; 'I' for Inactive)
REMARK    1  A    between atoms: C_1  and  C_2
REMARK    2  A    between atoms: C_2  and  C_18
REMARK    3  A    between atoms: N_3  and  N_4
REMARK    4  A    between atoms: C_5  and  S_6
REMARK    5  A    between atoms: N_7  and  N_8
REMARK    6  A    between atoms: C_9  and  S_10
REMARK                            x       y       z     vdW  Elec       q    Type
REMARK                         _______ _______ _______ _____ _____    ______ ____
ROOT
ATOM      1  N   UNL     1       3.007   5.605  18.314  0.00  0.00    +0.000 NA
ATOM      2  C   UNL     1       3.556   4.501  18.735  0.00  0.00    +0.000 C 
ATOM      3  N   UNL     1       4.297   3.659  17.932  0.00  0.00    +0.000 N 
ATOM      4  H   UNL     1       4.711   2.868  18.418  0.00  0.00    +0.000 HD
ENDROOT
BRANCH   3   5
ATOM      5  N   UNL     1       4.940   4.135  16.832  0.00  0.00    +0.000 NA
ATOM      6  C   UNL     1       5.945   4.948  16.928  0.00  0.00    +0.000 C 
ATOM      7  N   UNL     1       6.628   5.469  15.866  0.00  0.00    +0.000 N 
ATOM      8  C   UNL     1       6.630   4.974  14.560  0.00  0.00    +0.000 A 
ATOM      9  C   UNL     1       5.584   4.235  14.009  0.00  0.00    +0.000 A 
ATOM     10  C   UNL     1       5.703   3.699  12.730  0.00  0.00    +0.000 A 
ATOM     11  C   UNL     1       6.856   3.939  12.004  0.00  0.00    +0.000 A 
ATOM     12  C   UNL     1       7.831   4.724  12.590  0.00  0.00    +0.000 A 
ATOM     13  N   UNL     1       7.742   5.244  13.839  0.00  0.00    +0.000 NA
ATOM     14  H   UNL     1       7.503   5.937  16.064  0.00  0.00    +0.000 HD
BRANCH   6  15
ATOM     15  S   UNL     1       6.593   5.444  18.487  0.00  0.00    +0.000 S 
ATOM     16  H   UNL     1       5.646   6.368  18.706  0.00  0.00    +0.000 HD
ENDBRANCH   6  15
ENDBRANCH   3   5
BRANCH   1  19
ATOM     17  C   UNL     1       2.876   8.296  17.843  0.00  0.00    +0.000 C 
ATOM     18  C   UNL     1       2.171   7.594  18.989  0.00  0.00    +0.000 C 
ATOM     19  N   UNL     1       2.238   6.312  19.232  0.00  0.00    +0.000 NA
BRANCH  18  20
ATOM     20  C   UNL     1       1.335   8.459  19.880  0.00  0.00    +0.000 A 
ATOM     21  C   UNL     1       1.117   8.097  21.206  0.00  0.00    +0.000 A 
ATOM     22  C   UNL     1       0.335   8.932  21.998  0.00  0.00    +0.000 A 
ATOM     23  C   UNL     1      -0.204  10.089  21.445  0.00  0.00    +0.000 A 
ATOM     24  C   UNL     1       0.061  10.366  20.118  0.00  0.00    +0.000 A 
ATOM     25  N   UNL     1       0.816   9.579  19.318  0.00  0.00    +0.000 NA
ENDBRANCH  18  20
ENDBRANCH   1  19
BRANCH   2  26
ATOM     26  S   UNL     1       3.417   3.941  20.394  0.00  0.00    +0.000 S 
ATOM     27  H   UNL     1       4.223   2.892  20.168  0.00  0.00    +0.000 HD
ENDBRANCH   2  26
TORSDOF 5
ENDMDL
MODEL 2
REMARK VINA RESULT:      -7.1      0.574      1.001
REMARK  Name = 
REMARK  6 active torsions:
REMARK  status: ('A' for Active; 'I' for Inactive)
REMARK    1  A    between atoms: C_1  and  C_2
REMARK    2  A    between atoms: C_2  and  C_18
REMARK    3  A    between atoms: N_3  and  N_4
REMARK    4  A    between atoms: C_5  and  S_6
REMARK    5  A    between atoms: N_7  and  N_8
REMARK    6  A    between atoms: C_9  and  S_10
REMARK                            x       y       z     vdW  Elec       q    Type
REMARK                         _______ _______ _______ _____ _____    ______ ____
ROOT
ATOM      1  N   UNL     1       3.024   5.658  18.337  0.00  0.00    +0.000 NA
ATOM      2  C   UNL     1       3.559   4.544  18.752  0.00  0.00    +0.000 C 
ATOM      3  N   UNL     1       4.283   3.694  17.941  0.00  0.00    +0.000 N 
ATOM      4  H   UNL     1       4.687   2.895  18.422  0.00  0.00    +0.000 HD
ENDROOT
BRANCH   3   5
ATOM      5  N   UNL     1       4.927   4.164  16.839  0.00  0.00    +0.000 NA
ATOM      6  C   UNL     1       5.925   4.986  16.932  0.00  0.00    +0.000 C 
ATOM      7  N   UNL     1       6.609   5.502  15.867  0.00  0.00    +0.000 N 
ATOM      8  C   UNL     1       6.620   4.994  14.567  0.00  0.00    +0.000 A 
ATOM      9  C   UNL     1       5.581   4.243  14.018  0.00  0.00    +0.000 A 
ATOM     10  C   UNL     1       5.709   3.696  12.744  0.00  0.00    +0.000 A 
ATOM     11  C   UNL     1       6.863   3.938  12.021  0.00  0.00    +0.000 A 
ATOM     12  C   UNL     1       7.830   4.735  12.604  0.00  0.00    +0.000 A 
ATOM     13  N   UNL     1       7.733   5.266  13.847  0.00  0.00    +0.000 NA
ATOM     14  H   UNL     1       7.479   5.978  16.065  0.00  0.00    +0.000 HD
BRANCH   6  15
ATOM     15  S   UNL     1       6.563   5.500  18.488  0.00  0.00    +0.000 S 
ATOM     16  H   UNL     1       7.551   6.236  17.958  0.00  0.00    +0.000 HD
ENDBRANCH   6  15
ENDBRANCH   3   5
BRANCH   1  19
ATOM     17  C   UNL     1       2.830   8.334  17.809  0.00  0.00    +0.000 C 
ATOM     18  C   UNL     1       2.173   7.647  18.992  0.00  0.00    +0.000 C 
ATOM     19  N   UNL     1       2.271   6.372  19.262  0.00  0.00    +0.000 NA
BRANCH  18  20
ATOM     20  C   UNL     1       1.349   8.518  19.888  0.00  0.00    +0.000 A 
ATOM     21  C   UNL     1       0.711   9.645  19.378  0.00  0.00    +0.000 A 
ATOM     22  C   UNL     1      -0.046  10.425  20.246  0.00  0.00    +0.000 A 
ATOM     23  C   UNL     1      -0.139  10.061  21.585  0.00  0.00    +0.000 A 
ATOM     24  C   UNL     1       0.531   8.928  22.005  0.00  0.00    +0.000 A 
ATOM     25  N   UNL     1       1.276   8.146  21.190  0.00  0.00    +0.000 NA
ENDBRANCH  18  20
ENDBRANCH   1  19
BRANCH   2  26
ATOM     26  S   UNL     1       3.420   3.979  20.409  0.00  0.00    +0.000 S 
ATOM     27  H   UNL     1       4.728   4.167  20.643  0.00  0.00    +0.000 HD
ENDBRANCH   2  26
TORSDOF 5
ENDMDL
MODEL 3
REMARK VINA RESULT:      -7.0      3.494      5.603
REMARK  Name = 
REMARK  6 active torsions:
REMARK  status: ('A' for Active; 'I' for Inactive)
REMARK    1  A    between atoms: C_1  and  C_2
REMARK    2  A    between atoms: C_2  and  C_18
REMARK    3  A    between atoms: N_3  and  N_4
REMARK    4  A    between atoms: C_5  and  S_6
REMARK    5  A    between atoms: N_7  and  N_8
REMARK    6  A    between atoms: C_9  and  S_10
REMARK                            x       y       z     vdW  Elec       q    Type
REMARK                         _______ _______ _______ _____ _____    ______ ____
ROOT
ATOM      1  N   UNL     1       1.257   8.917  19.663  0.00  0.00    +0.000 NA
ATOM      2  C   UNL     1       1.990   9.193  18.622  0.00  0.00    +0.000 C 
ATOM      3  N   UNL     1       2.885   8.307  18.059  0.00  0.00    +0.000 N 
ATOM      4  H   UNL     1       3.340   8.645  17.215  0.00  0.00    +0.000 HD
ENDROOT
BRANCH   3   5
ATOM      5  N   UNL     1       2.712   6.964  18.191  0.00  0.00    +0.000 NA
ATOM      6  C   UNL     1       3.516   6.115  17.633  0.00  0.00    +0.000 C 
ATOM      7  N   UNL     1       3.394   4.757  17.719  0.00  0.00    +0.000 N 
ATOM      8  C   UNL     1       2.654   4.051  18.669  0.00  0.00    +0.000 A 
ATOM      9  C   UNL     1       1.540   4.571  19.328  0.00  0.00    +0.000 A 
ATOM     10  C   UNL     1       0.913   3.835  20.330  0.00  0.00    +0.000 A 
ATOM     11  C   UNL     1       1.387   2.573  20.635  0.00  0.00    +0.000 A 
ATOM     12  C   UNL     1       2.461   2.097  19.907  0.00  0.00    +0.000 A 
ATOM     13  N   UNL     1       3.096   2.801  18.938  0.00  0.00    +0.000 NA
ATOM     14  H   UNL     1       4.179   4.202  17.404  0.00  0.00    +0.000 HD
BRANCH   6  15
ATOM     15  S   UNL     1       4.927   6.634  16.719  0.00  0.00    +0.000 S 
ATOM     16  H   UNL     1       4.446   6.219  15.538  0.00  0.00    +0.000 HD
ENDBRANCH   6  15
ENDBRANCH   3   5
BRANCH   1  19
ATOM     17  C   UNL     1       1.367   9.253  22.375  0.00  0.00    +0.000 C 
ATOM     18  C   UNL     1       0.521  10.101  21.443  0.00  0.00    +0.000 C 
ATOM     19  N   UNL     1       0.449   9.940  20.148  0.00  0.00    +0.000 NA
BRANCH  18  20
ATOM     20  C   UNL     1      -0.267  11.201  22.083  0.00  0.00    +0.000 A 
ATOM     21  C   UNL     1      -1.364  10.903  22.885  0.00  0.00    +0.000 A 
ATOM     22  C   UNL     1      -2.066  11.957  23.461  0.00  0.00    +0.000 A 
ATOM     23  C   UNL     1      -1.657  13.263  23.218  0.00  0.00    +0.000 A 
ATOM     24  C   UNL     1      -0.558  13.466  22.405  0.00  0.00    +0.000 A 
ATOM     25  N   UNL     1       0.148  12.467  21.828  0.00  0.00    +0.000 NA
ENDBRANCH  18  20
ENDBRANCH   1  19
BRANCH   2  26
ATOM     26  S   UNL     1       1.931  10.744  17.799  0.00  0.00    +0.000 S 
ATOM     27  H   UNL     1       0.911  10.356  17.018  0.00  0.00    +0.000 HD
ENDBRANCH   2  26
TORSDOF 5
ENDMDL
MODEL 4
REMARK VINA RESULT:      -6.8      3.507      5.691
REMARK  Name = 
REMARK  6 active torsions:
REMARK  status: ('A' for Active; 'I' for Inactive)
REMARK    1  A    between atoms: C_1  and  C_2
REMARK    2  A    between atoms: C_2  and  C_18
REMARK    3  A    between atoms: N_3  and  N_4
REMARK    4  A    between atoms: C_5  and  S_6
REMARK    5  A    between atoms: N_7  and  N_8
REMARK    6  A    between atoms: C_9  and  S_10
REMARK                            x       y       z     vdW  Elec       q    Type
REMARK                         _______ _______ _______ _____ _____    ______ ____
ROOT
ATOM      1  N   UNL     1       1.213   8.928  19.673  0.00  0.00    +0.000 NA
ATOM      2  C   UNL     1       1.963   9.203  18.643  0.00  0.00    +0.000 C 
ATOM      3  N   UNL     1       2.875   8.320  18.103  0.00  0.00    +0.000 N 
ATOM      4  H   UNL     1       3.343   8.656  17.265  0.00  0.00    +0.000 HD
ENDROOT
BRANCH   3   5
ATOM      5  N   UNL     1       2.710   6.977  18.242  0.00  0.00    +0.000 NA
ATOM      6  C   UNL     1       3.517   6.130  17.684  0.00  0.00    +0.000 C 
ATOM      7  N   UNL     1       3.404   4.772  17.776  0.00  0.00    +0.000 N 
ATOM      8  C   UNL     1       2.671   4.066  18.732  0.00  0.00    +0.000 A 
ATOM      9  C   UNL     1       1.556   4.582  19.393  0.00  0.00    +0.000 A 
ATOM     10  C   UNL     1       0.936   3.847  20.399  0.00  0.00    +0.000 A 
ATOM     11  C   UNL     1       1.419   2.588  20.708  0.00  0.00    +0.000 A 
ATOM     12  C   UNL     1       2.493   2.116  19.978  0.00  0.00    +0.000 A 
ATOM     13  N   UNL     1       3.121   2.819  19.004  0.00  0.00    +0.000 NA
ATOM     14  H   UNL     1       4.191   4.220  17.461  0.00  0.00    +0.000 HD
BRANCH   6  15
ATOM     15  S   UNL     1       4.923   6.653  16.764  0.00  0.00    +0.000 S 
ATOM     16  H   UNL     1       5.810   6.214  17.669  0.00  0.00    +0.000 HD
ENDBRANCH   6  15
ENDBRANCH   3   5
BRANCH   1  19
ATOM     17  C   UNL     1       1.240   9.257  22.388  0.00  0.00    +0.000 C 
ATOM     18  C   UNL     1       0.420  10.105  21.432  0.00  0.00    +0.000 C 
ATOM     19  N   UNL     1       0.388   9.948  20.136  0.00  0.00    +0.000 NA
BRANCH  18  20
ATOM     20  C   UNL     1      -0.389  11.202  22.051  0.00  0.00    +0.000 A 
ATOM     21  C   UNL     1      -0.090  12.534  21.780  0.00  0.00    +0.000 A 
ATOM     22  C   UNL     1      -0.869  13.520  22.375  0.00  0.00    +0.000 A 
ATOM     23  C   UNL     1      -1.911  13.150  23.218  0.00  0.00    +0.000 A 
ATOM     24  C   UNL     1      -2.133  11.804  23.435  0.00  0.00    +0.000 A 
ATOM     25  N   UNL     1      -1.397  10.817  22.873  0.00  0.00    +0.000 NA
ENDBRANCH  18  20
ENDBRANCH   1  19
BRANCH   2  26
ATOM     26  S   UNL     1       1.907  10.748  17.809  0.00  0.00    +0.000 S 
ATOM     27  H   UNL     1       3.084  11.135  18.327  0.00  0.00    +0.000 HD
ENDBRANCH   2  26
TORSDOF 5
ENDMDL
MODEL 5
REMARK VINA RESULT:      -6.7      4.263      6.280
REMARK  Name = 
REMARK  6 active torsions:
REMARK  status: ('A' for Active; 'I' for Inactive)
REMARK    1  A    between atoms: C_1  and  C_2
REMARK    2  A    between atoms: C_2  and  C_18
REMARK    3  A    between atoms: N_3  and  N_4
REMARK    4  A    between atoms: C_5  and  S_6
REMARK    5  A    between atoms: N_7  and  N_8
REMARK    6  A    between atoms: C_9  and  S_10
REMARK                            x       y       z     vdW  Elec       q    Type
REMARK                         _______ _______ _______ _____ _____    ______ ____
ROOT
ATOM      1  N   UNL     1       5.160   6.539  17.284  0.00  0.00    +0.000 NA
ATOM      2  C   UNL     1       6.164   6.054  16.609  0.00  0.00    +0.000 C 
ATOM      3  N   UNL     1       7.327   6.753  16.359  0.00  0.00    +0.000 N 
ATOM      4  H   UNL     1       8.042   6.221  15.871  0.00  0.00    +0.000 HD
ENDROOT
BRANCH   3   5
ATOM      5  N   UNL     1       7.734   7.747  17.193  0.00  0.00    +0.000 NA
ATOM      6  C   UNL     1       8.160   7.499  18.392  0.00  0.00    +0.000 C 
ATOM      7  N   UNL     1       8.574   8.450  19.282  0.00  0.00    +0.000 N 
ATOM      8  C   UNL     1       8.957   9.758  18.977  0.00  0.00    +0.000 A 
ATOM      9  C   UNL     1       8.501  10.460  17.862  0.00  0.00    +0.000 A 
ATOM     10  C   UNL     1       9.002  11.728  17.580  0.00  0.00    +0.000 A 
ATOM     11  C   UNL     1       9.928  12.291  18.438  0.00  0.00    +0.000 A 
ATOM     12  C   UNL     1      10.297  11.563  19.553  0.00  0.00    +0.000 A 
ATOM     13  N   UNL     1       9.833  10.322  19.840  0.00  0.00    +0.000 NA
ATOM     14  H   UNL     1       9.058   8.127  20.109  0.00  0.00    +0.000 HD
BRANCH   6  15
ATOM     15  S   UNL     1       8.306   5.857  19.005  0.00  0.00    +0.000 S 
ATOM     16  H   UNL     1       8.036   5.280  17.825  0.00  0.00    +0.000 HD
ENDBRANCH   6  15
ENDBRANCH   3   5
BRANCH   1  19
ATOM     17  C   UNL     1       4.974   5.180  19.650  0.00  0.00    +0.000 C 
ATOM     18  C   UNL     1       3.947   5.099  18.535  0.00  0.00    +0.000 C 
ATOM     19  N   UNL     1       4.033   5.731  17.395  0.00  0.00    +0.000 NA
BRANCH  18  20
ATOM     20  C   UNL     1       2.756   4.232  18.797  0.00  0.00    +0.000 A 
ATOM     21  C   UNL     1       1.890   4.528  19.846  0.00  0.00    +0.000 A 
ATOM     22  C   UNL     1       0.794   3.696  20.052  0.00  0.00    +0.000 A 
ATOM     23  C   UNL     1       0.599   2.603  19.214  0.00  0.00    +0.000 A 
ATOM     24  C   UNL     1       1.512   2.384  18.200  0.00  0.00    +0.000 A 
ATOM     25  N   UNL     1       2.589   3.170  17.970  0.00  0.00    +0.000 NA
ENDBRANCH  18  20
ENDBRANCH   1  19
BRANCH   2  26
ATOM     26  S   UNL     1       6.160   4.437  15.924  0.00  0.00    +0.000 S 
ATOM     27  H   UNL     1       6.823   4.838  14.827  0.00  0.00    +0.000 HD
ENDBRANCH   2  26
TORSDOF 5
ENDMDL
MODEL 6
REMARK VINA RESULT:      -6.7      2.759      4.765
REMARK  Name = 
REMARK  6 active torsions:
REMARK  status: ('A' for Active; 'I' for Inactive)
REMARK    1  A    between atoms: C_1  and  C_2
REMARK    2  A    between atoms: C_2  and  C_18
REMARK    3  A    between atoms: N_3  and  N_4
REMARK    4  A    between atoms: C_5  and  S_6
REMARK    5  A    between atoms: N_7  and  N_8
REMARK    6  A    between atoms: C_9  and  S_10
REMARK                            x       y       z     vdW  Elec       q    Type
REMARK                         _______ _______ _______ _____ _____    ______ ____
ROOT
ATOM      1  N   UNL     1       1.376   8.960  19.748  0.00  0.00    +0.000 NA
ATOM      2  C   UNL     1       1.262   8.247  20.833  0.00  0.00    +0.000 C 
ATOM      3  N   UNL     1       1.555   6.900  20.899  0.00  0.00    +0.000 N 
ATOM      4  H   UNL     1       1.474   6.496  21.828  0.00  0.00    +0.000 HD
ENDROOT
BRANCH   3   5
ATOM      5  N   UNL     1       2.447   6.340  20.039  0.00  0.00    +0.000 NA
ATOM      6  C   UNL     1       2.565   5.054  19.922  0.00  0.00    +0.000 C 
ATOM      7  N   UNL     1       3.445   4.427  19.085  0.00  0.00    +0.000 N 
ATOM      8  C   UNL     1       4.090   4.997  17.985  0.00  0.00    +0.000 A 
ATOM      9  C   UNL     1       4.362   6.360  17.865  0.00  0.00    +0.000 A 
ATOM     10  C   UNL     1       4.926   6.860  16.695  0.00  0.00    +0.000 A 
ATOM     11  C   UNL     1       5.244   5.984  15.673  0.00  0.00    +0.000 A 
ATOM     12  C   UNL     1       4.997   4.640  15.879  0.00  0.00    +0.000 A 
ATOM     13  N   UNL     1       4.436   4.133  17.004  0.00  0.00    +0.000 NA
ATOM     14  H   UNL     1       3.317   3.435  18.941  0.00  0.00    +0.000 HD
BRANCH   6  15
ATOM     15  S   UNL     1       1.536   3.941  20.814  0.00  0.00    +0.000 S 
ATOM     16  H   UNL     1       2.484   3.609  21.701  0.00  0.00    +0.000 HD
ENDBRANCH   6  15
ENDBRANCH   3   5
BRANCH   1  19
ATOM     17  C   UNL     1       2.428  10.571  17.805  0.00  0.00    +0.000 C 
ATOM     18  C   UNL     1       1.478  11.047  18.888  0.00  0.00    +0.000 C 
ATOM     19  N   UNL     1       0.981  10.290  19.830  0.00  0.00    +0.000 NA
BRANCH  18  20
ATOM     20  C   UNL     1       1.091  12.492  18.838  0.00  0.00    +0.000 A 
ATOM     21  C   UNL     1       2.062  13.473  18.662  0.00  0.00    +0.000 A 
ATOM     22  C   UNL     1       1.657  14.804  18.619  0.00  0.00    +0.000 A 
ATOM     23  C   UNL     1       0.308  15.111  18.756  0.00  0.00    +0.000 A 
ATOM     24  C   UNL     1      -0.587  14.073  18.932  0.00  0.00    +0.000 A 
ATOM     25  N   UNL     1      -0.230  12.768  18.978  0.00  0.00    +0.000 NA
ENDBRANCH  18  20
ENDBRANCH   1  19
BRANCH   2  26
ATOM     26  S   UNL     1       0.711   8.918  22.360  0.00  0.00    +0.000 S 
ATOM     27  H   UNL     1      -0.569   8.603  22.103  0.00  0.00    +0.000 HD
ENDBRANCH   2  26
TORSDOF 5
ENDMDL
MODEL 7
REMARK VINA RESULT:      -6.7      2.771      4.746
REMARK  Name = 
REMARK  6 active torsions:
REMARK  status: ('A' for Active; 'I' for Inactive)
REMARK    1  A    between atoms: C_1  and  C_2
REMARK    2  A    between atoms: C_2  and  C_18
REMARK    3  A    between atoms: N_3  and  N_4
REMARK    4  A    between atoms: C_5  and  S_6
REMARK    5  A    between atoms: N_7  and  N_8
REMARK    6  A    between atoms: C_9  and  S_10
REMARK                            x       y       z     vdW  Elec       q    Type
REMARK                         _______ _______ _______ _____ _____    ______ ____
ROOT
ATOM      1  N   UNL     1       1.421   9.033  19.737  0.00  0.00    +0.000 NA
ATOM      2  C   UNL     1       1.275   8.299  20.804  0.00  0.00    +0.000 C 
ATOM      3  N   UNL     1       1.586   6.955  20.857  0.00  0.00    +0.000 N 
ATOM      4  H   UNL     1       1.475   6.533  21.775  0.00  0.00    +0.000 HD
ENDROOT
BRANCH   3   5
ATOM      5  N   UNL     1       2.519   6.423  20.023  0.00  0.00    +0.000 NA
ATOM      6  C   UNL     1       2.796   5.157  20.030  0.00  0.00    +0.000 C 
ATOM      7  N   UNL     1       3.726   4.561  19.226  0.00  0.00    +0.000 N 
ATOM      8  C   UNL     1       4.263   5.088  18.049  0.00  0.00    +0.000 A 
ATOM      9  C   UNL     1       4.355   6.454  17.782  0.00  0.00    +0.000 A 
ATOM     10  C   UNL     1       4.818   6.895  16.546  0.00  0.00    +0.000 A 
ATOM     11  C   UNL     1       5.217   5.964  15.605  0.00  0.00    +0.000 A 
ATOM     12  C   UNL     1       5.150   4.629  15.955  0.00  0.00    +0.000 A 
ATOM     13  N   UNL     1       4.689   4.175  17.146  0.00  0.00    +0.000 NA
ATOM     14  H   UNL     1       3.722   3.550  19.187  0.00  0.00    +0.000 HD
BRANCH   6  15
ATOM     15  S   UNL     1       1.942   4.024  21.070  0.00  0.00    +0.000 S 
ATOM     16  H   UNL     1       1.481   3.278  20.055  0.00  0.00    +0.000 HD
ENDBRANCH   6  15
ENDBRANCH   3   5
BRANCH   1  19
ATOM     17  C   UNL     1       2.451  10.675  17.807  0.00  0.00    +0.000 C 
ATOM     18  C   UNL     1       1.489  11.128  18.891  0.00  0.00    +0.000 C 
ATOM     19  N   UNL     1       1.003  10.356  19.826  0.00  0.00    +0.000 NA
BRANCH  18  20
ATOM     20  C   UNL     1       1.078  12.566  18.850  0.00  0.00    +0.000 A 
ATOM     21  C   UNL     1      -0.268  12.914  18.922  0.00  0.00    +0.000 A 
ATOM     22  C   UNL     1      -0.604  14.263  18.882  0.00  0.00    +0.000 A 
ATOM     23  C   UNL     1       0.404  15.215  18.768  0.00  0.00    +0.000 A 
ATOM     24  C   UNL     1       1.713  14.778  18.698  0.00  0.00    +0.000 A 
ATOM     25  N   UNL     1       2.077  13.476  18.734  0.00  0.00    +0.000 NA
ENDBRANCH  18  20
ENDBRANCH   1  19
BRANCH   2  26
ATOM     26  S   UNL     1       0.656   8.934  22.320  0.00  0.00    +0.000 S 
ATOM     27  H   UNL     1       0.720   7.732  22.916  0.00  0.00    +0.000 HD
ENDBRANCH   2  26
TORSDOF 5
ENDMDL
MODEL 8
REMARK VINA RESULT:      -6.6      4.216      6.265
REMARK  Name = 
REMARK  6 active torsions:
REMARK  status: ('A' for Active; 'I' for Inactive)
REMARK    1  A    between atoms: C_1  and  C_2
REMARK    2  A    between atoms: C_2  and  C_18
REMARK    3  A    between atoms: N_3  and  N_4
REMARK    4  A    between atoms: C_5  and  S_6
REMARK    5  A    between atoms: N_7  and  N_8
REMARK    6  A    between atoms: C_9  and  S_10
REMARK                            x       y       z     vdW  Elec       q    Type
REMARK                         _______ _______ _______ _____ _____    ______ ____
ROOT
ATOM      1  N   UNL     1       5.166   6.409  17.211  0.00  0.00    +0.000 NA
ATOM      2  C   UNL     1       6.182   5.950  16.535  0.00  0.00    +0.000 C 
ATOM      3  N   UNL     1       7.332   6.674  16.295  0.00  0.00    +0.000 N 
ATOM      4  H   UNL     1       8.059   6.160  15.804  0.00  0.00    +0.000 HD
ENDROOT
BRANCH   3   5
ATOM      5  N   UNL     1       7.717   7.668  17.139  0.00  0.00    +0.000 NA
ATOM      6  C   UNL     1       8.130   7.419  18.342  0.00  0.00    +0.000 C 
ATOM      7  N   UNL     1       8.522   8.369  19.242  0.00  0.00    +0.000 N 
ATOM      8  C   UNL     1       8.894   9.683  18.949  0.00  0.00    +0.000 A 
ATOM      9  C   UNL     1       8.444  10.386  17.832  0.00  0.00    +0.000 A 
ATOM     10  C   UNL     1       8.934  11.661  17.562  0.00  0.00    +0.000 A 
ATOM     11  C   UNL     1       9.843  12.230  18.435  0.00  0.00    +0.000 A 
ATOM     12  C   UNL     1      10.206  11.500  19.551  0.00  0.00    +0.000 A 
ATOM     13  N   UNL     1       9.752  10.253  19.826  0.00  0.00    +0.000 NA
ATOM     14  H   UNL     1       8.998   8.048  20.074  0.00  0.00    +0.000 HD
BRANCH   6  15
ATOM     15  S   UNL     1       8.287   5.775  18.949  0.00  0.00    +0.000 S 
ATOM     16  H   UNL     1       9.580   5.908  19.277  0.00  0.00    +0.000 HD
ENDBRANCH   6  15
ENDBRANCH   3   5
BRANCH   1  19
ATOM     17  C   UNL     1       4.816   5.286  19.680  0.00  0.00    +0.000 C 
ATOM     18  C   UNL     1       3.890   5.060  18.498  0.00  0.00    +0.000 C 
ATOM     19  N   UNL     1       4.055   5.579  17.311  0.00  0.00    +0.000 NA
BRANCH  18  20
ATOM     20  C   UNL     1       2.702   4.183  18.749  0.00  0.00    +0.000 A 
ATOM     21  C   UNL     1       2.439   3.102  17.913  0.00  0.00    +0.000 A 
ATOM     22  C   UNL     1       1.326   2.314  18.184  0.00  0.00    +0.000 A 
ATOM     23  C   UNL     1       0.515   2.628  19.269  0.00  0.00    +0.000 A 
ATOM     24  C   UNL     1       0.850   3.723  20.043  0.00  0.00    +0.000 A 
ATOM     25  N   UNL     1       1.924   4.512  19.810  0.00  0.00    +0.000 NA
ENDBRANCH  18  20
ENDBRANCH   1  19
BRANCH   2  26
ATOM     26  S   UNL     1       6.211   4.340  15.835  0.00  0.00    +0.000 S 
ATOM     27  H   UNL     1       5.813   3.771  16.984  0.00  0.00    +0.000 HD
ENDBRANCH   2  26
TORSDOF 5
ENDMDL
MODEL 9
REMARK VINA RESULT:      -6.4      8.059     13.151
REMARK  Name = 
REMARK  6 active torsions:
REMARK  status: ('A' for Active; 'I' for Inactive)
REMARK    1  A    between atoms: C_1  and  C_2
REMARK    2  A    between atoms: C_2  and  C_18
REMARK    3  A    between atoms: N_3  and  N_4
REMARK    4  A    between atoms: C_5  and  S_6
REMARK    5  A    between atoms: N_7  and  N_8
REMARK    6  A    between atoms: C_9  and  S_10
REMARK                            x       y       z     vdW  Elec       q    Type
REMARK                         _______ _______ _______ _____ _____    ______ ____
ROOT
ATOM      1  N   UNL     1      -3.983  11.406  19.072  0.00  0.00    +0.000 NA
ATOM      2  C   UNL     1      -4.884  11.261  18.142  0.00  0.00    +0.000 C 
ATOM      3  N   UNL     1      -6.225  11.060  18.399  0.00  0.00    +0.000 N 
ATOM      4  H   UNL     1      -6.813  11.025  17.571  0.00  0.00    +0.000 HD
ENDROOT
BRANCH   3   5
ATOM      5  N   UNL     1      -6.785  11.503  19.556  0.00  0.00    +0.000 NA
ATOM      6  C   UNL     1      -7.330  10.689  20.405  0.00  0.00    +0.000 C 
ATOM      7  N   UNL     1      -7.917  11.069  21.580  0.00  0.00    +0.000 N 
ATOM      8  C   UNL     1      -7.730  12.283  22.243  0.00  0.00    +0.000 A 
ATOM      9  C   UNL     1      -7.366  13.469  21.605  0.00  0.00    +0.000 A 
ATOM     10  C   UNL     1      -7.111  14.616  22.351  0.00  0.00    +0.000 A 
ATOM     11  C   UNL     1      -7.258  14.571  23.725  0.00  0.00    +0.000 A 
ATOM     12  C   UNL     1      -7.674  13.379  24.288  0.00  0.00    +0.000 A 
ATOM     13  N   UNL     1      -7.914  12.247  23.583  0.00  0.00    +0.000 NA
ATOM     14  H   UNL     1      -8.136  10.338  22.243  0.00  0.00    +0.000 HD
BRANCH   6  15
ATOM     15  S   UNL     1      -7.325   8.948  20.158  0.00  0.00    +0.000 S 
ATOM     16  H   UNL     1      -6.824   8.671  21.370  0.00  0.00    +0.000 HD
ENDBRANCH   6  15
ENDBRANCH   3   5
BRANCH   1  19
ATOM     17  C   UNL     1      -2.463  13.072  20.619  0.00  0.00    +0.000 C 
ATOM     18  C   UNL     1      -1.944  12.323  19.405  0.00  0.00    +0.000 C 
ATOM     19  N   UNL     1      -2.665  11.537  18.650  0.00  0.00    +0.000 NA
BRANCH  18  20
ATOM     20  C   UNL     1      -0.495  12.511  19.083  0.00  0.00    +0.000 A 
ATOM     21  C   UNL     1       0.012  13.785  18.845  0.00  0.00    +0.000 A 
ATOM     22  C   UNL     1       1.366  13.913  18.552  0.00  0.00    +0.000 A 
ATOM     23  C   UNL     1       2.164  12.776  18.502  0.00  0.00    +0.000 A 
ATOM     24  C   UNL     1       1.575  11.550  18.747  0.00  0.00    +0.000 A 
ATOM     25  N   UNL     1       0.263  11.387  19.036  0.00  0.00    +0.000 NA
ENDBRANCH  18  20
ENDBRANCH   1  19
BRANCH   2  26
ATOM     26  S   UNL     1      -4.500  11.301  16.428  0.00  0.00    +0.000 S 
ATOM     27  H   UNL     1      -4.615  12.637  16.374  0.00  0.00    +0.000 HD
ENDBRANCH   2  26
TORSDOF 5
ENDMDL
