MODEL 1
REMARK VINA RESULT:      -7.9      0.000      0.000
REMARK  Name = 
REMARK  3 active torsions:
REMARK  status: ('A' for Active; 'I' for Inactive)
REMARK    1  A    between atoms: C_1  and  N_2
REMARK    2  A    between atoms: N_2  and  C_3
REMARK    3  A    between atoms: C_3  and  N_4
REMARK                            x       y       z     vdW  Elec       q    Type
REMARK                         _______ _______ _______ _____ _____    ______ ____
ROOT
ATOM      1  N   UNL     1       2.145   7.739  19.223  0.00  0.00    +0.000 N 
ATOM      2  C   UNL     1       2.209   8.590  18.156  0.00  0.00    +0.000 C 
ATOM      3  O   UNL     1       2.865   8.462  17.132  0.00  0.00    +0.000 OA
ATOM      4  C   UNL     1       1.274   9.756  18.423  0.00  0.00    +0.000 C 
ATOM      5  C   UNL     1      -0.097   9.531  17.767  0.00  0.00    +0.000 C 
ATOM      6  C   UNL     1      -1.139  10.415  18.406  0.00  0.00    +0.000 A 
ATOM      7  C   UNL     1      -2.327  10.674  17.714  0.00  0.00    +0.000 A 
ATOM      8  C   UNL     1      -3.265  11.558  18.239  0.00  0.00    +0.000 A 
ATOM      9  C   UNL     1      -3.014  12.198  19.451  0.00  0.00    +0.000 A 
ATOM     10  C   UNL     1      -1.862  11.895  20.181  0.00  0.00    +0.000 A 
ATOM     11  C   UNL     1      -0.934  10.965  19.693  0.00  0.00    +0.000 A 
ATOM     12  C   UNL     1       0.266  10.570  20.536  0.00  0.00    +0.000 C 
ATOM     13  N   UNL     1       1.121   9.617  19.847  0.00  0.00    +0.000 N 
ATOM     14  C   UNL     1       1.510   8.356  20.272  0.00  0.00    +0.000 C 
ATOM     15  O   UNL     1       1.315   7.896  21.386  0.00  0.00    +0.000 OA
ENDROOT
BRANCH   1  16
ATOM     16  C   UNL     1       2.911   6.515  19.329  0.00  0.00    +0.000 C 
BRANCH  16  18
ATOM     17  C   UNL     1       1.799   4.514  18.276  0.00  0.00    +0.000 C 
ATOM     18  N   UNL     1       2.759   5.608  18.169  0.00  0.00    +0.000 N 
ATOM     19  C   UNL     1       4.027   5.243  17.647  0.00  0.00    +0.000 A 
ATOM     20  C   UNL     1       4.174   4.235  16.679  0.00  0.00    +0.000 A 
ATOM     21  C   UNL     1       5.440   3.877  16.201  0.00  0.00    +0.000 A 
ATOM     22  C   UNL     1       6.557   4.539  16.665  0.00  0.00    +0.000 A 
ATOM     23  C   UNL     1       6.352   5.547  17.586  0.00  0.00    +0.000 A 
ATOM     24  N   UNL     1       5.134   5.900  18.073  0.00  0.00    +0.000 NA
ENDBRANCH  16  18
ENDBRANCH   1  16
TORSDOF 2
ENDMDL
MODEL 2
REMARK VINA RESULT:      -7.9      0.967      1.258
REMARK  Name = 
REMARK  3 active torsions:
REMARK  status: ('A' for Active; 'I' for Inactive)
REMARK    1  A    between atoms: C_1  and  N_2
REMARK    2  A    between atoms: N_2  and  C_3
REMARK    3  A    between atoms: C_3  and  N_4
REMARK                            x       y       z     vdW  Elec       q    Type
REMARK                         _______ _______ _______ _____ _____    ______ ____
ROOT
ATOM      1  N   UNL     1       1.792   8.293  19.484  0.00  0.00    +0.000 N 
ATOM      2  C   UNL     1       1.765   8.992  18.310  0.00  0.00    +0.000 C 
ATOM      3  O   UNL     1       2.411   8.776  17.294  0.00  0.00    +0.000 OA
ATOM      4  C   UNL     1       0.742  10.106  18.443  0.00  0.00    +0.000 C 
ATOM      5  C   UNL     1      -0.618   9.684  17.865  0.00  0.00    +0.000 C 
ATOM      6  C   UNL     1      -1.717  10.562  18.408  0.00  0.00    +0.000 A 
ATOM      7  C   UNL     1      -2.935  10.628  17.723  0.00  0.00    +0.000 A 
ATOM      8  C   UNL     1      -3.933  11.499  18.150  0.00  0.00    +0.000 A 
ATOM      9  C   UNL     1      -3.714  12.318  19.256  0.00  0.00    +0.000 A 
ATOM     10  C   UNL     1      -2.528  12.211  19.986  0.00  0.00    +0.000 A 
ATOM     11  C   UNL     1      -1.535  11.298  19.602  0.00  0.00    +0.000 A 
ATOM     12  C   UNL     1      -0.291  11.120  20.455  0.00  0.00    +0.000 C 
ATOM     13  N   UNL     1       0.627  10.152  19.877  0.00  0.00    +0.000 N 
ATOM     14  C   UNL     1       1.126   8.996  20.458  0.00  0.00    +0.000 C 
ATOM     15  O   UNL     1       0.991   8.681  21.629  0.00  0.00    +0.000 OA
ENDROOT
BRANCH   1  16
ATOM     16  C   UNL     1       2.657   7.161  19.734  0.00  0.00    +0.000 C 
BRANCH  16  18
ATOM     17  C   UNL     1       1.534   5.038  20.498  0.00  0.00    +0.000 C 
ATOM     18  N   UNL     1       2.047   5.852  19.401  0.00  0.00    +0.000 N 
ATOM     19  C   UNL     1       2.842   5.152  18.457  0.00  0.00    +0.000 A 
ATOM     20  C   UNL     1       2.601   3.808  18.128  0.00  0.00    +0.000 A 
ATOM     21  C   UNL     1       3.417   3.134  17.212  0.00  0.00    +0.000 A 
ATOM     22  C   UNL     1       4.458   3.804  16.605  0.00  0.00    +0.000 A 
ATOM     23  C   UNL     1       4.627   5.134  16.935  0.00  0.00    +0.000 A 
ATOM     24  N   UNL     1       3.854   5.802  17.831  0.00  0.00    +0.000 NA
ENDBRANCH  16  18
ENDBRANCH   1  16
TORSDOF 2
ENDMDL
MODEL 3
REMARK VINA RESULT:      -7.6      1.621      7.782
REMARK  Name = 
REMARK  3 active torsions:
REMARK  status: ('A' for Active; 'I' for Inactive)
REMARK    1  A    between atoms: C_1  and  N_2
REMARK    2  A    between atoms: N_2  and  C_3
REMARK    3  A    between atoms: C_3  and  N_4
REMARK                            x       y       z     vdW  Elec       q    Type
REMARK                         _______ _______ _______ _____ _____    ______ ____
ROOT
ATOM      1  N   UNL     1       1.490   8.837  19.475  0.00  0.00    +0.000 N 
ATOM      2  C   UNL     1       1.661   8.115  20.622  0.00  0.00    +0.000 C 
ATOM      3  O   UNL     1       1.398   8.451  21.767  0.00  0.00    +0.000 OA
ATOM      4  C   UNL     1       2.217   6.752  20.245  0.00  0.00    +0.000 C 
ATOM      5  C   UNL     1       1.097   5.709  20.121  0.00  0.00    +0.000 C 
ATOM      6  C   UNL     1       1.565   4.527  19.309  0.00  0.00    +0.000 A 
ATOM      7  C   UNL     1       0.876   3.314  19.417  0.00  0.00    +0.000 A 
ATOM      8  C   UNL     1       1.340   2.184  18.750  0.00  0.00    +0.000 A 
ATOM      9  C   UNL     1       2.501   2.256  17.985  0.00  0.00    +0.000 A 
ATOM     10  C   UNL     1       3.157   3.478  17.817  0.00  0.00    +0.000 A 
ATOM     11  C   UNL     1       2.671   4.638  18.436  0.00  0.00    +0.000 A 
ATOM     12  C   UNL     1       3.335   5.979  18.172  0.00  0.00    +0.000 C 
ATOM     13  N   UNL     1       2.703   7.051  18.924  0.00  0.00    +0.000 N 
ATOM     14  C   UNL     1       2.140   8.220  18.435  0.00  0.00    +0.000 C 
ATOM     15  O   UNL     1       2.222   8.614  17.283  0.00  0.00    +0.000 OA
ENDROOT
BRANCH   1  16
ATOM     16  C   UNL     1       0.984  10.193  19.440  0.00  0.00    +0.000 C 
BRANCH  16  18
ATOM     17  C   UNL     1      -0.987  10.116  17.872  0.00  0.00    +0.000 C 
ATOM     18  N   UNL     1      -0.479  10.284  19.230  0.00  0.00    +0.000 N 
ATOM     19  C   UNL     1      -1.022  11.386  19.939  0.00  0.00    +0.000 A 
ATOM     20  C   UNL     1      -2.345  11.819  19.749  0.00  0.00    +0.000 A 
ATOM     21  C   UNL     1      -2.846  12.926  20.443  0.00  0.00    +0.000 A 
ATOM     22  C   UNL     1      -2.040  13.587  21.345  0.00  0.00    +0.000 A 
ATOM     23  C   UNL     1      -0.762  13.097  21.523  0.00  0.00    +0.000 A 
ATOM     24  N   UNL     1      -0.253  12.033  20.849  0.00  0.00    +0.000 NA
ENDBRANCH  16  18
ENDBRANCH   1  16
TORSDOF 2
ENDMDL
MODEL 4
REMARK VINA RESULT:      -7.3      4.736      6.945
REMARK  Name = 
REMARK  3 active torsions:
REMARK  status: ('A' for Active; 'I' for Inactive)
REMARK    1  A    between atoms: C_1  and  N_2
REMARK    2  A    between atoms: N_2  and  C_3
REMARK    3  A    between atoms: C_3  and  N_4
REMARK                            x       y       z     vdW  Elec       q    Type
REMARK                         _______ _______ _______ _____ _____    ______ ____
ROOT
ATOM      1  N   UNL     1       5.695   6.143  17.261  0.00  0.00    +0.000 N 
ATOM      2  C   UNL     1       5.762   4.793  17.063  0.00  0.00    +0.000 C 
ATOM      3  O   UNL     1       6.676   4.151  16.566  0.00  0.00    +0.000 OA
ATOM      4  C   UNL     1       4.489   4.169  17.611  0.00  0.00    +0.000 C 
ATOM      5  C   UNL     1       4.693   3.658  19.045  0.00  0.00    +0.000 C 
ATOM      6  C   UNL     1       3.364   3.488  19.738  0.00  0.00    +0.000 A 
ATOM      7  C   UNL     1       3.287   2.664  20.867  0.00  0.00    +0.000 A 
ATOM      8  C   UNL     1       2.059   2.417  21.471  0.00  0.00    +0.000 A 
ATOM      9  C   UNL     1       0.899   2.980  20.942  0.00  0.00    +0.000 A 
ATOM     10  C   UNL     1       0.974   3.857  19.857  0.00  0.00    +0.000 A 
ATOM     11  C   UNL     1       2.211   4.160  19.272  0.00  0.00    +0.000 A 
ATOM     12  C   UNL     1       2.295   5.187  18.155  0.00  0.00    +0.000 C 
ATOM     13  N   UNL     1       3.655   5.341  17.665  0.00  0.00    +0.000 N 
ATOM     14  C   UNL     1       4.414   6.500  17.602  0.00  0.00    +0.000 C 
ATOM     15  O   UNL     1       3.997   7.627  17.812  0.00  0.00    +0.000 OA
ENDROOT
BRANCH   1  16
ATOM     16  C   UNL     1       6.729   7.072  16.858  0.00  0.00    +0.000 C 
BRANCH  16  18
ATOM     17  C   UNL     1       7.819   6.328  19.004  0.00  0.00    +0.000 C 
ATOM     18  N   UNL     1       7.853   7.176  17.817  0.00  0.00    +0.000 N 
ATOM     19  C   UNL     1       8.183   8.534  18.060  0.00  0.00    +0.000 A 
ATOM     20  C   UNL     1       9.071   8.916  19.080  0.00  0.00    +0.000 A 
ATOM     21  C   UNL     1       9.358  10.265  19.315  0.00  0.00    +0.000 A 
ATOM     22  C   UNL     1       8.783  11.233  18.520  0.00  0.00    +0.000 A 
ATOM     23  C   UNL     1       7.949  10.801  17.508  0.00  0.00    +0.000 A 
ATOM     24  N   UNL     1       7.647   9.498  17.273  0.00  0.00    +0.000 NA
ENDBRANCH  16  18
ENDBRANCH   1  16
TORSDOF 2
ENDMDL
MODEL 5
REMARK VINA RESULT:      -7.3      1.333      2.190
REMARK  Name = 
REMARK  3 active torsions:
REMARK  status: ('A' for Active; 'I' for Inactive)
REMARK    1  A    between atoms: C_1  and  N_2
REMARK    2  A    between atoms: N_2  and  C_3
REMARK    3  A    between atoms: C_3  and  N_4
REMARK                            x       y       z     vdW  Elec       q    Type
REMARK                         _______ _______ _______ _____ _____    ______ ____
ROOT
ATOM      1  N   UNL     1       2.711   6.133  18.482  0.00  0.00    +0.000 N 
ATOM      2  C   UNL     1       3.139   7.302  17.920  0.00  0.00    +0.000 C 
ATOM      3  O   UNL     1       3.898   7.445  16.972  0.00  0.00    +0.000 OA
ATOM      4  C   UNL     1       2.473   8.453  18.654  0.00  0.00    +0.000 C 
ATOM      5  C   UNL     1       1.208   8.923  17.920  0.00  0.00    +0.000 C 
ATOM      6  C   UNL     1       0.316   9.702  18.855  0.00  0.00    +0.000 A 
ATOM      7  C   UNL     1      -0.655  10.552  18.315  0.00  0.00    +0.000 A 
ATOM      8  C   UNL     1      -1.430  11.351  19.150  0.00  0.00    +0.000 A 
ATOM      9  C   UNL     1      -1.229  11.314  20.529  0.00  0.00    +0.000 A 
ATOM     10  C   UNL     1      -0.309  10.419  21.081  0.00  0.00    +0.000 A 
ATOM     11  C   UNL     1       0.440   9.568  20.256  0.00  0.00    +0.000 A 
ATOM     12  C   UNL     1       1.367   8.532  20.870  0.00  0.00    +0.000 C 
ATOM     13  N   UNL     1       2.071   7.768  19.854  0.00  0.00    +0.000 N 
ATOM     14  C   UNL     1       2.081   6.393  19.674  0.00  0.00    +0.000 C 
ATOM     15  O   UNL     1       1.613   5.577  20.451  0.00  0.00    +0.000 OA
ENDROOT
BRANCH   1  16
ATOM     16  C   UNL     1       3.141   4.820  18.049  0.00  0.00    +0.000 C 
BRANCH  16  18
ATOM     17  C   UNL     1       5.185   5.210  19.471  0.00  0.00    +0.000 C 
ATOM     18  N   UNL     1       4.563   4.526  18.342  0.00  0.00    +0.000 N 
ATOM     19  C   UNL     1       5.332   4.519  17.150  0.00  0.00    +0.000 A 
ATOM     20  C   UNL     1       6.736   4.470  17.166  0.00  0.00    +0.000 A 
ATOM     21  C   UNL     1       7.470   4.491  15.975  0.00  0.00    +0.000 A 
ATOM     22  C   UNL     1       6.808   4.535  14.767  0.00  0.00    +0.000 A 
ATOM     23  C   UNL     1       5.428   4.543  14.806  0.00  0.00    +0.000 A 
ATOM     24  N   UNL     1       4.698   4.537  15.952  0.00  0.00    +0.000 NA
ENDBRANCH  16  18
ENDBRANCH   1  16
TORSDOF 2
ENDMDL
MODEL 6
REMARK VINA RESULT:      -7.3      2.156      7.340
REMARK  Name = 
REMARK  3 active torsions:
REMARK  status: ('A' for Active; 'I' for Inactive)
REMARK    1  A    between atoms: C_1  and  N_2
REMARK    2  A    between atoms: N_2  and  C_3
REMARK    3  A    between atoms: C_3  and  N_4
REMARK                            x       y       z     vdW  Elec       q    Type
REMARK                         _______ _______ _______ _____ _____    ______ ____
ROOT
ATOM      1  N   UNL     1       1.116   8.929  19.593  0.00  0.00    +0.000 N 
ATOM      2  C   UNL     1       1.458   8.193  20.693  0.00  0.00    +0.000 C 
ATOM      3  O   UNL     1       1.183   8.419  21.862  0.00  0.00    +0.000 OA
ATOM      4  C   UNL     1       2.236   6.975  20.225  0.00  0.00    +0.000 C 
ATOM      5  C   UNL     1       1.318   5.753  20.076  0.00  0.00    +0.000 C 
ATOM      6  C   UNL     1       1.960   4.717  19.187  0.00  0.00    +0.000 A 
ATOM      7  C   UNL     1       1.505   3.395  19.246  0.00  0.00    +0.000 A 
ATOM      8  C   UNL     1       2.139   2.402  18.505  0.00  0.00    +0.000 A 
ATOM      9  C   UNL     1       3.239   2.723  17.712  0.00  0.00    +0.000 A 
ATOM     10  C   UNL     1       3.657   4.051  17.594  0.00  0.00    +0.000 A 
ATOM     11  C   UNL     1       2.994   5.071  18.290  0.00  0.00    +0.000 A 
ATOM     12  C   UNL     1       3.395   6.521  18.082  0.00  0.00    +0.000 C 
ATOM     13  N   UNL     1       2.610   7.422  18.910  0.00  0.00    +0.000 N 
ATOM     14  C   UNL     1       1.827   8.492  18.502  0.00  0.00    +0.000 C 
ATOM     15  O   UNL     1       1.793   8.951  17.372  0.00  0.00    +0.000 OA
ENDROOT
BRANCH   1  16
ATOM     16  C   UNL     1       0.374  10.170  19.648  0.00  0.00    +0.000 C 
BRANCH  16  18
ATOM     17  C   UNL     1      -0.004  11.543  21.727  0.00  0.00    +0.000 C 
ATOM     18  N   UNL     1       0.888  11.135  20.647  0.00  0.00    +0.000 N 
ATOM     19  C   UNL     1       1.581  12.197  20.010  0.00  0.00    +0.000 A 
ATOM     20  C   UNL     1       1.989  13.347  20.706  0.00  0.00    +0.000 A 
ATOM     21  C   UNL     1       2.648  14.391  20.047  0.00  0.00    +0.000 A 
ATOM     22  C   UNL     1       2.924  14.280  18.701  0.00  0.00    +0.000 A 
ATOM     23  C   UNL     1       2.537  13.113  18.074  0.00  0.00    +0.000 A 
ATOM     24  N   UNL     1       1.884  12.095  18.692  0.00  0.00    +0.000 NA
ENDBRANCH  16  18
ENDBRANCH   1  16
TORSDOF 2
ENDMDL
MODEL 7
REMARK VINA RESULT:      -7.1      1.885      2.694
REMARK  Name = 
REMARK  3 active torsions:
REMARK  status: ('A' for Active; 'I' for Inactive)
REMARK    1  A    between atoms: C_1  and  N_2
REMARK    2  A    between atoms: N_2  and  C_3
REMARK    3  A    between atoms: C_3  and  N_4
REMARK                            x       y       z     vdW  Elec       q    Type
REMARK                         _______ _______ _______ _____ _____    ______ ____
ROOT
ATOM      1  N   UNL     1       2.223   7.758  19.116  0.00  0.00    +0.000 N 
ATOM      2  C   UNL     1       2.304   8.616  18.055  0.00  0.00    +0.000 C 
ATOM      3  O   UNL     1       3.019   8.522  17.067  0.00  0.00    +0.000 OA
ATOM      4  C   UNL     1       1.303   9.737  18.273  0.00  0.00    +0.000 C 
ATOM      5  C   UNL     1      -0.019   9.451  17.545  0.00  0.00    +0.000 C 
ATOM      6  C   UNL     1      -1.133  10.283  18.129  0.00  0.00    +0.000 A 
ATOM      7  C   UNL     1      -2.294  10.489  17.376  0.00  0.00    +0.000 A 
ATOM      8  C   UNL     1      -3.298  11.327  17.851  0.00  0.00    +0.000 A 
ATOM      9  C   UNL     1      -3.142  11.974  19.075  0.00  0.00    +0.000 A 
ATOM     10  C   UNL     1      -2.018  11.721  19.865  0.00  0.00    +0.000 A 
ATOM     11  C   UNL     1      -1.023  10.836  19.426  0.00  0.00    +0.000 A 
ATOM     12  C   UNL     1       0.148  10.494  20.331  0.00  0.00    +0.000 C 
ATOM     13  N   UNL     1       1.081   9.585  19.687  0.00  0.00    +0.000 N 
ATOM     14  C   UNL     1       1.505   8.341  20.131  0.00  0.00    +0.000 C 
ATOM     15  O   UNL     1       1.273   7.869  21.232  0.00  0.00    +0.000 OA
ENDROOT
BRANCH   1  16
ATOM     16  C   UNL     1       3.038   6.571  19.261  0.00  0.00    +0.000 C 
BRANCH  16  18
ATOM     17  C   UNL     1       1.441   5.546  17.603  0.00  0.00    +0.000 C 
ATOM     18  N   UNL     1       2.455   5.361  18.636  0.00  0.00    +0.000 N 
ATOM     19  C   UNL     1       2.138   4.390  19.620  0.00  0.00    +0.000 A 
ATOM     20  C   UNL     1       1.389   3.239  19.320  0.00  0.00    +0.000 A 
ATOM     21  C   UNL     1       1.067   2.310  20.316  0.00  0.00    +0.000 A 
ATOM     22  C   UNL     1       1.512   2.512  21.605  0.00  0.00    +0.000 A 
ATOM     23  C   UNL     1       2.277   3.638  21.837  0.00  0.00    +0.000 A 
ATOM     24  N   UNL     1       2.588   4.558  20.888  0.00  0.00    +0.000 NA
ENDBRANCH  16  18
ENDBRANCH   1  16
TORSDOF 2
ENDMDL
MODEL 8
REMARK VINA RESULT:      -7.1      3.915      8.247
REMARK  Name = 
REMARK  3 active torsions:
REMARK  status: ('A' for Active; 'I' for Inactive)
REMARK    1  A    between atoms: C_1  and  N_2
REMARK    2  A    between atoms: N_2  and  C_3
REMARK    3  A    between atoms: C_3  and  N_4
REMARK                            x       y       z     vdW  Elec       q    Type
REMARK                         _______ _______ _______ _____ _____    ______ ____
ROOT
ATOM      1  N   UNL     1       5.314   5.458  18.216  0.00  0.00    +0.000 N 
ATOM      2  C   UNL     1       5.796   4.189  18.064  0.00  0.00    +0.000 C 
ATOM      3  O   UNL     1       5.647   3.235  18.814  0.00  0.00    +0.000 OA
ATOM      4  C   UNL     1       6.550   4.121  16.747  0.00  0.00    +0.000 C 
ATOM      5  C   UNL     1       5.654   3.585  15.620  0.00  0.00    +0.000 C 
ATOM      6  C   UNL     1       6.220   3.958  14.274  0.00  0.00    +0.000 A 
ATOM      7  C   UNL     1       5.811   3.242  13.143  0.00  0.00    +0.000 A 
ATOM      8  C   UNL     1       6.385   3.504  11.902  0.00  0.00    +0.000 A 
ATOM      9  C   UNL     1       7.380   4.472  11.788  0.00  0.00    +0.000 A 
ATOM     10  C   UNL     1       7.747   5.238  12.898  0.00  0.00    +0.000 A 
ATOM     11  C   UNL     1       7.139   5.025  14.142  0.00  0.00    +0.000 A 
ATOM     12  C   UNL     1       7.474   5.924  15.320  0.00  0.00    +0.000 C 
ATOM     13  N   UNL     1       6.763   5.527  16.523  0.00  0.00    +0.000 N 
ATOM     14  C   UNL     1       5.911   6.294  17.304  0.00  0.00    +0.000 C 
ATOM     15  O   UNL     1       5.739   7.496  17.188  0.00  0.00    +0.000 OA
ENDROOT
BRANCH   1  16
ATOM     16  C   UNL     1       4.550   5.902  19.361  0.00  0.00    +0.000 C 
BRANCH  16  18
ATOM     17  C   UNL     1       2.314   7.062  19.286  0.00  0.00    +0.000 C 
ATOM     18  N   UNL     1       3.083   5.827  19.171  0.00  0.00    +0.000 N 
ATOM     19  C   UNL     1       2.541   4.718  19.870  0.00  0.00    +0.000 A 
ATOM     20  C   UNL     1       1.156   4.536  20.024  0.00  0.00    +0.000 A 
ATOM     21  C   UNL     1       0.650   3.446  20.741  0.00  0.00    +0.000 A 
ATOM     22  C   UNL     1       1.519   2.523  21.283  0.00  0.00    +0.000 A 
ATOM     23  C   UNL     1       2.868   2.728  21.068  0.00  0.00    +0.000 A 
ATOM     24  N   UNL     1       3.379   3.787  20.388  0.00  0.00    +0.000 NA
ENDBRANCH  16  18
ENDBRANCH   1  16
TORSDOF 2
ENDMDL
MODEL 9
REMARK VINA RESULT:      -7.0      1.670      2.543
REMARK  Name = 
REMARK  3 active torsions:
REMARK  status: ('A' for Active; 'I' for Inactive)
REMARK    1  A    between atoms: C_1  and  N_2
REMARK    2  A    between atoms: N_2  and  C_3
REMARK    3  A    between atoms: C_3  and  N_4
REMARK                            x       y       z     vdW  Elec       q    Type
REMARK                         _______ _______ _______ _____ _____    ______ ____
ROOT
ATOM      1  N   UNL     1       1.725   8.085  18.823  0.00  0.00    +0.000 N 
ATOM      2  C   UNL     1       1.834   9.360  18.343  0.00  0.00    +0.000 C 
ATOM      3  O   UNL     1       2.267   9.719  17.258  0.00  0.00    +0.000 OA
ATOM      4  C   UNL     1       1.277  10.309  19.390  0.00  0.00    +0.000 C 
ATOM      5  C   UNL     1      -0.191  10.656  19.102  0.00  0.00    +0.000 C 
ATOM      6  C   UNL     1      -0.862  11.184  20.345  0.00  0.00    +0.000 A 
ATOM      7  C   UNL     1      -2.040  11.929  20.218  0.00  0.00    +0.000 A 
ATOM      8  C   UNL     1      -2.629  12.504  21.339  0.00  0.00    +0.000 A 
ATOM      9  C   UNL     1      -2.038  12.351  22.592  0.00  0.00    +0.000 A 
ATOM     10  C   UNL     1      -0.900  11.553  22.738  0.00  0.00    +0.000 A 
ATOM     11  C   UNL     1      -0.326  10.920  21.627  0.00  0.00    +0.000 A 
ATOM     12  C   UNL     1       0.853   9.979  21.810  0.00  0.00    +0.000 C 
ATOM     13  N   UNL     1       1.320   9.446  20.540  0.00  0.00    +0.000 N 
ATOM     14  C   UNL     1       1.439   8.116  20.165  0.00  0.00    +0.000 C 
ATOM     15  O   UNL     1       1.312   7.159  20.911  0.00  0.00    +0.000 OA
ENDROOT
BRANCH   1  16
ATOM     16  C   UNL     1       2.163   6.909  18.102  0.00  0.00    +0.000 C 
BRANCH  16  18
ATOM     17  C   UNL     1       4.617   6.794  17.541  0.00  0.00    +0.000 C 
ATOM     18  N   UNL     1       3.530   6.460  18.455  0.00  0.00    +0.000 N 
ATOM     19  C   UNL     1       3.517   5.115  18.905  0.00  0.00    +0.000 A 
ATOM     20  C   UNL     1       4.700   4.384  19.108  0.00  0.00    +0.000 A 
ATOM     21  C   UNL     1       4.657   3.049  19.527  0.00  0.00    +0.000 A 
ATOM     22  C   UNL     1       3.440   2.449  19.770  0.00  0.00    +0.000 A 
ATOM     23  C   UNL     1       2.311   3.225  19.593  0.00  0.00    +0.000 A 
ATOM     24  N   UNL     1       2.331   4.516  19.174  0.00  0.00    +0.000 NA
ENDBRANCH  16  18
ENDBRANCH   1  16
TORSDOF 2
ENDMDL
