MODEL 1
REMARK VINA RESULT:      -7.1      0.000      0.000
REMARK  Name = 
REMARK  10 active torsions:
REMARK  status: ('A' for Active; 'I' for Inactive)
REMARK    1  A    between atoms: C_1  and  C_2
REMARK    2  A    between atoms: N_4  and  C_5
REMARK    3  A    between atoms: C_6  and  O_7
REMARK    4  A    between atoms: C_10  and  C_12
REMARK    5  A    between atoms: C_12  and  O_14
REMARK    6  A    between atoms: C_16  and  C_17
REMARK    7  A    between atoms: C_17  and  O_18
REMARK    8  A    between atoms: C_17  and  C_19
REMARK    9  A    between atoms: C_19  and  C_20
REMARK   10  A    between atoms: C_19  and  O_21
REMARK                            x       y       z     vdW  Elec       q    Type
REMARK                         _______ _______ _______ _____ _____    ______ ____
ROOT
ATOM      1  C   UNL     1       4.271   5.751  18.474  0.00  0.00    +0.000 C 
ATOM      2  C   UNL     1       5.784   6.022  18.548  0.00  0.00    +0.000 C 
ATOM      3  C   UNL     1       6.404   6.007  17.154  0.00  0.00    +0.000 C 
ATOM      4  F   UNL     1       7.760   6.069  17.293  0.00  0.00    +0.000 F 
ATOM      5  C   UNL     1       6.024   4.753  16.381  0.00  0.00    +0.000 C 
ATOM      6  F   UNL     1       6.636   3.661  16.931  0.00  0.00    +0.000 F 
ATOM      7  O   UNL     1       4.625   4.485  16.377  0.00  0.00    +0.000 OA
ATOM      8  C   UNL     1       3.999   4.447  17.670  0.00  0.00    +0.000 C 
ENDROOT
BRANCH   1  12
ATOM      9  C   UNL     1       1.941   8.681  17.757  0.00  0.00    +0.000 C 
ATOM     10  C   UNL     1       2.557   7.559  18.548  0.00  0.00    +0.000 C 
ATOM     11  O   UNL     1       2.191   7.256  19.677  0.00  0.00    +0.000 OA
ATOM     12  N   UNL     1       3.560   6.895  17.868  0.00  0.00    +0.000 N 
ATOM     13  H   UNL     1       3.943   7.358  17.051  0.00  0.00    +0.000 HD
ENDBRANCH   1  12
BRANCH   2  14
ATOM     14  O   UNL     1       6.393   5.062  19.416  0.00  0.00    +0.000 OA
ATOM     15  H   UNL     1       6.222   4.163  19.077  0.00  0.00    +0.000 HD
ENDBRANCH   2  14
BRANCH   5  16
ATOM     16  C   UNL     1       6.498   4.921  14.929  0.00  0.00    +0.000 C 
ATOM     17  O   UNL     1       7.542   5.476  14.598  0.00  0.00    +0.000 OA
BRANCH  16  18
ATOM     18  O   UNL     1       5.637   4.390  14.034  0.00  0.00    +0.000 OA
ATOM     19  H   UNL     1       6.048   3.657  13.525  0.00  0.00    +0.000 HD
ENDBRANCH  16  18
ENDBRANCH   5  16
BRANCH   8  20
ATOM     20  C   UNL     1       4.282   3.122  18.426  0.00  0.00    +0.000 C 
BRANCH  20  21
ATOM     21  O   UNL     1       4.202   3.280  19.850  0.00  0.00    +0.000 OA
ATOM     22  H   UNL     1       3.376   3.747  20.071  0.00  0.00    +0.000 HD
ENDBRANCH  20  21
BRANCH  20  23
ATOM     23  C   UNL     1       3.319   1.987  17.996  0.00  0.00    +0.000 C 
ATOM     24  C   UNL     1       1.946   2.046  18.656  0.00  0.00    +0.000 C 
BRANCH  23  25
ATOM     25  O   UNL     1       3.913   0.729  18.350  0.00  0.00    +0.000 OA
ATOM     26  H   UNL     1       3.354   0.362  19.064  0.00  0.00    +0.000 HD
ENDBRANCH  23  25
ENDBRANCH  20  23
ENDBRANCH   8  20
TORSDOF 8
ENDMDL
MODEL 2
REMARK VINA RESULT:      -6.9      2.195      4.810
REMARK  Name = 
REMARK  10 active torsions:
REMARK  status: ('A' for Active; 'I' for Inactive)
REMARK    1  A    between atoms: C_1  and  C_2
REMARK    2  A    between atoms: N_4  and  C_5
REMARK    3  A    between atoms: C_6  and  O_7
REMARK    4  A    between atoms: C_10  and  C_12
REMARK    5  A    between atoms: C_12  and  O_14
REMARK    6  A    between atoms: C_16  and  C_17
REMARK    7  A    between atoms: C_17  and  O_18
REMARK    8  A    between atoms: C_17  and  C_19
REMARK    9  A    between atoms: C_19  and  C_20
REMARK   10  A    between atoms: C_19  and  O_21
REMARK                            x       y       z     vdW  Elec       q    Type
REMARK                         _______ _______ _______ _____ _____    ______ ____
ROOT
ATOM      1  C   UNL     1       2.747   5.291  18.320  0.00  0.00    +0.000 C 
ATOM      2  C   UNL     1       1.981   3.960  18.235  0.00  0.00    +0.000 C 
ATOM      3  C   UNL     1       2.309   3.070  19.430  0.00  0.00    +0.000 C 
ATOM      4  F   UNL     1       1.751   1.844  19.213  0.00  0.00    +0.000 F 
ATOM      5  C   UNL     1       3.811   2.924  19.628  0.00  0.00    +0.000 C 
ATOM      6  F   UNL     1       4.345   2.177  18.615  0.00  0.00    +0.000 F 
ATOM      7  O   UNL     1       4.510   4.164  19.641  0.00  0.00    +0.000 OA
ATOM      8  C   UNL     1       4.267   5.023  18.514  0.00  0.00    +0.000 C 
ENDROOT
BRANCH   1  12
ATOM      9  C   UNL     1       1.617   8.189  20.523  0.00  0.00    +0.000 C 
ATOM     10  C   UNL     1       2.162   7.508  19.297  0.00  0.00    +0.000 C 
ATOM     11  O   UNL     1       2.531   8.119  18.301  0.00  0.00    +0.000 OA
ATOM     12  N   UNL     1       2.222   6.133  19.414  0.00  0.00    +0.000 N 
ATOM     13  H   UNL     1       1.686   5.714  20.167  0.00  0.00    +0.000 HD
ENDBRANCH   1  12
BRANCH   2  14
ATOM     14  O   UNL     1       2.282   3.320  16.992  0.00  0.00    +0.000 OA
ATOM     15  H   UNL     1       2.857   3.901  16.459  0.00  0.00    +0.000 HD
ENDBRANCH   2  14
BRANCH   5  16
ATOM     16  C   UNL     1       4.052   2.207  20.966  0.00  0.00    +0.000 C 
ATOM     17  O   UNL     1       5.050   1.542  21.229  0.00  0.00    +0.000 OA
BRANCH  16  18
ATOM     18  O   UNL     1       3.037   2.381  21.841  0.00  0.00    +0.000 OA
ATOM     19  H   UNL     1       3.215   3.123  22.460  0.00  0.00    +0.000 HD
ENDBRANCH  16  18
ENDBRANCH   5  16
BRANCH   8  20
ATOM     20  C   UNL     1       5.035   4.567  17.246  0.00  0.00    +0.000 C 
BRANCH  20  21
ATOM     21  O   UNL     1       4.484   5.129  16.045  0.00  0.00    +0.000 OA
ATOM     22  H   UNL     1       3.953   5.912  16.277  0.00  0.00    +0.000 HD
ENDBRANCH  20  21
BRANCH  20  23
ATOM     23  C   UNL     1       6.541   4.922  17.316  0.00  0.00    +0.000 C 
ATOM     24  C   UNL     1       7.300   4.697  16.013  0.00  0.00    +0.000 C 
BRANCH  23  25
ATOM     25  O   UNL     1       7.155   4.099  18.319  0.00  0.00    +0.000 OA
ATOM     26  H   UNL     1       8.055   3.903  17.987  0.00  0.00    +0.000 HD
ENDBRANCH  23  25
ENDBRANCH  20  23
ENDBRANCH   8  20
TORSDOF 8
ENDMDL
MODEL 3
REMARK VINA RESULT:      -6.9      2.119      4.815
REMARK  Name = 
REMARK  10 active torsions:
REMARK  status: ('A' for Active; 'I' for Inactive)
REMARK    1  A    between atoms: C_1  and  C_2
REMARK    2  A    between atoms: N_4  and  C_5
REMARK    3  A    between atoms: C_6  and  O_7
REMARK    4  A    between atoms: C_10  and  C_12
REMARK    5  A    between atoms: C_12  and  O_14
REMARK    6  A    between atoms: C_16  and  C_17
REMARK    7  A    between atoms: C_17  and  O_18
REMARK    8  A    between atoms: C_17  and  C_19
REMARK    9  A    between atoms: C_19  and  C_20
REMARK   10  A    between atoms: C_19  and  O_21
REMARK                            x       y       z     vdW  Elec       q    Type
REMARK                         _______ _______ _______ _____ _____    ______ ____
ROOT
ATOM      1  C   UNL     1       3.201   5.485  18.157  0.00  0.00    +0.000 C 
ATOM      2  C   UNL     1       2.372   4.202  17.973  0.00  0.00    +0.000 C 
ATOM      3  C   UNL     1       2.484   3.305  19.202  0.00  0.00    +0.000 C 
ATOM      4  F   UNL     1       1.886   2.113  18.914  0.00  0.00    +0.000 F 
ATOM      5  C   UNL     1       3.934   3.070  19.599  0.00  0.00    +0.000 C 
ATOM      6  F   UNL     1       4.552   2.282  18.667  0.00  0.00    +0.000 F 
ATOM      7  O   UNL     1       4.700   4.265  19.704  0.00  0.00    +0.000 OA
ATOM      8  C   UNL     1       4.662   5.127  18.554  0.00  0.00    +0.000 C 
ENDROOT
BRANCH   1  12
ATOM      9  C   UNL     1       1.654   8.415  20.042  0.00  0.00    +0.000 C 
ATOM     10  C   UNL     1       2.246   7.672  18.875  0.00  0.00    +0.000 C 
ATOM     11  O   UNL     1       2.422   8.185  17.777  0.00  0.00    +0.000 OA
ATOM     12  N   UNL     1       2.587   6.367  19.171  0.00  0.00    +0.000 N 
ATOM     13  H   UNL     1       2.194   5.973  20.019  0.00  0.00    +0.000 HD
ENDBRANCH   1  12
BRANCH   2  14
ATOM     14  O   UNL     1       2.797   3.533  16.782  0.00  0.00    +0.000 OA
ATOM     15  H   UNL     1       2.014   3.255  16.269  0.00  0.00    +0.000 HD
ENDBRANCH   2  14
BRANCH   5  16
ATOM     16  C   UNL     1       3.950   2.352  20.958  0.00  0.00    +0.000 C 
ATOM     17  O   UNL     1       3.038   2.396  21.778  0.00  0.00    +0.000 OA
BRANCH  16  18
ATOM     18  O   UNL     1       5.090   1.657  21.168  0.00  0.00    +0.000 OA
ATOM     19  H   UNL     1       5.287   1.050  20.420  0.00  0.00    +0.000 HD
ENDBRANCH  16  18
ENDBRANCH   5  16
BRANCH   8  20
ATOM     20  C   UNL     1       5.563   4.614  17.400  0.00  0.00    +0.000 C 
BRANCH  20  21
ATOM     21  O   UNL     1       5.263   5.253  16.150  0.00  0.00    +0.000 OA
ATOM     22  H   UNL     1       4.636   4.698  15.653  0.00  0.00    +0.000 HD
ENDBRANCH  20  21
BRANCH  20  23
ATOM     23  C   UNL     1       7.069   4.802  17.707  0.00  0.00    +0.000 C 
ATOM     24  C   UNL     1       7.453   6.219  18.122  0.00  0.00    +0.000 C 
BRANCH  23  25
ATOM     25  O   UNL     1       7.818   4.484  16.524  0.00  0.00    +0.000 OA
ATOM     26  H   UNL     1       8.135   3.567  16.649  0.00  0.00    +0.000 HD
ENDBRANCH  23  25
ENDBRANCH  20  23
ENDBRANCH   8  20
TORSDOF 8
ENDMDL
MODEL 4
REMARK VINA RESULT:      -6.7      1.021      1.062
REMARK  Name = 
REMARK  10 active torsions:
REMARK  status: ('A' for Active; 'I' for Inactive)
REMARK    1  A    between atoms: C_1  and  C_2
REMARK    2  A    between atoms: N_4  and  C_5
REMARK    3  A    between atoms: C_6  and  O_7
REMARK    4  A    between atoms: C_10  and  C_12
REMARK    5  A    between atoms: C_12  and  O_14
REMARK    6  A    between atoms: C_16  and  C_17
REMARK    7  A    between atoms: C_17  and  O_18
REMARK    8  A    between atoms: C_17  and  C_19
REMARK    9  A    between atoms: C_19  and  C_20
REMARK   10  A    between atoms: C_19  and  O_21
REMARK                            x       y       z     vdW  Elec       q    Type
REMARK                         _______ _______ _______ _____ _____    ______ ____
ROOT
ATOM      1  C   UNL     1       4.470   5.406  19.202  0.00  0.00    +0.000 C 
ATOM      2  C   UNL     1       5.955   5.778  19.048  0.00  0.00    +0.000 C 
ATOM      3  C   UNL     1       6.262   6.194  17.613  0.00  0.00    +0.000 C 
ATOM      4  F   UNL     1       7.613   6.335  17.491  0.00  0.00    +0.000 F 
ATOM      5  C   UNL     1       5.760   5.166  16.608  0.00  0.00    +0.000 C 
ATOM      6  F   UNL     1       6.507   4.024  16.695  0.00  0.00    +0.000 F 
ATOM      7  O   UNL     1       4.402   4.789  16.806  0.00  0.00    +0.000 OA
ATOM      8  C   UNL     1       4.069   4.349  18.134  0.00  0.00    +0.000 C 
ENDROOT
BRANCH   1  12
ATOM      9  C   UNL     1       1.691   7.992  19.549  0.00  0.00    +0.000 C 
ATOM     10  C   UNL     1       2.432   6.708  19.805  0.00  0.00    +0.000 C 
ATOM     11  O   UNL     1       2.016   5.834  20.557  0.00  0.00    +0.000 OA
ATOM     12  N   UNL     1       3.613   6.605  19.097  0.00  0.00    +0.000 N 
ATOM     13  H   UNL     1       3.980   7.460  18.693  0.00  0.00    +0.000 HD
ENDBRANCH   1  12
BRANCH   2  14
ATOM     14  O   UNL     1       6.764   4.677  19.472  0.00  0.00    +0.000 OA
ATOM     15  H   UNL     1       7.530   4.588  18.873  0.00  0.00    +0.000 HD
ENDBRANCH   2  14
BRANCH   5  16
ATOM     16  C   UNL     1       5.907   5.760  15.199  0.00  0.00    +0.000 C 
ATOM     17  O   UNL     1       6.640   5.305  14.325  0.00  0.00    +0.000 OA
BRANCH  16  18
ATOM     18  O   UNL     1       5.139   6.855  15.011  0.00  0.00    +0.000 OA
ATOM     19  H   UNL     1       5.498   7.637  15.487  0.00  0.00    +0.000 HD
ENDBRANCH  16  18
ENDBRANCH   5  16
BRANCH   8  20
ATOM     20  C   UNL     1       4.546   2.899  18.414  0.00  0.00    +0.000 C 
BRANCH  20  21
ATOM     21  O   UNL     1       4.934   2.709  19.782  0.00  0.00    +0.000 OA
ATOM     22  H   UNL     1       4.829   1.768  20.013  0.00  0.00    +0.000 HD
ENDBRANCH  20  21
BRANCH  20  23
ATOM     23  C   UNL     1       3.465   1.849  18.052  0.00  0.00    +0.000 C 
ATOM     24  C   UNL     1       2.120   2.072  18.736  0.00  0.00    +0.000 C 
BRANCH  23  25
ATOM     25  O   UNL     1       3.940   0.554  18.449  0.00  0.00    +0.000 OA
ATOM     26  H   UNL     1       4.108   0.066  17.617  0.00  0.00    +0.000 HD
ENDBRANCH  23  25
ENDBRANCH  20  23
ENDBRANCH   8  20
TORSDOF 8
ENDMDL
MODEL 5
REMARK VINA RESULT:      -6.7      2.478      4.985
REMARK  Name = 
REMARK  10 active torsions:
REMARK  status: ('A' for Active; 'I' for Inactive)
REMARK    1  A    between atoms: C_1  and  C_2
REMARK    2  A    between atoms: N_4  and  C_5
REMARK    3  A    between atoms: C_6  and  O_7
REMARK    4  A    between atoms: C_10  and  C_12
REMARK    5  A    between atoms: C_12  and  O_14
REMARK    6  A    between atoms: C_16  and  C_17
REMARK    7  A    between atoms: C_17  and  O_18
REMARK    8  A    between atoms: C_17  and  C_19
REMARK    9  A    between atoms: C_19  and  C_20
REMARK   10  A    between atoms: C_19  and  O_21
REMARK                            x       y       z     vdW  Elec       q    Type
REMARK                         _______ _______ _______ _____ _____    ______ ____
ROOT
ATOM      1  C   UNL     1       3.038   5.770  18.017  0.00  0.00    +0.000 C 
ATOM      2  C   UNL     1       2.111   4.577  17.729  0.00  0.00    +0.000 C 
ATOM      3  C   UNL     1       1.761   3.841  19.018  0.00  0.00    +0.000 C 
ATOM      4  F   UNL     1       1.094   2.698  18.686  0.00  0.00    +0.000 F 
ATOM      5  C   UNL     1       3.004   3.494  19.825  0.00  0.00    +0.000 C 
ATOM      6  F   UNL     1       3.725   2.527  19.180  0.00  0.00    +0.000 F 
ATOM      7  O   UNL     1       3.880   4.597  20.028  0.00  0.00    +0.000 OA
ATOM      8  C   UNL     1       4.274   5.302  18.838  0.00  0.00    +0.000 C 
ENDROOT
BRANCH   1  12
ATOM      9  C   UNL     1       1.462   9.069  19.095  0.00  0.00    +0.000 C 
ATOM     10  C   UNL     1       2.221   8.117  18.212  0.00  0.00    +0.000 C 
ATOM     11  O   UNL     1       2.721   8.449  17.144  0.00  0.00    +0.000 OA
ATOM     12  N   UNL     1       2.313   6.841  18.732  0.00  0.00    +0.000 N 
ATOM     13  H   UNL     1       1.681   6.609  19.490  0.00  0.00    +0.000 HD
ENDBRANCH   1  12
BRANCH   2  14
ATOM     14  O   UNL     1       2.733   3.716  16.772  0.00  0.00    +0.000 OA
ATOM     15  H   UNL     1       2.436   2.798  16.919  0.00  0.00    +0.000 HD
ENDBRANCH   2  14
BRANCH   5  16
ATOM     16  C   UNL     1       2.555   2.962  21.195  0.00  0.00    +0.000 C 
ATOM     17  O   UNL     1       3.224   2.215  21.904  0.00  0.00    +0.000 OA
BRANCH  16  18
ATOM     18  O   UNL     1       1.327   3.400  21.548  0.00  0.00    +0.000 OA
ATOM     19  H   UNL     1       0.616   2.869  21.125  0.00  0.00    +0.000 HD
ENDBRANCH  16  18
ENDBRANCH   5  16
BRANCH   8  20
ATOM     20  C   UNL     1       5.364   4.544  18.035  0.00  0.00    +0.000 C 
BRANCH  20  21
ATOM     21  O   UNL     1       5.241   4.753  16.620  0.00  0.00    +0.000 OA
ATOM     22  H   UNL     1       6.090   4.537  16.194  0.00  0.00    +0.000 HD
ENDBRANCH  20  21
BRANCH  20  23
ATOM     23  C   UNL     1       6.795   4.940  18.475  0.00  0.00    +0.000 C 
ATOM     24  C   UNL     1       7.211   6.348  18.064  0.00  0.00    +0.000 C 
BRANCH  23  25
ATOM     25  O   UNL     1       7.724   4.025  17.875  0.00  0.00    +0.000 OA
ATOM     26  H   UNL     1       7.188   3.272  17.554  0.00  0.00    +0.000 HD
ENDBRANCH  23  25
ENDBRANCH  20  23
ENDBRANCH   8  20
TORSDOF 8
ENDMDL
MODEL 6
REMARK VINA RESULT:      -6.6      2.457      5.048
REMARK  Name = 
REMARK  10 active torsions:
REMARK  status: ('A' for Active; 'I' for Inactive)
REMARK    1  A    between atoms: C_1  and  C_2
REMARK    2  A    between atoms: N_4  and  C_5
REMARK    3  A    between atoms: C_6  and  O_7
REMARK    4  A    between atoms: C_10  and  C_12
REMARK    5  A    between atoms: C_12  and  O_14
REMARK    6  A    between atoms: C_16  and  C_17
REMARK    7  A    between atoms: C_17  and  O_18
REMARK    8  A    between atoms: C_17  and  C_19
REMARK    9  A    between atoms: C_19  and  C_20
REMARK   10  A    between atoms: C_19  and  O_21
REMARK                            x       y       z     vdW  Elec       q    Type
REMARK                         _______ _______ _______ _____ _____    ______ ____
ROOT
ATOM      1  C   UNL     1       2.778   6.032  18.430  0.00  0.00    +0.000 C 
ATOM      2  C   UNL     1       1.874   4.824  18.129  0.00  0.00    +0.000 C 
ATOM      3  C   UNL     1       1.708   3.950  19.369  0.00  0.00    +0.000 C 
ATOM      4  F   UNL     1       1.056   2.810  19.001  0.00  0.00    +0.000 F 
ATOM      5  C   UNL     1       3.051   3.596  19.993  0.00  0.00    +0.000 C 
ATOM      6  F   UNL     1       3.732   2.735  19.178  0.00  0.00    +0.000 F 
ATOM      7  O   UNL     1       3.897   4.721  20.206  0.00  0.00    +0.000 OA
ATOM      8  C   UNL     1       4.119   5.555  19.056  0.00  0.00    +0.000 C 
ENDROOT
BRANCH   1  12
ATOM      9  C   UNL     1       1.170   9.117  19.989  0.00  0.00    +0.000 C 
ATOM     10  C   UNL     1       1.855   8.292  18.933  0.00  0.00    +0.000 C 
ATOM     11  O   UNL     1       2.180   8.740  17.841  0.00  0.00    +0.000 OA
ATOM     12  N   UNL     1       2.096   6.990  19.325  0.00  0.00    +0.000 N 
ATOM     13  H   UNL     1       1.591   6.656  20.139  0.00  0.00    +0.000 HD
ENDBRANCH   1  12
BRANCH   2  14
ATOM     14  O   UNL     1       2.417   4.092  17.027  0.00  0.00    +0.000 OA
ATOM     15  H   UNL     1       3.150   3.528  17.340  0.00  0.00    +0.000 HD
ENDBRANCH   2  14
BRANCH   5  16
ATOM     16  C   UNL     1       2.787   2.913  21.344  0.00  0.00    +0.000 C 
ATOM     17  O   UNL     1       1.831   3.160  22.073  0.00  0.00    +0.000 OA
BRANCH  16  18
ATOM     18  O   UNL     1       3.730   1.999  21.659  0.00  0.00    +0.000 OA
ATOM     19  H   UNL     1       4.566   2.425  21.953  0.00  0.00    +0.000 HD
ENDBRANCH  16  18
ENDBRANCH   5  16
BRANCH   8  20
ATOM     20  C   UNL     1       5.139   4.936  18.065  0.00  0.00    +0.000 C 
BRANCH  20  21
ATOM     21  O   UNL     1       4.853   5.284  16.702  0.00  0.00    +0.000 OA
ATOM     22  H   UNL     1       5.620   5.049  16.148  0.00  0.00    +0.000 HD
ENDBRANCH  20  21
BRANCH  20  23
ATOM     23  C   UNL     1       6.596   5.351  18.390  0.00  0.00    +0.000 C 
ATOM     24  C   UNL     1       7.658   4.554  17.640  0.00  0.00    +0.000 C 
BRANCH  23  25
ATOM     25  O   UNL     1       6.822   5.155  19.793  0.00  0.00    +0.000 OA
ATOM     26  H   UNL     1       6.950   6.049  20.170  0.00  0.00    +0.000 HD
ENDBRANCH  23  25
ENDBRANCH  20  23
ENDBRANCH   8  20
TORSDOF 8
ENDMDL
MODEL 7
REMARK VINA RESULT:      -6.6      2.263      4.517
REMARK  Name = 
REMARK  10 active torsions:
REMARK  status: ('A' for Active; 'I' for Inactive)
REMARK    1  A    between atoms: C_1  and  C_2
REMARK    2  A    between atoms: N_4  and  C_5
REMARK    3  A    between atoms: C_6  and  O_7
REMARK    4  A    between atoms: C_10  and  C_12
REMARK    5  A    between atoms: C_12  and  O_14
REMARK    6  A    between atoms: C_16  and  C_17
REMARK    7  A    between atoms: C_17  and  O_18
REMARK    8  A    between atoms: C_17  and  C_19
REMARK    9  A    between atoms: C_19  and  C_20
REMARK   10  A    between atoms: C_19  and  O_21
REMARK                            x       y       z     vdW  Elec       q    Type
REMARK                         _______ _______ _______ _____ _____    ______ ____
ROOT
ATOM      1  C   UNL     1       5.328   4.288  18.373  0.00  0.00    +0.000 C 
ATOM      2  C   UNL     1       5.000   5.226  17.199  0.00  0.00    +0.000 C 
ATOM      3  C   UNL     1       4.192   6.428  17.676  0.00  0.00    +0.000 C 
ATOM      4  F   UNL     1       3.778   7.124  16.579  0.00  0.00    +0.000 F 
ATOM      5  C   UNL     1       2.986   6.005  18.503  0.00  0.00    +0.000 C 
ATOM      6  F   UNL     1       2.062   5.395  17.702  0.00  0.00    +0.000 F 
ATOM      7  O   UNL     1       3.300   5.089  19.546  0.00  0.00    +0.000 OA
ATOM      8  C   UNL     1       4.027   3.916  19.141  0.00  0.00    +0.000 C 
ENDROOT
BRANCH   1  12
ATOM      9  C   UNL     1       8.498   5.601  20.032  0.00  0.00    +0.000 C 
ATOM     10  C   UNL     1       7.655   4.949  18.970  0.00  0.00    +0.000 C 
ATOM     11  O   UNL     1       8.123   4.486  17.936  0.00  0.00    +0.000 OA
ATOM     12  N   UNL     1       6.311   4.908  19.284  0.00  0.00    +0.000 N 
ATOM     13  H   UNL     1       5.999   5.513  20.036  0.00  0.00    +0.000 HD
ENDBRANCH   1  12
BRANCH   2  14
ATOM     14  O   UNL     1       4.314   4.489  16.183  0.00  0.00    +0.000 OA
ATOM     15  H   UNL     1       3.351   4.565  16.321  0.00  0.00    +0.000 HD
ENDBRANCH   2  14
BRANCH   5  16
ATOM     16  C   UNL     1       2.363   7.265  19.124  0.00  0.00    +0.000 C 
ATOM     17  O   UNL     1       1.993   8.246  18.484  0.00  0.00    +0.000 OA
BRANCH  16  18
ATOM     18  O   UNL     1       2.264   7.190  20.469  0.00  0.00    +0.000 OA
ATOM     19  H   UNL     1       1.651   7.870  20.827  0.00  0.00    +0.000 HD
ENDBRANCH  16  18
ENDBRANCH   5  16
BRANCH   8  20
ATOM     20  C   UNL     1       3.117   2.866  18.449  0.00  0.00    +0.000 C 
BRANCH  20  21
ATOM     21  O   UNL     1       3.874   1.825  17.814  0.00  0.00    +0.000 OA
ATOM     22  H   UNL     1       4.607   2.227  17.314  0.00  0.00    +0.000 HD
ENDBRANCH  20  21
BRANCH  20  23
ATOM     23  C   UNL     1       2.114   2.221  19.438  0.00  0.00    +0.000 C 
ATOM     24  C   UNL     1       0.658   2.600  19.192  0.00  0.00    +0.000 C 
BRANCH  23  25
ATOM     25  O   UNL     1       2.450   2.644  20.767  0.00  0.00    +0.000 OA
ATOM     26  H   UNL     1       1.626   3.009  21.147  0.00  0.00    +0.000 HD
ENDBRANCH  23  25
ENDBRANCH  20  23
ENDBRANCH   8  20
TORSDOF 8
ENDMDL
MODEL 8
REMARK VINA RESULT:      -6.6      2.492      4.996
REMARK  Name = 
REMARK  10 active torsions:
REMARK  status: ('A' for Active; 'I' for Inactive)
REMARK    1  A    between atoms: C_1  and  C_2
REMARK    2  A    between atoms: N_4  and  C_5
REMARK    3  A    between atoms: C_6  and  O_7
REMARK    4  A    between atoms: C_10  and  C_12
REMARK    5  A    between atoms: C_12  and  O_14
REMARK    6  A    between atoms: C_16  and  C_17
REMARK    7  A    between atoms: C_17  and  O_18
REMARK    8  A    between atoms: C_17  and  C_19
REMARK    9  A    between atoms: C_19  and  C_20
REMARK   10  A    between atoms: C_19  and  O_21
REMARK                            x       y       z     vdW  Elec       q    Type
REMARK                         _______ _______ _______ _____ _____    ______ ____
ROOT
ATOM      1  C   UNL     1       2.800   6.115  19.078  0.00  0.00    +0.000 C 
ATOM      2  C   UNL     1       1.934   4.918  18.649  0.00  0.00    +0.000 C 
ATOM      3  C   UNL     1       2.040   3.783  19.663  0.00  0.00    +0.000 C 
ATOM      4  F   UNL     1       1.406   2.691  19.145  0.00  0.00    +0.000 F 
ATOM      5  C   UNL     1       3.490   3.436  19.972  0.00  0.00    +0.000 C 
ATOM      6  F   UNL     1       4.071   2.845  18.884  0.00  0.00    +0.000 F 
ATOM      7  O   UNL     1       4.289   4.566  20.306  0.00  0.00    +0.000 OA
ATOM      8  C   UNL     1       4.257   5.648  19.361  0.00  0.00    +0.000 C 
ENDROOT
BRANCH   1  12
ATOM      9  C   UNL     1       1.177   8.566  21.504  0.00  0.00    +0.000 C 
ATOM     10  C   UNL     1       1.692   8.052  20.187  0.00  0.00    +0.000 C 
ATOM     11  O   UNL     1       1.654   8.708  19.153  0.00  0.00    +0.000 OA
ATOM     12  N   UNL     1       2.226   6.781  20.265  0.00  0.00    +0.000 N 
ATOM     13  H   UNL     1       2.003   6.241  21.094  0.00  0.00    +0.000 HD
ENDBRANCH   1  12
BRANCH   2  14
ATOM     14  O   UNL     1       2.322   4.502  17.336  0.00  0.00    +0.000 OA
ATOM     15  H   UNL     1       2.281   3.528  17.279  0.00  0.00    +0.000 HD
ENDBRANCH   2  14
BRANCH   5  16
ATOM     16  C   UNL     1       3.507   2.452  21.151  0.00  0.00    +0.000 C 
ATOM     17  O   UNL     1       4.415   1.658  21.382  0.00  0.00    +0.000 OA
BRANCH  16  18
ATOM     18  O   UNL     1       2.403   2.544  21.925  0.00  0.00    +0.000 OA
ATOM     19  H   UNL     1       1.925   3.390  21.775  0.00  0.00    +0.000 HD
ENDBRANCH  16  18
ENDBRANCH   5  16
BRANCH   8  20
ATOM     20  C   UNL     1       5.125   5.366  18.107  0.00  0.00    +0.000 C 
BRANCH  20  21
ATOM     21  O   UNL     1       4.752   6.186  16.991  0.00  0.00    +0.000 OA
ATOM     22  H   UNL     1       3.866   6.557  17.153  0.00  0.00    +0.000 HD
ENDBRANCH  20  21
BRANCH  20  23
ATOM     23  C   UNL     1       6.636   5.563  18.387  0.00  0.00    +0.000 C 
ATOM     24  C   UNL     1       7.547   4.623  17.605  0.00  0.00    +0.000 C 
BRANCH  23  25
ATOM     25  O   UNL     1       6.874   5.330  19.783  0.00  0.00    +0.000 OA
ATOM     26  H   UNL     1       6.459   6.082  20.253  0.00  0.00    +0.000 HD
ENDBRANCH  23  25
ENDBRANCH  20  23
ENDBRANCH   8  20
TORSDOF 8
ENDMDL
MODEL 9
REMARK VINA RESULT:      -6.5      2.567      5.020
REMARK  Name = 
REMARK  10 active torsions:
REMARK  status: ('A' for Active; 'I' for Inactive)
REMARK    1  A    between atoms: C_1  and  C_2
REMARK    2  A    between atoms: N_4  and  C_5
REMARK    3  A    between atoms: C_6  and  O_7
REMARK    4  A    between atoms: C_10  and  C_12
REMARK    5  A    between atoms: C_12  and  O_14
REMARK    6  A    between atoms: C_16  and  C_17
REMARK    7  A    between atoms: C_17  and  O_18
REMARK    8  A    between atoms: C_17  and  C_19
REMARK    9  A    between atoms: C_19  and  C_20
REMARK   10  A    between atoms: C_19  and  O_21
REMARK                            x       y       z     vdW  Elec       q    Type
REMARK                         _______ _______ _______ _____ _____    ______ ____
ROOT
ATOM      1  C   UNL     1       3.671   5.324  17.859  0.00  0.00    +0.000 C 
ATOM      2  C   UNL     1       3.176   3.906  17.525  0.00  0.00    +0.000 C 
ATOM      3  C   UNL     1       2.393   3.317  18.694  0.00  0.00    +0.000 C 
ATOM      4  F   UNL     1       2.137   2.006  18.416  0.00  0.00    +0.000 F 
ATOM      5  C   UNL     1       3.165   3.425  20.001  0.00  0.00    +0.000 C 
ATOM      6  F   UNL     1       4.240   2.581  19.980  0.00  0.00    +0.000 F 
ATOM      7  O   UNL     1       3.668   4.731  20.262  0.00  0.00    +0.000 OA
ATOM      8  C   UNL     1       4.449   5.315  19.206  0.00  0.00    +0.000 C 
ENDROOT
BRANCH   1  12
ATOM      9  C   UNL     1       1.477   8.441  17.870  0.00  0.00    +0.000 C 
ATOM     10  C   UNL     1       2.743   7.635  17.762  0.00  0.00    +0.000 C 
ATOM     11  O   UNL     1       3.843   8.140  17.574  0.00  0.00    +0.000 OA
ATOM     12  N   UNL     1       2.544   6.277  17.914  0.00  0.00    +0.000 N 
ATOM     13  H   UNL     1       1.590   5.942  17.831  0.00  0.00    +0.000 HD
ENDBRANCH   1  12
BRANCH   2  14
ATOM     14  O   UNL     1       4.293   3.090  17.162  0.00  0.00    +0.000 OA
ATOM     15  H   UNL     1       5.121   3.550  17.397  0.00  0.00    +0.000 HD
ENDBRANCH   2  14
BRANCH   5  16
ATOM     16  C   UNL     1       2.226   3.019  21.148  0.00  0.00    +0.000 C 
ATOM     17  O   UNL     1       2.595   2.503  22.199  0.00  0.00    +0.000 OA
BRANCH  16  18
ATOM     18  O   UNL     1       0.929   3.289  20.882  0.00  0.00    +0.000 OA
ATOM     19  H   UNL     1       0.815   4.192  20.511  0.00  0.00    +0.000 HD
ENDBRANCH  16  18
ENDBRANCH   5  16
BRANCH   8  20
ATOM     20  C   UNL     1       5.888   4.739  19.146  0.00  0.00    +0.000 C 
BRANCH  20  21
ATOM     21  O   UNL     1       6.202   4.195  17.856  0.00  0.00    +0.000 OA
ATOM     22  H   UNL     1       6.602   3.314  17.972  0.00  0.00    +0.000 HD
ENDBRANCH  20  21
BRANCH  20  23
ATOM     23  C   UNL     1       6.958   5.797  19.514  0.00  0.00    +0.000 C 
ATOM     24  C   UNL     1       7.725   6.356  18.320  0.00  0.00    +0.000 C 
BRANCH  23  25
ATOM     25  O   UNL     1       7.915   5.190  20.394  0.00  0.00    +0.000 OA
ATOM     26  H   UNL     1       8.287   4.431  19.900  0.00  0.00    +0.000 HD
ENDBRANCH  23  25
ENDBRANCH  20  23
ENDBRANCH   8  20
TORSDOF 8
ENDMDL
