MODEL 1
REMARK VINA RESULT:      -6.5      0.000      0.000
REMARK  Name = 
REMARK  8 active torsions:
REMARK  status: ('A' for Active; 'I' for Inactive)
REMARK    1  A    between atoms: C_1  and  O_2
REMARK    2  A    between atoms: O_2  and  C_3
REMARK    3  A    between atoms: C_7  and  O_8
REMARK    4  A    between atoms: O_8  and  C_9
REMARK    5  A    between atoms: C_10  and  O_11
REMARK    6  A    between atoms: O_11  and  C_12
REMARK    7  A    between atoms: C_19  and  O_20
REMARK    8  A    between atoms: C_23  and  C_24
REMARK                            x       y       z     vdW  Elec       q    Type
REMARK                         _______ _______ _______ _____ _____    ______ ____
ROOT
ATOM      1  C   UNL     1      -2.873  11.098  18.001  0.00  0.00    +0.000 A 
ATOM      2  C   UNL     1      -1.687  11.216  18.727  0.00  0.00    +0.000 A 
ATOM      3  C   UNL     1      -1.630  12.059  19.876  0.00  0.00    +0.000 A 
ATOM      4  C   UNL     1      -2.761  12.698  20.431  0.00  0.00    +0.000 A 
ATOM      5  C   UNL     1      -3.995  12.450  19.744  0.00  0.00    +0.000 A 
ATOM      6  C   UNL     1      -4.048  11.686  18.526  0.00  0.00    +0.000 A 
ATOM      7  C   UNL     1      -2.578  13.479  21.730  0.00  0.00    +0.000 A 
ATOM      8  C   UNL     1      -3.628  14.025  22.497  0.00  0.00    +0.000 A 
ATOM      9  C   UNL     1      -3.431  14.670  23.732  0.00  0.00    +0.000 A 
ATOM     10  C   UNL     1      -2.157  14.819  24.249  0.00  0.00    +0.000 A 
ATOM     11  C   UNL     1      -1.090  14.328  23.525  0.00  0.00    +0.000 A 
ATOM     12  C   UNL     1      -1.287  13.659  22.292  0.00  0.00    +0.000 A 
ATOM     13  C   UNL     1      -0.042  13.141  21.626  0.00  0.00    +0.000 C 
ATOM     14  C   UNL     1      -0.287  12.060  20.570  0.00  0.00    +0.000 C 
ATOM     15  N   UNL     1       0.025  10.654  20.884  0.00  0.00    +0.000 N 
ATOM     16  C   UNL     1      -0.283   9.933  22.026  0.00  0.00    +0.000 C 
ATOM     17  C   UNL     1      -1.083  10.568  23.127  0.00  0.00    +0.000 C 
ATOM     18  O   UNL     1       0.063   8.754  22.156  0.00  0.00    +0.000 OA
ATOM     19  C   UNL     1       0.261   9.847  19.686  0.00  0.00    +0.000 C 
ATOM     20  C   UNL     1      -0.435  10.401  18.423  0.00  0.00    +0.000 C 
ENDROOT
BRANCH   1  22
ATOM     21  C   UNL     1      -2.801  10.855  15.626  0.00  0.00    +0.000 C 
ATOM     22  O   UNL     1      -2.960  10.260  16.917  0.00  0.00    +0.000 OA
ENDBRANCH   1  22
BRANCH   5  23
ATOM     23  O   UNL     1      -5.109  12.902  20.409  0.00  0.00    +0.000 OA
ATOM     24  C   UNL     1      -6.117  12.043  20.908  0.00  0.00    +0.000 C 
ENDBRANCH   5  23
BRANCH   6  25
ATOM     25  O   UNL     1      -5.301  11.445  18.000  0.00  0.00    +0.000 OA
ATOM     26  C   UNL     1      -5.870  12.424  17.134  0.00  0.00    +0.000 C 
ENDBRANCH   6  25
BRANCH  13  27
ATOM     27  O   UNL     1       0.642  14.258  21.019  0.00  0.00    +0.000 OA
ATOM     28  H   UNL     1      -0.032  14.894  20.732  0.00  0.00    +0.000 HD
ENDBRANCH  13  27
TORSDOF 4
ENDMDL
MODEL 2
REMARK VINA RESULT:      -6.3      2.414      6.633
REMARK  Name = 
REMARK  8 active torsions:
REMARK  status: ('A' for Active; 'I' for Inactive)
REMARK    1  A    between atoms: C_1  and  O_2
REMARK    2  A    between atoms: O_2  and  C_3
REMARK    3  A    between atoms: C_7  and  O_8
REMARK    4  A    between atoms: O_8  and  C_9
REMARK    5  A    between atoms: C_10  and  O_11
REMARK    6  A    between atoms: O_11  and  C_12
REMARK    7  A    between atoms: C_19  and  O_20
REMARK    8  A    between atoms: C_23  and  C_24
REMARK                            x       y       z     vdW  Elec       q    Type
REMARK                         _______ _______ _______ _____ _____    ______ ____
ROOT
ATOM      1  C   UNL     1      -4.122  13.375  22.382  0.00  0.00    +0.000 A 
ATOM      2  C   UNL     1      -5.149  13.170  21.459  0.00  0.00    +0.000 A 
ATOM      3  C   UNL     1      -4.852  12.667  20.157  0.00  0.00    +0.000 A 
ATOM      4  C   UNL     1      -3.572  12.217  19.768  0.00  0.00    +0.000 A 
ATOM      5  C   UNL     1      -2.562  12.312  20.782  0.00  0.00    +0.000 A 
ATOM      6  C   UNL     1      -2.823  12.912  22.063  0.00  0.00    +0.000 A 
ATOM      7  C   UNL     1      -3.421  11.596  18.382  0.00  0.00    +0.000 A 
ATOM      8  C   UNL     1      -2.260  10.948  17.911  0.00  0.00    +0.000 A 
ATOM      9  C   UNL     1      -2.181  10.315  16.657  0.00  0.00    +0.000 A 
ATOM     10  C   UNL     1      -3.266  10.321  15.799  0.00  0.00    +0.000 A 
ATOM     11  C   UNL     1      -4.418  10.966  16.199  0.00  0.00    +0.000 A 
ATOM     12  C   UNL     1      -4.509  11.586  17.469  0.00  0.00    +0.000 A 
ATOM     13  C   UNL     1      -5.833  12.219  17.792  0.00  0.00    +0.000 C 
ATOM     14  C   UNL     1      -6.071  12.474  19.283  0.00  0.00    +0.000 C 
ATOM     15  N   UNL     1      -6.991  11.599  20.032  0.00  0.00    +0.000 N 
ATOM     16  C   UNL     1      -7.074  10.216  20.020  0.00  0.00    +0.000 C 
ATOM     17  C   UNL     1      -6.105   9.409  19.204  0.00  0.00    +0.000 C 
ATOM     18  O   UNL     1      -7.916   9.615  20.694  0.00  0.00    +0.000 OA
ATOM     19  C   UNL     1      -7.531  12.242  21.231  0.00  0.00    +0.000 C 
ATOM     20  C   UNL     1      -6.624  13.360  21.792  0.00  0.00    +0.000 C 
ENDROOT
BRANCH   1  22
ATOM     21  C   UNL     1      -4.307  15.229  23.876  0.00  0.00    +0.000 C 
ATOM     22  O   UNL     1      -4.391  13.819  23.653  0.00  0.00    +0.000 OA
ENDBRANCH   1  22
BRANCH   5  23
ATOM     23  O   UNL     1      -1.384  11.683  20.462  0.00  0.00    +0.000 OA
ATOM     24  C   UNL     1      -0.213  12.377  20.072  0.00  0.00    +0.000 C 
ENDBRANCH   5  23
BRANCH   6  25
ATOM     25  O   UNL     1      -1.799  12.873  22.986  0.00  0.00    +0.000 OA
ATOM     26  C   UNL     1      -0.962  14.020  23.116  0.00  0.00    +0.000 C 
ENDBRANCH   6  25
BRANCH  13  27
ATOM     27  O   UNL     1      -5.924  13.466  17.073  0.00  0.00    +0.000 OA
ATOM     28  H   UNL     1      -5.682  14.178  17.686  0.00  0.00    +0.000 HD
ENDBRANCH  13  27
TORSDOF 4
ENDMDL
MODEL 3
REMARK VINA RESULT:      -6.0      2.381      5.524
REMARK  Name = 
REMARK  8 active torsions:
REMARK  status: ('A' for Active; 'I' for Inactive)
REMARK    1  A    between atoms: C_1  and  O_2
REMARK    2  A    between atoms: O_2  and  C_3
REMARK    3  A    between atoms: C_7  and  O_8
REMARK    4  A    between atoms: O_8  and  C_9
REMARK    5  A    between atoms: C_10  and  O_11
REMARK    6  A    between atoms: O_11  and  C_12
REMARK    7  A    between atoms: C_19  and  O_20
REMARK    8  A    between atoms: C_23  and  C_24
REMARK                            x       y       z     vdW  Elec       q    Type
REMARK                         _______ _______ _______ _____ _____    ______ ____
ROOT
ATOM      1  C   UNL     1      -2.224  11.955  19.096  0.00  0.00    +0.000 A 
ATOM      2  C   UNL     1      -3.570  11.719  18.818  0.00  0.00    +0.000 A 
ATOM      3  C   UNL     1      -4.570  12.054  19.780  0.00  0.00    +0.000 A 
ATOM      4  C   UNL     1      -4.298  12.757  20.974  0.00  0.00    +0.000 A 
ATOM      5  C   UNL     1      -2.922  13.109  21.171  0.00  0.00    +0.000 A 
ATOM      6  C   UNL     1      -1.891  12.688  20.260  0.00  0.00    +0.000 A 
ATOM      7  C   UNL     1      -5.478  13.152  21.859  0.00  0.00    +0.000 A 
ATOM      8  C   UNL     1      -5.395  13.996  22.985  0.00  0.00    +0.000 A 
ATOM      9  C   UNL     1      -6.515  14.405  23.731  0.00  0.00    +0.000 A 
ATOM     10  C   UNL     1      -7.782  13.964  23.393  0.00  0.00    +0.000 A 
ATOM     11  C   UNL     1      -7.916  13.112  22.316  0.00  0.00    +0.000 A 
ATOM     12  C   UNL     1      -6.794  12.716  21.549  0.00  0.00    +0.000 A 
ATOM     13  C   UNL     1      -7.087  11.815  20.381  0.00  0.00    +0.000 C 
ATOM     14  C   UNL     1      -5.981  11.763  19.324  0.00  0.00    +0.000 C 
ATOM     15  N   UNL     1      -6.165  12.474  18.046  0.00  0.00    +0.000 N 
ATOM     16  C   UNL     1      -6.628  13.762  17.829  0.00  0.00    +0.000 C 
ATOM     17  C   UNL     1      -6.967  14.648  18.994  0.00  0.00    +0.000 C 
ATOM     18  O   UNL     1      -6.746  14.221  16.689  0.00  0.00    +0.000 OA
ATOM     19  C   UNL     1      -5.339  11.924  16.970  0.00  0.00    +0.000 C 
ATOM     20  C   UNL     1      -4.071  11.201  17.475  0.00  0.00    +0.000 C 
ENDROOT
BRANCH   1  22
ATOM     21  C   UNL     1      -0.645  10.384  18.233  0.00  0.00    +0.000 C 
ATOM     22  O   UNL     1      -1.250  11.678  18.167  0.00  0.00    +0.000 OA
ENDBRANCH   1  22
BRANCH   5  23
ATOM     23  O   UNL     1      -2.706  13.967  22.222  0.00  0.00    +0.000 OA
ATOM     24  C   UNL     1      -2.096  13.570  23.436  0.00  0.00    +0.000 C 
ENDBRANCH   5  23
BRANCH   6  25
ATOM     25  O   UNL     1      -0.616  13.155  20.507  0.00  0.00    +0.000 OA
ATOM     26  C   UNL     1       0.297  12.299  21.187  0.00  0.00    +0.000 C 
ENDBRANCH   6  25
BRANCH  13  27
ATOM     27  O   UNL     1      -7.330  10.486  20.887  0.00  0.00    +0.000 OA
ATOM     28  H   UNL     1      -7.868  10.016  20.231  0.00  0.00    +0.000 HD
ENDBRANCH  13  27
TORSDOF 4
ENDMDL
MODEL 4
REMARK VINA RESULT:      -6.0      2.317      5.209
REMARK  Name = 
REMARK  8 active torsions:
REMARK  status: ('A' for Active; 'I' for Inactive)
REMARK    1  A    between atoms: C_1  and  O_2
REMARK    2  A    between atoms: O_2  and  C_3
REMARK    3  A    between atoms: C_7  and  O_8
REMARK    4  A    between atoms: O_8  and  C_9
REMARK    5  A    between atoms: C_10  and  O_11
REMARK    6  A    between atoms: O_11  and  C_12
REMARK    7  A    between atoms: C_19  and  O_20
REMARK    8  A    between atoms: C_23  and  C_24
REMARK                            x       y       z     vdW  Elec       q    Type
REMARK                         _______ _______ _______ _____ _____    ______ ____
ROOT
ATOM      1  C   UNL     1      -2.839  11.550  17.753  0.00  0.00    +0.000 A 
ATOM      2  C   UNL     1      -4.186  11.760  18.054  0.00  0.00    +0.000 A 
ATOM      3  C   UNL     1      -4.574  12.146  19.372  0.00  0.00    +0.000 A 
ATOM      4  C   UNL     1      -3.654  12.476  20.390  0.00  0.00    +0.000 A 
ATOM      5  C   UNL     1      -2.273  12.385  20.014  0.00  0.00    +0.000 A 
ATOM      6  C   UNL     1      -1.868  11.898  18.722  0.00  0.00    +0.000 A 
ATOM      7  C   UNL     1      -4.208  12.985  21.719  0.00  0.00    +0.000 A 
ATOM      8  C   UNL     1      -3.428  13.514  22.768  0.00  0.00    +0.000 A 
ATOM      9  C   UNL     1      -3.977  14.049  23.948  0.00  0.00    +0.000 A 
ATOM     10  C   UNL     1      -5.346  14.057  24.143  0.00  0.00    +0.000 A 
ATOM     11  C   UNL     1      -6.154  13.524  23.160  0.00  0.00    +0.000 A 
ATOM     12  C   UNL     1      -5.607  13.005  21.962  0.00  0.00    +0.000 A 
ATOM     13  C   UNL     1      -6.603  12.490  20.960  0.00  0.00    +0.000 C 
ATOM     14  C   UNL     1      -6.062  12.360  19.533  0.00  0.00    +0.000 C 
ATOM     15  N   UNL     1      -6.457  13.349  18.513  0.00  0.00    +0.000 N 
ATOM     16  C   UNL     1      -6.502  14.730  18.617  0.00  0.00    +0.000 C 
ATOM     17  C   UNL     1      -6.058  15.406  19.882  0.00  0.00    +0.000 C 
ATOM     18  O   UNL     1      -6.874  15.435  17.674  0.00  0.00    +0.000 OA
ATOM     19  C   UNL     1      -6.335  12.833  17.149  0.00  0.00    +0.000 C 
ATOM     20  C   UNL     1      -5.296  11.698  17.011  0.00  0.00    +0.000 C 
ENDROOT
BRANCH   1  22
ATOM     21  C   UNL     1      -2.432   9.828  16.150  0.00  0.00    +0.000 C 
ATOM     22  O   UNL     1      -2.441  11.219  16.482  0.00  0.00    +0.000 OA
ENDBRANCH   1  22
BRANCH   5  23
ATOM     23  O   UNL     1      -1.403  12.906  20.939  0.00  0.00    +0.000 OA
ATOM     24  C   UNL     1      -0.583  12.106  21.771  0.00  0.00    +0.000 C 
ENDBRANCH   5  23
BRANCH   6  25
ATOM     25  O   UNL     1      -0.516  11.932  18.444  0.00  0.00    +0.000 OA
ATOM     26  C   UNL     1       0.239  10.736  18.616  0.00  0.00    +0.000 C 
ENDBRANCH   6  25
BRANCH  13  27
ATOM     27  O   UNL     1      -7.074  11.204  21.412  0.00  0.00    +0.000 OA
ATOM     28  H   UNL     1      -7.388  11.310  22.324  0.00  0.00    +0.000 HD
ENDBRANCH  13  27
TORSDOF 4
ENDMDL
MODEL 5
REMARK VINA RESULT:      -5.8      1.684      5.289
REMARK  Name = 
REMARK  8 active torsions:
REMARK  status: ('A' for Active; 'I' for Inactive)
REMARK    1  A    between atoms: C_1  and  O_2
REMARK    2  A    between atoms: O_2  and  C_3
REMARK    3  A    between atoms: C_7  and  O_8
REMARK    4  A    between atoms: O_8  and  C_9
REMARK    5  A    between atoms: C_10  and  O_11
REMARK    6  A    between atoms: O_11  and  C_12
REMARK    7  A    between atoms: C_19  and  O_20
REMARK    8  A    between atoms: C_23  and  C_24
REMARK                            x       y       z     vdW  Elec       q    Type
REMARK                         _______ _______ _______ _____ _____    ______ ____
ROOT
ATOM      1  C   UNL     1      -3.346  14.010  22.490  0.00  0.00    +0.000 A 
ATOM      2  C   UNL     1      -2.145  13.424  22.090  0.00  0.00    +0.000 A 
ATOM      3  C   UNL     1      -2.109  12.572  20.945  0.00  0.00    +0.000 A 
ATOM      4  C   UNL     1      -3.208  12.384  20.079  0.00  0.00    +0.000 A 
ATOM      5  C   UNL     1      -4.394  13.107  20.438  0.00  0.00    +0.000 A 
ATOM      6  C   UNL     1      -4.474  13.886  21.644  0.00  0.00    +0.000 A 
ATOM      7  C   UNL     1      -2.997  11.537  18.827  0.00  0.00    +0.000 A 
ATOM      8  C   UNL     1      -3.935  11.394  17.783  0.00  0.00    +0.000 A 
ATOM      9  C   UNL     1      -3.677  10.671  16.604  0.00  0.00    +0.000 A 
ATOM     10  C   UNL     1      -2.464  10.031  16.425  0.00  0.00    +0.000 A 
ATOM     11  C   UNL     1      -1.521  10.114  17.429  0.00  0.00    +0.000 A 
ATOM     12  C   UNL     1      -1.768  10.860  18.608  0.00  0.00    +0.000 A 
ATOM     13  C   UNL     1      -0.642  10.898  19.603  0.00  0.00    +0.000 C 
ATOM     14  C   UNL     1      -0.733  12.036  20.624  0.00  0.00    +0.000 C 
ATOM     15  N   UNL     1       0.153  13.206  20.487  0.00  0.00    +0.000 N 
ATOM     16  C   UNL     1       0.449  13.941  19.350  0.00  0.00    +0.000 C 
ATOM     17  C   UNL     1      -0.212  13.608  18.043  0.00  0.00    +0.000 C 
ATOM     18  O   UNL     1       1.231  14.896  19.386  0.00  0.00    +0.000 OA
ATOM     19  C   UNL     1       0.352  13.915  21.752  0.00  0.00    +0.000 C 
ATOM     20  C   UNL     1      -0.806  13.719  22.756  0.00  0.00    +0.000 C 
ENDROOT
BRANCH   1  22
ATOM     21  C   UNL     1      -3.531  14.270  24.857  0.00  0.00    +0.000 C 
ATOM     22  O   UNL     1      -3.394  14.864  23.564  0.00  0.00    +0.000 OA
ENDBRANCH   1  22
BRANCH   5  23
ATOM     23  O   UNL     1      -5.379  13.081  19.481  0.00  0.00    +0.000 OA
ATOM     24  C   UNL     1      -6.575  12.336  19.618  0.00  0.00    +0.000 C 
ENDBRANCH   5  23
BRANCH   6  25
ATOM     25  O   UNL     1      -5.636  14.603  21.843  0.00  0.00    +0.000 OA
ATOM     26  C   UNL     1      -6.604  14.085  22.752  0.00  0.00    +0.000 C 
ENDBRANCH   6  25
BRANCH  13  27
ATOM     27  O   UNL     1      -0.611   9.634  20.297  0.00  0.00    +0.000 OA
ATOM     28  H   UNL     1      -0.395   8.947  19.647  0.00  0.00    +0.000 HD
ENDBRANCH  13  27
TORSDOF 4
ENDMDL
MODEL 6
REMARK VINA RESULT:      -5.8      1.412      2.258
REMARK  Name = 
REMARK  8 active torsions:
REMARK  status: ('A' for Active; 'I' for Inactive)
REMARK    1  A    between atoms: C_1  and  O_2
REMARK    2  A    between atoms: O_2  and  C_3
REMARK    3  A    between atoms: C_7  and  O_8
REMARK    4  A    between atoms: O_8  and  C_9
REMARK    5  A    between atoms: C_10  and  O_11
REMARK    6  A    between atoms: O_11  and  C_12
REMARK    7  A    between atoms: C_19  and  O_20
REMARK    8  A    between atoms: C_23  and  C_24
REMARK                            x       y       z     vdW  Elec       q    Type
REMARK                         _______ _______ _______ _____ _____    ______ ____
ROOT
ATOM      1  C   UNL     1      -5.023  12.114  19.335  0.00  0.00    +0.000 A 
ATOM      2  C   UNL     1      -3.647  12.304  19.466  0.00  0.00    +0.000 A 
ATOM      3  C   UNL     1      -3.123  12.993  20.600  0.00  0.00    +0.000 A 
ATOM      4  C   UNL     1      -3.909  13.389  21.704  0.00  0.00    +0.000 A 
ATOM      5  C   UNL     1      -5.302  13.060  21.606  0.00  0.00    +0.000 A 
ATOM      6  C   UNL     1      -5.860  12.458  20.425  0.00  0.00    +0.000 A 
ATOM      7  C   UNL     1      -3.200  14.016  22.902  0.00  0.00    +0.000 A 
ATOM      8  C   UNL     1      -3.811  14.305  24.139  0.00  0.00    +0.000 A 
ATOM      9  C   UNL     1      -3.110  14.808  25.250  0.00  0.00    +0.000 A 
ATOM     10  C   UNL     1      -1.754  15.068  25.164  0.00  0.00    +0.000 A 
ATOM     11  C   UNL     1      -1.112  14.830  23.966  0.00  0.00    +0.000 A 
ATOM     12  C   UNL     1      -1.810  14.303  22.853  0.00  0.00    +0.000 A 
ATOM     13  C   UNL     1      -0.982  14.056  21.622  0.00  0.00    +0.000 C 
ATOM     14  C   UNL     1      -1.615  13.095  20.611  0.00  0.00    +0.000 C 
ATOM     15  N   UNL     1      -1.100  11.718  20.497  0.00  0.00    +0.000 N 
ATOM     16  C   UNL     1      -0.795  10.821  21.508  0.00  0.00    +0.000 C 
ATOM     17  C   UNL     1      -1.038  11.190  22.943  0.00  0.00    +0.000 C 
ATOM     18  O   UNL     1      -0.351   9.696  21.258  0.00  0.00    +0.000 OA
ATOM     19  C   UNL     1      -1.390  11.113  19.197  0.00  0.00    +0.000 C 
ATOM     20  C   UNL     1      -2.626  11.719  18.497  0.00  0.00    +0.000 C 
ENDROOT
BRANCH   1  22
ATOM     21  C   UNL     1      -6.059  12.189  17.185  0.00  0.00    +0.000 C 
ATOM     22  O   UNL     1      -5.545  11.418  18.273  0.00  0.00    +0.000 OA
ENDBRANCH   1  22
BRANCH   5  23
ATOM     23  O   UNL     1      -6.010  13.260  22.765  0.00  0.00    +0.000 OA
ATOM     24  C   UNL     1      -7.035  14.228  22.892  0.00  0.00    +0.000 C 
ENDBRANCH   5  23
BRANCH   6  25
ATOM     25  O   UNL     1      -7.195  12.112  20.477  0.00  0.00    +0.000 OA
ATOM     26  C   UNL     1      -7.532  10.769  20.816  0.00  0.00    +0.000 C 
ENDBRANCH   6  25
BRANCH  13  27
ATOM     27  O   UNL     1      -0.733  15.326  20.984  0.00  0.00    +0.000 OA
ATOM     28  H   UNL     1      -1.397  15.954  21.311  0.00  0.00    +0.000 HD
ENDBRANCH  13  27
TORSDOF 4
ENDMDL
MODEL 7
REMARK VINA RESULT:      -5.7      1.609      4.916
REMARK  Name = 
REMARK  8 active torsions:
REMARK  status: ('A' for Active; 'I' for Inactive)
REMARK    1  A    between atoms: C_1  and  O_2
REMARK    2  A    between atoms: O_2  and  C_3
REMARK    3  A    between atoms: C_7  and  O_8
REMARK    4  A    between atoms: O_8  and  C_9
REMARK    5  A    between atoms: C_10  and  O_11
REMARK    6  A    between atoms: O_11  and  C_12
REMARK    7  A    between atoms: C_19  and  O_20
REMARK    8  A    between atoms: C_23  and  C_24
REMARK                            x       y       z     vdW  Elec       q    Type
REMARK                         _______ _______ _______ _____ _____    ______ ____
ROOT
ATOM      1  C   UNL     1      -4.952  13.619  21.666  0.00  0.00    +0.000 A 
ATOM      2  C   UNL     1      -3.850  13.324  22.469  0.00  0.00    +0.000 A 
ATOM      3  C   UNL     1      -2.808  12.482  21.976  0.00  0.00    +0.000 A 
ATOM      4  C   UNL     1      -2.742  12.024  20.642  0.00  0.00    +0.000 A 
ATOM      5  C   UNL     1      -3.819  12.455  19.799  0.00  0.00    +0.000 A 
ATOM      6  C   UNL     1      -4.927  13.217  20.309  0.00  0.00    +0.000 A 
ATOM      7  C   UNL     1      -1.512  11.225  20.218  0.00  0.00    +0.000 A 
ATOM      8  C   UNL     1      -1.215  10.846  18.893  0.00  0.00    +0.000 A 
ATOM      9  C   UNL     1      -0.031  10.180  18.525  0.00  0.00    +0.000 A 
ATOM     10  C   UNL     1       0.908   9.840  19.481  0.00  0.00    +0.000 A 
ATOM     11  C   UNL     1       0.653  10.162  20.798  0.00  0.00    +0.000 A 
ATOM     12  C   UNL     1      -0.527  10.852  21.170  0.00  0.00    +0.000 A 
ATOM     13  C   UNL     1      -0.660  11.174  22.632  0.00  0.00    +0.000 C 
ATOM     14  C   UNL     1      -1.672  12.278  22.951  0.00  0.00    +0.000 C 
ATOM     15  N   UNL     1      -1.188  13.621  23.320  0.00  0.00    +0.000 N 
ATOM     16  C   UNL     1      -0.199  14.382  22.717  0.00  0.00    +0.000 C 
ATOM     17  C   UNL     1       0.494  13.877  21.484  0.00  0.00    +0.000 C 
ATOM     18  O   UNL     1       0.113  15.495  23.152  0.00  0.00    +0.000 OA
ATOM     19  C   UNL     1      -2.169  14.382  24.096  0.00  0.00    +0.000 C 
ATOM     20  C   UNL     1      -3.628  13.939  23.846  0.00  0.00    +0.000 C 
ENDROOT
BRANCH   1  22
ATOM     21  C   UNL     1      -7.054  13.854  22.775  0.00  0.00    +0.000 C 
ATOM     22  O   UNL     1      -5.944  14.460  22.107  0.00  0.00    +0.000 OA
ENDBRANCH   1  22
BRANCH   5  23
ATOM     23  O   UNL     1      -3.634  12.179  18.466  0.00  0.00    +0.000 OA
ATOM     24  C   UNL     1      -4.360  11.181  17.772  0.00  0.00    +0.000 C 
ENDBRANCH   5  23
BRANCH   6  25
ATOM     25  O   UNL     1      -5.862  13.645  19.389  0.00  0.00    +0.000 OA
ATOM     26  C   UNL     1      -7.076  12.908  19.266  0.00  0.00    +0.000 C 
ENDBRANCH   6  25
BRANCH  13  27
ATOM     27  O   UNL     1      -1.035   9.966  23.327  0.00  0.00    +0.000 OA
ATOM     28  H   UNL     1      -1.737   9.537  22.813  0.00  0.00    +0.000 HD
ENDBRANCH  13  27
TORSDOF 4
ENDMDL
MODEL 8
REMARK VINA RESULT:      -5.7      1.945      4.994
REMARK  Name = 
REMARK  8 active torsions:
REMARK  status: ('A' for Active; 'I' for Inactive)
REMARK    1  A    between atoms: C_1  and  O_2
REMARK    2  A    between atoms: O_2  and  C_3
REMARK    3  A    between atoms: C_7  and  O_8
REMARK    4  A    between atoms: O_8  and  C_9
REMARK    5  A    between atoms: C_10  and  O_11
REMARK    6  A    between atoms: O_11  and  C_12
REMARK    7  A    between atoms: C_19  and  O_20
REMARK    8  A    between atoms: C_23  and  C_24
REMARK                            x       y       z     vdW  Elec       q    Type
REMARK                         _______ _______ _______ _____ _____    ______ ____
ROOT
ATOM      1  C   UNL     1      -4.999  13.428  20.328  0.00  0.00    +0.000 A 
ATOM      2  C   UNL     1      -3.739  13.732  20.844  0.00  0.00    +0.000 A 
ATOM      3  C   UNL     1      -2.614  12.920  20.511  0.00  0.00    +0.000 A 
ATOM      4  C   UNL     1      -2.658  11.880  19.556  0.00  0.00    +0.000 A 
ATOM      5  C   UNL     1      -3.936  11.678  18.938  0.00  0.00    +0.000 A 
ATOM      6  C   UNL     1      -5.101  12.420  19.339  0.00  0.00    +0.000 A 
ATOM      7  C   UNL     1      -1.352  11.167  19.212  0.00  0.00    +0.000 A 
ATOM      8  C   UNL     1      -1.195  10.234  18.167  0.00  0.00    +0.000 A 
ATOM      9  C   UNL     1       0.041   9.655  17.825  0.00  0.00    +0.000 A 
ATOM     10  C   UNL     1       1.184   9.971  18.537  0.00  0.00    +0.000 A 
ATOM     11  C   UNL     1       1.080  10.858  19.589  0.00  0.00    +0.000 A 
ATOM     12  C   UNL     1      -0.158  11.459  19.922  0.00  0.00    +0.000 A 
ATOM     13  C   UNL     1      -0.121  12.435  21.066  0.00  0.00    +0.000 C 
ATOM     14  C   UNL     1      -1.315  13.391  21.125  0.00  0.00    +0.000 C 
ATOM     15  N   UNL     1      -1.141  14.796  20.714  0.00  0.00    +0.000 N 
ATOM     16  C   UNL     1      -0.501  15.298  19.592  0.00  0.00    +0.000 C 
ATOM     17  C   UNL     1       0.081  14.361  18.573  0.00  0.00    +0.000 C 
ATOM     18  O   UNL     1      -0.419  16.513  19.387  0.00  0.00    +0.000 OA
ATOM     19  C   UNL     1      -2.141  15.686  21.307  0.00  0.00    +0.000 C 
ATOM     20  C   UNL     1      -3.455  14.969  21.688  0.00  0.00    +0.000 C 
ENDROOT
BRANCH   1  22
ATOM     21  C   UNL     1      -6.927  13.811  21.685  0.00  0.00    +0.000 C 
ATOM     22  O   UNL     1      -6.087  14.221  20.603  0.00  0.00    +0.000 OA
ENDBRANCH   1  22
BRANCH   5  23
ATOM     23  O   UNL     1      -3.914  10.813  17.872  0.00  0.00    +0.000 OA
ATOM     24  C   UNL     1      -4.075  11.230  16.529  0.00  0.00    +0.000 C 
ENDBRANCH   5  23
BRANCH   6  25
ATOM     25  O   UNL     1      -6.257  12.197  18.618  0.00  0.00    +0.000 OA
ATOM     26  C   UNL     1      -7.153  11.187  19.073  0.00  0.00    +0.000 C 
ENDBRANCH   6  25
BRANCH  13  27
ATOM     27  O   UNL     1      -0.047  11.684  22.296  0.00  0.00    +0.000 OA
ATOM     28  H   UNL     1      -0.508  12.195  22.980  0.00  0.00    +0.000 HD
ENDBRANCH  13  27
TORSDOF 4
ENDMDL
MODEL 9
REMARK VINA RESULT:      -5.6      2.442      5.158
REMARK  Name = 
REMARK  8 active torsions:
REMARK  status: ('A' for Active; 'I' for Inactive)
REMARK    1  A    between atoms: C_1  and  O_2
REMARK    2  A    between atoms: O_2  and  C_3
REMARK    3  A    between atoms: C_7  and  O_8
REMARK    4  A    between atoms: O_8  and  C_9
REMARK    5  A    between atoms: C_10  and  O_11
REMARK    6  A    between atoms: O_11  and  C_12
REMARK    7  A    between atoms: C_19  and  O_20
REMARK    8  A    between atoms: C_23  and  C_24
REMARK                            x       y       z     vdW  Elec       q    Type
REMARK                         _______ _______ _______ _____ _____    ______ ____
ROOT
ATOM      1  C   UNL     1      -3.486  11.046  18.061  0.00  0.00    +0.000 A 
ATOM      2  C   UNL     1      -4.725  11.441  18.568  0.00  0.00    +0.000 A 
ATOM      3  C   UNL     1      -4.795  12.212  19.767  0.00  0.00    +0.000 A 
ATOM      4  C   UNL     1      -3.662  12.739  20.423  0.00  0.00    +0.000 A 
ATOM      5  C   UNL     1      -2.405  12.433  19.803  0.00  0.00    +0.000 A 
ATOM      6  C   UNL     1      -2.313  11.572  18.654  0.00  0.00    +0.000 A 
ATOM      7  C   UNL     1      -3.888  13.644  21.631  0.00  0.00    +0.000 A 
ATOM      8  C   UNL     1      -2.881  14.381  22.287  0.00  0.00    +0.000 A 
ATOM      9  C   UNL     1      -3.137  15.269  23.348  0.00  0.00    +0.000 A 
ATOM     10  C   UNL     1      -4.425  15.443  23.821  0.00  0.00    +0.000 A 
ATOM     11  C   UNL     1      -5.445  14.724  23.234  0.00  0.00    +0.000 A 
ATOM     12  C   UNL     1      -5.194  13.846  22.151  0.00  0.00    +0.000 A 
ATOM     13  C   UNL     1      -6.401  13.153  21.581  0.00  0.00    +0.000 C 
ATOM     14  C   UNL     1      -6.203  12.584  20.173  0.00  0.00    +0.000 C 
ATOM     15  N   UNL     1      -6.805  13.275  19.019  0.00  0.00    +0.000 N 
ATOM     16  C   UNL     1      -6.803  14.629  18.721  0.00  0.00    +0.000 C 
ATOM     17  C   UNL     1      -6.070  15.594  19.607  0.00  0.00    +0.000 C 
ATOM     18  O   UNL     1      -7.370  15.068  17.716  0.00  0.00    +0.000 OA
ATOM     19  C   UNL     1      -7.006  12.389  17.872  0.00  0.00    +0.000 C 
ATOM     20  C   UNL     1      -6.045  11.180  17.852  0.00  0.00    +0.000 C 
ENDROOT
BRANCH   1  22
ATOM     21  C   UNL     1      -3.249  11.100  15.685  0.00  0.00    +0.000 C 
ATOM     22  O   UNL     1      -3.394  10.339  16.887  0.00  0.00    +0.000 OA
ENDBRANCH   1  22
BRANCH   5  23
ATOM     23  O   UNL     1      -1.338  13.120  20.327  0.00  0.00    +0.000 OA
ATOM     24  C   UNL     1      -0.671  14.162  19.638  0.00  0.00    +0.000 C 
ENDBRANCH   5  23
BRANCH   6  25
ATOM     25  O   UNL     1      -1.061  11.415  18.095  0.00  0.00    +0.000 OA
ATOM     26  C   UNL     1      -0.264  10.314  18.522  0.00  0.00    +0.000 C 
ENDBRANCH   6  25
BRANCH  13  27
ATOM     27  O   UNL     1      -6.776  12.089  22.480  0.00  0.00    +0.000 OA
ATOM     28  H   UNL     1      -7.516  12.408  23.020  0.00  0.00    +0.000 HD
ENDBRANCH  13  27
TORSDOF 4
ENDMDL
