MODEL 1
REMARK VINA RESULT:      -9.4      0.000      0.000
REMARK  Name = 
REMARK  2 active torsions:
REMARK  status: ('A' for Active; 'I' for Inactive)
REMARK    1  A    between atoms: C_1  and  C_2
REMARK    2  A    between atoms: C_3  and  C_4
REMARK                            x       y       z     vdW  Elec       q    Type
REMARK                         _______ _______ _______ _____ _____    ______ ____
ROOT
ATOM      1  C   UNL     1       1.083   8.514  20.906  0.00  0.00    +0.000 C 
ATOM      2  C   UNL     1       1.671   8.660  19.552  0.00  0.00    +0.000 A 
ATOM      3  C   UNL     1       1.687   9.715  18.637  0.00  0.00    +0.000 A 
ATOM      4  N   UNL     1       2.327   9.290  17.496  0.00  0.00    +0.000 NA
ATOM      5  N   UNL     1       2.655   8.014  17.642  0.00  0.00    +0.000 NA
ATOM      6  N   UNL     1       2.236   7.598  18.866  0.00  0.00    +0.000 N 
ATOM      7  C   UNL     1       2.331   6.239  19.245  0.00  0.00    +0.000 A 
ATOM      8  N   UNL     1       2.231   5.830  20.474  0.00  0.00    +0.000 NA
ATOM      9  N   UNL     1       2.136   4.482  20.577  0.00  0.00    +0.000 N 
ATOM     10  C   UNL     1       2.197   3.743  21.725  0.00  0.00    +0.000 A 
ATOM     11  C   UNL     1       1.875   2.438  21.407  0.00  0.00    +0.000 A 
ATOM     12  C   UNL     1       1.619   2.392  20.013  0.00  0.00    +0.000 A 
ATOM     13  C   UNL     1       1.863   3.657  19.526  0.00  0.00    +0.000 A 
ATOM     14  C   UNL     1       1.836   4.218  18.214  0.00  0.00    +0.000 A 
ATOM     15  O   UNL     1       1.250   3.726  17.257  0.00  0.00    +0.000 OA
ATOM     16  N   UNL     1       2.485   5.426  18.144  0.00  0.00    +0.000 N 
ATOM     17  H   UNL     1       3.475   5.205  18.076  0.00  0.00    +0.000 HD
ENDROOT
BRANCH   3  18
ATOM     18  C   UNL     1       1.064  11.031  18.790  0.00  0.00    +0.000 C 
ATOM     19  O   UNL     1       1.738  12.057  18.749  0.00  0.00    +0.000 OA
ATOM     20  N   UNL     1      -0.293  11.101  19.020  0.00  0.00    +0.000 N 
ATOM     21  C   UNL     1      -1.119  12.312  19.047  0.00  0.00    +0.000 C 
ATOM     22  C   UNL     1      -2.133  11.482  18.324  0.00  0.00    +0.000 C 
ATOM     23  C   UNL     1      -1.411  10.213  18.727  0.00  0.00    +0.000 C 
ATOM     24  C   UNL     1      -3.609  11.616  18.592  0.00  0.00    +0.000 C 
ATOM     25  C   UNL     1      -3.809  11.229  17.095  0.00  0.00    +0.000 C 
ATOM     26  F   UNL     1      -4.787  11.887  16.437  0.00  0.00    +0.000 F 
ATOM     27  F   UNL     1      -3.995   9.907  16.867  0.00  0.00    +0.000 F 
ATOM     28  C   UNL     1      -2.360  11.738  16.849  0.00  0.00    +0.000 C 
ENDBRANCH   3  18
TORSDOF 1
ENDMDL
MODEL 2
REMARK VINA RESULT:      -8.6      3.442      4.175
REMARK  Name = 
REMARK  2 active torsions:
REMARK  status: ('A' for Active; 'I' for Inactive)
REMARK    1  A    between atoms: C_1  and  C_2
REMARK    2  A    between atoms: C_3  and  C_4
REMARK                            x       y       z     vdW  Elec       q    Type
REMARK                         _______ _______ _______ _____ _____    ______ ____
ROOT
ATOM      1  C   UNL     1       0.889   8.577  21.045  0.00  0.00    +0.000 C 
ATOM      2  C   UNL     1       1.436   8.801  19.685  0.00  0.00    +0.000 A 
ATOM      3  C   UNL     1       1.383   9.891  18.812  0.00  0.00    +0.000 A 
ATOM      4  N   UNL     1       2.012   9.539  17.641  0.00  0.00    +0.000 NA
ATOM      5  N   UNL     1       2.400   8.275  17.729  0.00  0.00    +0.000 NA
ATOM      6  N   UNL     1       2.031   7.794  18.944  0.00  0.00    +0.000 N 
ATOM      7  C   UNL     1       2.195   6.427  19.266  0.00  0.00    +0.000 A 
ATOM      8  N   UNL     1       2.143   5.966  20.480  0.00  0.00    +0.000 NA
ATOM      9  N   UNL     1       2.111   4.612  20.530  0.00  0.00    +0.000 N 
ATOM     10  C   UNL     1       2.232   3.832  21.646  0.00  0.00    +0.000 A 
ATOM     11  C   UNL     1       1.961   2.527  21.284  0.00  0.00    +0.000 A 
ATOM     12  C   UNL     1       1.673   2.525  19.896  0.00  0.00    +0.000 A 
ATOM     13  C   UNL     1       1.848   3.817  19.454  0.00  0.00    +0.000 A 
ATOM     14  C   UNL     1       1.764   4.427  18.167  0.00  0.00    +0.000 A 
ATOM     15  O   UNL     1       1.178   3.946  17.204  0.00  0.00    +0.000 OA
ATOM     16  N   UNL     1       2.358   5.665  18.130  0.00  0.00    +0.000 N 
ATOM     17  H   UNL     1       3.354   5.492  18.031  0.00  0.00    +0.000 HD
ENDROOT
BRANCH   3  18
ATOM     18  C   UNL     1       0.706  11.170  19.032  0.00  0.00    +0.000 C 
ATOM     19  O   UNL     1      -0.360  11.224  19.640  0.00  0.00    +0.000 OA
ATOM     20  N   UNL     1       1.266  12.317  18.511  0.00  0.00    +0.000 N 
ATOM     21  C   UNL     1       0.830  13.696  18.750  0.00  0.00    +0.000 C 
ATOM     22  C   UNL     1       2.291  14.012  18.807  0.00  0.00    +0.000 C 
ATOM     23  C   UNL     1       2.624  12.695  18.139  0.00  0.00    +0.000 C 
ATOM     24  C   UNL     1       2.851  15.293  18.248  0.00  0.00    +0.000 C 
ATOM     25  C   UNL     1       3.929  15.190  19.370  0.00  0.00    +0.000 C 
ATOM     26  F   UNL     1       4.284  16.351  19.961  0.00  0.00    +0.000 F 
ATOM     27  F   UNL     1       5.072  14.561  19.009  0.00  0.00    +0.000 F 
ATOM     28  C   UNL     1       2.916  14.308  20.155  0.00  0.00    +0.000 C 
ENDBRANCH   3  18
TORSDOF 1
ENDMDL
MODEL 3
REMARK VINA RESULT:      -8.5      3.678      7.754
REMARK  Name = 
REMARK  2 active torsions:
REMARK  status: ('A' for Active; 'I' for Inactive)
REMARK    1  A    between atoms: C_1  and  C_2
REMARK    2  A    between atoms: C_3  and  C_4
REMARK                            x       y       z     vdW  Elec       q    Type
REMARK                         _______ _______ _______ _____ _____    ______ ____
ROOT
ATOM      1  C   UNL     1       1.809   7.530  20.468  0.00  0.00    +0.000 C 
ATOM      2  C   UNL     1       2.003   8.161  19.139  0.00  0.00    +0.000 A 
ATOM      3  C   UNL     1       2.790   7.821  18.037  0.00  0.00    +0.000 A 
ATOM      4  N   UNL     1       2.637   8.794  17.078  0.00  0.00    +0.000 NA
ATOM      5  N   UNL     1       1.841   9.740  17.554  0.00  0.00    +0.000 NA
ATOM      6  N   UNL     1       1.471   9.398  18.816  0.00  0.00    +0.000 N 
ATOM      7  C   UNL     1       0.728  10.289  19.624  0.00  0.00    +0.000 A 
ATOM      8  N   UNL     1       0.100   9.924  20.701  0.00  0.00    +0.000 NA
ATOM      9  N   UNL     1      -0.359  10.973  21.426  0.00  0.00    +0.000 N 
ATOM     10  C   UNL     1      -1.200  10.918  22.502  0.00  0.00    +0.000 A 
ATOM     11  C   UNL     1      -1.268  12.182  23.054  0.00  0.00    +0.000 A 
ATOM     12  C   UNL     1      -0.441  13.029  22.273  0.00  0.00    +0.000 A 
ATOM     13  C   UNL     1       0.043  12.262  21.238  0.00  0.00    +0.000 A 
ATOM     14  C   UNL     1       0.867  12.556  20.110  0.00  0.00    +0.000 A 
ATOM     15  O   UNL     1       1.601  13.533  20.018  0.00  0.00    +0.000 OA
ATOM     16  N   UNL     1       0.810  11.578  19.147  0.00  0.00    +0.000 N 
ATOM     17  H   UNL     1      -0.043  11.755  18.623  0.00  0.00    +0.000 HD
ENDROOT
BRANCH   3  18
ATOM     18  C   UNL     1       3.704   6.683  17.918  0.00  0.00    +0.000 C 
ATOM     19  O   UNL     1       4.915   6.828  18.064  0.00  0.00    +0.000 OA
ATOM     20  N   UNL     1       3.188   5.446  17.599  0.00  0.00    +0.000 N 
ATOM     21  C   UNL     1       3.907   4.168  17.586  0.00  0.00    +0.000 C 
ATOM     22  C   UNL     1       2.659   3.605  18.188  0.00  0.00    +0.000 C 
ATOM     23  C   UNL     1       1.876   4.830  17.762  0.00  0.00    +0.000 C 
ATOM     24  C   UNL     1       2.149   2.234  17.827  0.00  0.00    +0.000 C 
ATOM     25  C   UNL     1       1.591   2.174  19.282  0.00  0.00    +0.000 C 
ATOM     26  F   UNL     1       1.694   0.983  19.909  0.00  0.00    +0.000 F 
ATOM     27  F   UNL     1       0.310   2.587  19.420  0.00  0.00    +0.000 F 
ATOM     28  C   UNL     1       2.665   3.235  19.656  0.00  0.00    +0.000 C 
ENDBRANCH   3  18
TORSDOF 1
ENDMDL
MODEL 4
REMARK VINA RESULT:      -8.4      4.288      8.474
REMARK  Name = 
REMARK  2 active torsions:
REMARK  status: ('A' for Active; 'I' for Inactive)
REMARK    1  A    between atoms: C_1  and  C_2
REMARK    2  A    between atoms: C_3  and  C_4
REMARK                            x       y       z     vdW  Elec       q    Type
REMARK                         _______ _______ _______ _____ _____    ______ ____
ROOT
ATOM      1  C   UNL     1       1.470   8.145  21.065  0.00  0.00    +0.000 C 
ATOM      2  C   UNL     1       1.752   8.265  19.614  0.00  0.00    +0.000 A 
ATOM      3  C   UNL     1       2.367   7.409  18.697  0.00  0.00    +0.000 A 
ATOM      4  N   UNL     1       2.423   8.046  17.480  0.00  0.00    +0.000 NA
ATOM      5  N   UNL     1       1.926   9.267  17.615  0.00  0.00    +0.000 NA
ATOM      6  N   UNL     1       1.545   9.437  18.908  0.00  0.00    +0.000 N 
ATOM      7  C   UNL     1       1.101  10.695  19.376  0.00  0.00    +0.000 A 
ATOM      8  N   UNL     1       0.456  10.856  20.492  0.00  0.00    +0.000 NA
ATOM      9  N   UNL     1       0.323  12.158  20.843  0.00  0.00    +0.000 N 
ATOM     10  C   UNL     1      -0.448  12.659  21.855  0.00  0.00    +0.000 A 
ATOM     11  C   UNL     1      -0.156  14.002  21.987  0.00  0.00    +0.000 A 
ATOM     12  C   UNL     1       0.822  14.321  21.011  0.00  0.00    +0.000 A 
ATOM     13  C   UNL     1       1.036  13.175  20.279  0.00  0.00    +0.000 A 
ATOM     14  C   UNL     1       1.849  12.882  19.143  0.00  0.00    +0.000 A 
ATOM     15  O   UNL     1       2.806  13.554  18.779  0.00  0.00    +0.000 OA
ATOM     16  N   UNL     1       1.491  11.707  18.527  0.00  0.00    +0.000 N 
ATOM     17  H   UNL     1       0.688  11.933  17.948  0.00  0.00    +0.000 HD
ENDROOT
BRANCH   3  18
ATOM     18  C   UNL     1       2.947   6.091  18.964  0.00  0.00    +0.000 C 
ATOM     19  O   UNL     1       2.329   5.250  19.612  0.00  0.00    +0.000 OA
ATOM     20  N   UNL     1       4.219   5.819  18.509  0.00  0.00    +0.000 N 
ATOM     21  C   UNL     1       4.907   4.525  18.540  0.00  0.00    +0.000 C 
ATOM     22  C   UNL     1       5.405   4.902  17.180  0.00  0.00    +0.000 C 
ATOM     23  C   UNL     1       5.034   6.350  17.423  0.00  0.00    +0.000 C 
ATOM     24  C   UNL     1       6.796   4.557  16.719  0.00  0.00    +0.000 C 
ATOM     25  C   UNL     1       6.185   4.464  15.287  0.00  0.00    +0.000 C 
ATOM     26  F   UNL     1       6.653   3.468  14.505  0.00  0.00    +0.000 F 
ATOM     27  F   UNL     1       6.253   5.605  14.561  0.00  0.00    +0.000 F 
ATOM     28  C   UNL     1       4.813   4.205  15.973  0.00  0.00    +0.000 C 
ENDBRANCH   3  18
TORSDOF 1
ENDMDL
MODEL 5
REMARK VINA RESULT:      -8.3      2.621      3.498
REMARK  Name = 
REMARK  2 active torsions:
REMARK  status: ('A' for Active; 'I' for Inactive)
REMARK    1  A    between atoms: C_1  and  C_2
REMARK    2  A    between atoms: C_3  and  C_4
REMARK                            x       y       z     vdW  Elec       q    Type
REMARK                         _______ _______ _______ _____ _____    ______ ____
ROOT
ATOM      1  C   UNL     1       2.400   8.978  17.425  0.00  0.00    +0.000 C 
ATOM      2  C   UNL     1       2.071   8.335  18.720  0.00  0.00    +0.000 A 
ATOM      3  C   UNL     1       1.337   8.763  19.829  0.00  0.00    +0.000 A 
ATOM      4  N   UNL     1       1.397   7.784  20.793  0.00  0.00    +0.000 NA
ATOM      5  N   UNL     1       2.172   6.803  20.355  0.00  0.00    +0.000 NA
ATOM      6  N   UNL     1       2.623   7.128  19.115  0.00  0.00    +0.000 N 
ATOM      7  C   UNL     1       3.582   6.326  18.455  0.00  0.00    +0.000 A 
ATOM      8  N   UNL     1       3.830   6.408  17.183  0.00  0.00    +0.000 NA
ATOM      9  N   UNL     1       4.927   5.705  16.812  0.00  0.00    +0.000 N 
ATOM     10  C   UNL     1       5.342   5.450  15.534  0.00  0.00    +0.000 A 
ATOM     11  C   UNL     1       6.592   4.866  15.602  0.00  0.00    +0.000 A 
ATOM     12  C   UNL     1       6.936   4.760  16.974  0.00  0.00    +0.000 A 
ATOM     13  C   UNL     1       5.853   5.221  17.688  0.00  0.00    +0.000 A 
ATOM     14  C   UNL     1       5.574   5.312  19.085  0.00  0.00    +0.000 A 
ATOM     15  O   UNL     1       6.423   5.287  19.968  0.00  0.00    +0.000 OA
ATOM     16  N   UNL     1       4.239   5.505  19.345  0.00  0.00    +0.000 N 
ATOM     17  H   UNL     1       3.808   4.588  19.274  0.00  0.00    +0.000 HD
ENDROOT
BRANCH   3  18
ATOM     18  C   UNL     1       0.680  10.059  20.010  0.00  0.00    +0.000 C 
ATOM     19  O   UNL     1       1.297  11.023  20.457  0.00  0.00    +0.000 OA
ATOM     20  N   UNL     1      -0.659  10.174  19.706  0.00  0.00    +0.000 N 
ATOM     21  C   UNL     1      -1.452  11.407  19.672  0.00  0.00    +0.000 C 
ATOM     22  C   UNL     1      -2.084  10.815  18.452  0.00  0.00    +0.000 C 
ATOM     23  C   UNL     1      -1.556   9.444  18.817  0.00  0.00    +0.000 C 
ATOM     24  C   UNL     1      -3.548  10.992  18.149  0.00  0.00    +0.000 C 
ATOM     25  C   UNL     1      -3.137  10.937  16.646  0.00  0.00    +0.000 C 
ATOM     26  F   UNL     1      -3.789  11.783  15.820  0.00  0.00    +0.000 F 
ATOM     27  F   UNL     1      -3.194   9.707  16.083  0.00  0.00    +0.000 F 
ATOM     28  C   UNL     1      -1.717  11.385  17.098  0.00  0.00    +0.000 C 
ENDBRANCH   3  18
TORSDOF 1
ENDMDL
MODEL 6
REMARK VINA RESULT:      -8.0      4.171      8.496
REMARK  Name = 
REMARK  2 active torsions:
REMARK  status: ('A' for Active; 'I' for Inactive)
REMARK    1  A    between atoms: C_1  and  C_2
REMARK    2  A    between atoms: C_3  and  C_4
REMARK                            x       y       z     vdW  Elec       q    Type
REMARK                         _______ _______ _______ _____ _____    ______ ____
ROOT
ATOM      1  C   UNL     1       2.508   8.405  17.595  0.00  0.00    +0.000 C 
ATOM      2  C   UNL     1       2.148   7.861  18.927  0.00  0.00    +0.000 A 
ATOM      3  C   UNL     1       2.106   6.561  19.437  0.00  0.00    +0.000 A 
ATOM      4  N   UNL     1       1.640   6.618  20.730  0.00  0.00    +0.000 NA
ATOM      5  N   UNL     1       1.344   7.877  21.021  0.00  0.00    +0.000 NA
ATOM      6  N   UNL     1       1.609   8.645  19.932  0.00  0.00    +0.000 N 
ATOM      7  C   UNL     1       1.260  10.015  19.906  0.00  0.00    +0.000 A 
ATOM      8  N   UNL     1       1.738  10.859  19.042  0.00  0.00    +0.000 NA
ATOM      9  N   UNL     1       1.107  12.058  19.068  0.00  0.00    +0.000 N 
ATOM     10  C   UNL     1       1.486  13.197  18.414  0.00  0.00    +0.000 A 
ATOM     11  C   UNL     1       0.476  14.127  18.560  0.00  0.00    +0.000 A 
ATOM     12  C   UNL     1      -0.545  13.524  19.337  0.00  0.00    +0.000 A 
ATOM     13  C   UNL     1      -0.086  12.276  19.692  0.00  0.00    +0.000 A 
ATOM     14  C   UNL     1      -0.625  11.233  20.503  0.00  0.00    +0.000 A 
ATOM     15  O   UNL     1      -1.809  11.121  20.799  0.00  0.00    +0.000 OA
ATOM     16  N   UNL     1       0.321  10.308  20.870  0.00  0.00    +0.000 N 
ATOM     17  H   UNL     1       0.820  10.718  21.654  0.00  0.00    +0.000 HD
ENDROOT
BRANCH   3  18
ATOM     18  C   UNL     1       2.409   5.319  18.724  0.00  0.00    +0.000 C 
ATOM     19  O   UNL     1       1.509   4.595  18.306  0.00  0.00    +0.000 OA
ATOM     20  N   UNL     1       3.726   4.951  18.561  0.00  0.00    +0.000 N 
ATOM     21  C   UNL     1       4.236   3.838  17.753  0.00  0.00    +0.000 C 
ATOM     22  C   UNL     1       5.325   4.787  17.364  0.00  0.00    +0.000 C 
ATOM     23  C   UNL     1       4.983   5.691  18.530  0.00  0.00    +0.000 C 
ATOM     24  C   UNL     1       6.747   4.330  17.170  0.00  0.00    +0.000 C 
ATOM     25  C   UNL     1       6.855   5.463  16.104  0.00  0.00    +0.000 C 
ATOM     26  F   UNL     1       7.561   5.167  14.992  0.00  0.00    +0.000 F 
ATOM     27  F   UNL     1       7.324   6.644  16.570  0.00  0.00    +0.000 F 
ATOM     28  C   UNL     1       5.308   5.379  15.971  0.00  0.00    +0.000 C 
ENDBRANCH   3  18
TORSDOF 1
ENDMDL
MODEL 7
REMARK VINA RESULT:      -7.8      3.789      8.457
REMARK  Name = 
REMARK  2 active torsions:
REMARK  status: ('A' for Active; 'I' for Inactive)
REMARK    1  A    between atoms: C_1  and  C_2
REMARK    2  A    between atoms: C_3  and  C_4
REMARK                            x       y       z     vdW  Elec       q    Type
REMARK                         _______ _______ _______ _____ _____    ______ ____
ROOT
ATOM      1  C   UNL     1       0.212  10.402  20.738  0.00  0.00    +0.000 C 
ATOM      2  C   UNL     1       1.049   9.923  19.611  0.00  0.00    +0.000 A 
ATOM      3  C   UNL     1       1.660   8.696  19.342  0.00  0.00    +0.000 A 
ATOM      4  N   UNL     1       2.376   8.815  18.174  0.00  0.00    +0.000 NA
ATOM      5  N   UNL     1       2.281  10.064  17.742  0.00  0.00    +0.000 NA
ATOM      6  N   UNL     1       1.512  10.766  18.615  0.00  0.00    +0.000 N 
ATOM      7  C   UNL     1       1.348  12.164  18.481  0.00  0.00    +0.000 A 
ATOM      8  N   UNL     1       0.414  12.836  19.083  0.00  0.00    +0.000 NA
ATOM      9  N   UNL     1       0.580  14.178  18.982  0.00  0.00    +0.000 N 
ATOM     10  C   UNL     1      -0.316  15.142  19.350  0.00  0.00    +0.000 A 
ATOM     11  C   UNL     1       0.314  16.367  19.252  0.00  0.00    +0.000 A 
ATOM     12  C   UNL     1       1.637  16.127  18.801  0.00  0.00    +0.000 A 
ATOM     13  C   UNL     1       1.737  14.773  18.576  0.00  0.00    +0.000 A 
ATOM     14  C   UNL     1       2.783  13.944  18.070  0.00  0.00    +0.000 A 
ATOM     15  O   UNL     1       3.967  14.258  18.034  0.00  0.00    +0.000 OA
ATOM     16  N   UNL     1       2.333  12.705  17.684  0.00  0.00    +0.000 N 
ATOM     17  H   UNL     1       1.929  12.833  16.760  0.00  0.00    +0.000 HD
ENDROOT
BRANCH   3  18
ATOM     18  C   UNL     1       1.641   7.494  20.178  0.00  0.00    +0.000 C 
ATOM     19  O   UNL     1       0.928   7.430  21.175  0.00  0.00    +0.000 OA
ATOM     20  N   UNL     1       2.469   6.443  19.849  0.00  0.00    +0.000 N 
ATOM     21  C   UNL     1       2.485   5.110  20.461  0.00  0.00    +0.000 C 
ATOM     22  C   UNL     1       2.686   4.612  19.065  0.00  0.00    +0.000 C 
ATOM     23  C   UNL     1       3.087   5.998  18.605  0.00  0.00    +0.000 C 
ATOM     24  C   UNL     1       3.581   3.440  18.760  0.00  0.00    +0.000 C 
ATOM     25  C   UNL     1       2.612   3.142  17.575  0.00  0.00    +0.000 C 
ATOM     26  F   UNL     1       2.341   1.840  17.341  0.00  0.00    +0.000 F 
ATOM     27  F   UNL     1       2.970   3.692  16.391  0.00  0.00    +0.000 F 
ATOM     28  C   UNL     1       1.529   3.932  18.363  0.00  0.00    +0.000 C 
ENDBRANCH   3  18
TORSDOF 1
ENDMDL
MODEL 8
REMARK VINA RESULT:      -7.8      6.704      9.283
REMARK  Name = 
REMARK  2 active torsions:
REMARK  status: ('A' for Active; 'I' for Inactive)
REMARK    1  A    between atoms: C_1  and  C_2
REMARK    2  A    between atoms: C_3  and  C_4
REMARK                            x       y       z     vdW  Elec       q    Type
REMARK                         _______ _______ _______ _____ _____    ______ ____
ROOT
ATOM      1  C   UNL     1       4.884   6.180  15.904  0.00  0.00    +0.000 C 
ATOM      2  C   UNL     1       6.076   5.416  16.347  0.00  0.00    +0.000 A 
ATOM      3  C   UNL     1       7.241   5.016  15.687  0.00  0.00    +0.000 A 
ATOM      4  N   UNL     1       7.999   4.271  16.559  0.00  0.00    +0.000 NA
ATOM      5  N   UNL     1       7.336   4.146  17.700  0.00  0.00    +0.000 NA
ATOM      6  N   UNL     1       6.151   4.801  17.584  0.00  0.00    +0.000 N 
ATOM      7  C   UNL     1       5.175   4.725  18.604  0.00  0.00    +0.000 A 
ATOM      8  N   UNL     1       4.169   5.542  18.695  0.00  0.00    +0.000 NA
ATOM      9  N   UNL     1       3.252   5.152  19.613  0.00  0.00    +0.000 N 
ATOM     10  C   UNL     1       2.185   5.878  20.063  0.00  0.00    +0.000 A 
ATOM     11  C   UNL     1       1.407   5.049  20.847  0.00  0.00    +0.000 A 
ATOM     12  C   UNL     1       2.035   3.778  20.872  0.00  0.00    +0.000 A 
ATOM     13  C   UNL     1       3.207   3.904  20.160  0.00  0.00    +0.000 A 
ATOM     14  C   UNL     1       4.280   3.004  19.882  0.00  0.00    +0.000 A 
ATOM     15  O   UNL     1       4.206   1.784  19.965  0.00  0.00    +0.000 OA
ATOM     16  N   UNL     1       5.406   3.649  19.434  0.00  0.00    +0.000 N 
ATOM     17  H   UNL     1       5.867   4.011  20.264  0.00  0.00    +0.000 HD
ENDROOT
BRANCH   3  18
ATOM     18  C   UNL     1       7.591   5.252  14.285  0.00  0.00    +0.000 C 
ATOM     19  O   UNL     1       8.568   5.933  13.984  0.00  0.00    +0.000 OA
ATOM     20  N   UNL     1       6.783   4.726  13.301  0.00  0.00    +0.000 N 
ATOM     21  C   UNL     1       7.044   4.718  11.858  0.00  0.00    +0.000 C 
ATOM     22  C   UNL     1       6.480   3.333  11.893  0.00  0.00    +0.000 C 
ATOM     23  C   UNL     1       5.863   3.595  13.251  0.00  0.00    +0.000 C 
ATOM     24  C   UNL     1       5.623   2.794  10.777  0.00  0.00    +0.000 C 
ATOM     25  C   UNL     1       6.224   1.399  11.131  0.00  0.00    +0.000 C 
ATOM     26  F   UNL     1       6.509   0.592  10.087  0.00  0.00    +0.000 F 
ATOM     27  F   UNL     1       5.496   0.670  12.010  0.00  0.00    +0.000 F 
ATOM     28  C   UNL     1       7.429   2.161  11.753  0.00  0.00    +0.000 C 
ENDBRANCH   3  18
TORSDOF 1
ENDMDL
MODEL 9
REMARK VINA RESULT:      -7.7      2.906      4.000
REMARK  Name = 
REMARK  2 active torsions:
REMARK  status: ('A' for Active; 'I' for Inactive)
REMARK    1  A    between atoms: C_1  and  C_2
REMARK    2  A    between atoms: C_3  and  C_4
REMARK                            x       y       z     vdW  Elec       q    Type
REMARK                         _______ _______ _______ _____ _____    ______ ____
ROOT
ATOM      1  C   UNL     1       2.742   8.867  18.711  0.00  0.00    +0.000 C 
ATOM      2  C   UNL     1       2.174   7.807  19.580  0.00  0.00    +0.000 A 
ATOM      3  C   UNL     1       1.437   7.850  20.766  0.00  0.00    +0.000 A 
ATOM      4  N   UNL     1       1.216   6.560  21.186  0.00  0.00    +0.000 NA
ATOM      5  N   UNL     1       1.825   5.730  20.352  0.00  0.00    +0.000 NA
ATOM      6  N   UNL     1       2.444   6.462  19.389  0.00  0.00    +0.000 N 
ATOM      7  C   UNL     1       3.288   5.847  18.436  0.00  0.00    +0.000 A 
ATOM      8  N   UNL     1       3.665   6.425  17.335  0.00  0.00    +0.000 NA
ATOM      9  N   UNL     1       4.636   5.740  16.684  0.00  0.00    +0.000 N 
ATOM     10  C   UNL     1       5.112   5.990  15.428  0.00  0.00    +0.000 A 
ATOM     11  C   UNL     1       6.213   5.182  15.221  0.00  0.00    +0.000 A 
ATOM     12  C   UNL     1       6.400   4.414  16.398  0.00  0.00    +0.000 A 
ATOM     13  C   UNL     1       5.365   4.733  17.247  0.00  0.00    +0.000 A 
ATOM     14  C   UNL     1       4.979   4.258  18.536  0.00  0.00    +0.000 A 
ATOM     15  O   UNL     1       5.720   3.666  19.312  0.00  0.00    +0.000 OA
ATOM     16  N   UNL     1       3.688   4.599  18.859  0.00  0.00    +0.000 N 
ATOM     17  H   UNL     1       3.097   3.922  18.385  0.00  0.00    +0.000 HD
ENDROOT
BRANCH   3  18
ATOM     18  C   UNL     1       1.028   9.042  21.512  0.00  0.00    +0.000 C 
ATOM     19  O   UNL     1       1.571   9.339  22.572  0.00  0.00    +0.000 OA
ATOM     20  N   UNL     1      -0.008   9.809  21.024  0.00  0.00    +0.000 N 
ATOM     21  C   UNL     1      -0.458  11.107  21.535  0.00  0.00    +0.000 C 
ATOM     22  C   UNL     1      -0.616  11.475  20.094  0.00  0.00    +0.000 C 
ATOM     23  C   UNL     1      -0.567  10.016  19.693  0.00  0.00    +0.000 C 
ATOM     24  C   UNL     1      -1.752  12.341  19.613  0.00  0.00    +0.000 C 
ATOM     25  C   UNL     1      -0.763  12.849  18.520  0.00  0.00    +0.000 C 
ATOM     26  F   UNL     1      -0.829  14.165  18.225  0.00  0.00    +0.000 F 
ATOM     27  F   UNL     1      -0.813  12.176  17.347  0.00  0.00    +0.000 F 
ATOM     28  C   UNL     1       0.390  12.421  19.473  0.00  0.00    +0.000 C 
ENDBRANCH   3  18
TORSDOF 1
ENDMDL
