MODEL 1
REMARK VINA RESULT:      -8.3      0.000      0.000
REMARK  Name = 
REMARK  10 active torsions:
REMARK  status: ('A' for Active; 'I' for Inactive)
REMARK    1  A    between atoms: C_1  and  C_2
REMARK    2  A    between atoms: C_7  and  C_8
REMARK    3  A    between atoms: C_8  and  C_9
REMARK    4  A    between atoms: C_12  and  S_13
REMARK    5  A    between atoms: S_13  and  C_14
REMARK    6  A    between atoms: C_14  and  C_15
REMARK    7  A    between atoms: N_17  and  N_18
REMARK    8  A    between atoms: C_19  and  C_20
REMARK    9  A    between atoms: N_26  and  N_27
REMARK   10  A    between atoms: C_28  and  C_29
REMARK                            x       y       z     vdW  Elec       q    Type
REMARK                         _______ _______ _______ _____ _____    ______ ____
ROOT
ATOM      1  C   UNL     1       2.783   7.255  17.918  0.00  0.00    +0.000 A 
ATOM      2  N   UNL     1       3.875   7.781  17.374  0.00  0.00    +0.000 NA
ATOM      3  N   UNL     1       4.883   6.844  17.408  0.00  0.00    +0.000 NA
ATOM      4  C   UNL     1       4.393   5.760  17.964  0.00  0.00    +0.000 A 
ATOM      5  N   UNL     1       3.068   5.948  18.268  0.00  0.00    +0.000 N 
ENDROOT
BRANCH   5   6
ATOM      6  N   UNL     1       2.387   5.087  19.065  0.00  0.00    +0.000 N 
ATOM      7  C   UNL     1       1.504   4.154  18.605  0.00  0.00    +0.000 C 
ATOM      8  C   UNL     1       0.949   3.280  19.703  0.00  0.00    +0.000 C 
ATOM      9  O   UNL     1       1.193   3.990  17.430  0.00  0.00    +0.000 OA
ATOM     10  H   UNL     1       2.489   5.278  20.061  0.00  0.00    +0.000 HD
ENDBRANCH   5   6
BRANCH   1  11
ATOM     11  C   UNL     1       1.490   7.988  18.093  0.00  0.00    +0.000 C 
BRANCH  11  18
ATOM     12  C   UNL     1       0.554  14.069  20.829  0.00  0.00    +0.000 C 
ATOM     13  C   UNL     1       0.853  12.736  20.205  0.00  0.00    +0.000 C 
ATOM     14  O   UNL     1       1.215  12.662  19.028  0.00  0.00    +0.000 OA
ATOM     15  N   UNL     1       0.753  11.696  21.108  0.00  0.00    +0.000 N 
ATOM     16  C   UNL     1       0.940  10.410  20.695  0.00  0.00    +0.000 A 
ATOM     17  N   UNL     1       0.964   9.980  19.468  0.00  0.00    +0.000 NA
ATOM     18  C   UNL     1       1.311   8.647  19.428  0.00  0.00    +0.000 A 
ATOM     19  C   UNL     1       1.478   8.072  20.678  0.00  0.00    +0.000 A 
ATOM     20  S   UNL     1       1.177   9.245  21.908  0.00  0.00    +0.000 S 
ATOM     21  H   UNL     1       0.670  11.867  22.099  0.00  0.00    +0.000 HD
ENDBRANCH  11  18
ENDBRANCH   1  11
BRANCH   4  22
ATOM     22  S   UNL     1       5.295   4.353  18.428  0.00  0.00    +0.000 S 
BRANCH  22  23
ATOM     23  C   UNL     1       6.940   4.709  17.746  0.00  0.00    +0.000 C 
BRANCH  23  24
ATOM     24  C   UNL     1       7.693   5.732  18.574  0.00  0.00    +0.000 C 
ATOM     25  O   UNL     1       8.206   5.429  19.655  0.00  0.00    +0.000 OA
ATOM     26  N   UNL     1       7.771   6.984  17.980  0.00  0.00    +0.000 N 
ATOM     27  H   UNL     1       7.265   7.178  17.114  0.00  0.00    +0.000 HD
BRANCH  26  28
ATOM     28  N   UNL     1       8.409   8.002  18.621  0.00  0.00    +0.000 NA
ATOM     29  C   UNL     1       8.305   9.163  18.060  0.00  0.00    +0.000 C 
BRANCH  29  30
ATOM     30  C   UNL     1       8.978  10.344  18.619  0.00  0.00    +0.000 A 
ATOM     31  C   UNL     1       9.421  10.329  19.945  0.00  0.00    +0.000 A 
ATOM     32  C   UNL     1      10.074  11.443  20.472  0.00  0.00    +0.000 A 
ATOM     33  C   UNL     1      10.285  12.569  19.676  0.00  0.00    +0.000 A 
ATOM     34  C   UNL     1       9.837  12.582  18.352  0.00  0.00    +0.000 A 
ATOM     35  C   UNL     1       9.177  11.472  17.823  0.00  0.00    +0.000 A 
ENDBRANCH  29  30
ENDBRANCH  26  28
ENDBRANCH  23  24
ENDBRANCH  22  23
ENDBRANCH   4  22
TORSDOF 8
ENDMDL
MODEL 2
REMARK VINA RESULT:      -8.0      1.332      1.659
REMARK  Name = 
REMARK  10 active torsions:
REMARK  status: ('A' for Active; 'I' for Inactive)
REMARK    1  A    between atoms: C_1  and  C_2
REMARK    2  A    between atoms: C_7  and  C_8
REMARK    3  A    between atoms: C_8  and  C_9
REMARK    4  A    between atoms: C_12  and  S_13
REMARK    5  A    between atoms: S_13  and  C_14
REMARK    6  A    between atoms: C_14  and  C_15
REMARK    7  A    between atoms: N_17  and  N_18
REMARK    8  A    between atoms: C_19  and  C_20
REMARK    9  A    between atoms: N_26  and  N_27
REMARK   10  A    between atoms: C_28  and  C_29
REMARK                            x       y       z     vdW  Elec       q    Type
REMARK                         _______ _______ _______ _____ _____    ______ ____
ROOT
ATOM      1  C   UNL     1       2.621   7.216  18.201  0.00  0.00    +0.000 A 
ATOM      2  N   UNL     1       3.632   7.790  17.557  0.00  0.00    +0.000 NA
ATOM      3  N   UNL     1       4.666   6.887  17.460  0.00  0.00    +0.000 NA
ATOM      4  C   UNL     1       4.272   5.774  18.037  0.00  0.00    +0.000 A 
ATOM      5  N   UNL     1       2.981   5.912  18.484  0.00  0.00    +0.000 N 
ENDROOT
BRANCH   5   6
ATOM      6  N   UNL     1       2.416   5.011  19.327  0.00  0.00    +0.000 N 
ATOM      7  C   UNL     1       1.570   4.018  18.928  0.00  0.00    +0.000 C 
ATOM      8  C   UNL     1       1.150   3.115  20.063  0.00  0.00    +0.000 C 
ATOM      9  O   UNL     1       1.192   3.827  17.777  0.00  0.00    +0.000 OA
ATOM     10  H   UNL     1       2.572   5.214  20.314  0.00  0.00    +0.000 HD
ENDBRANCH   5   6
BRANCH   1  11
ATOM     11  C   UNL     1       1.332   7.902  18.530  0.00  0.00    +0.000 C 
BRANCH  11  18
ATOM     12  C   UNL     1      -0.795  12.756  22.684  0.00  0.00    +0.000 C 
ATOM     13  C   UNL     1      -0.406  11.673  21.720  0.00  0.00    +0.000 C 
ATOM     14  O   UNL     1      -0.956  10.569  21.763  0.00  0.00    +0.000 OA
ATOM     15  N   UNL     1       0.524  12.099  20.793  0.00  0.00    +0.000 N 
ATOM     16  C   UNL     1       1.027  11.225  19.875  0.00  0.00    +0.000 A 
ATOM     17  N   UNL     1       0.931   9.928  19.898  0.00  0.00    +0.000 NA
ATOM     18  C   UNL     1       1.439   9.384  18.739  0.00  0.00    +0.000 A 
ATOM     19  C   UNL     1       1.987  10.317  17.873  0.00  0.00    +0.000 A 
ATOM     20  S   UNL     1       1.858  11.896  18.555  0.00  0.00    +0.000 S 
ATOM     21  H   UNL     1       0.754  13.076  20.690  0.00  0.00    +0.000 HD
ENDBRANCH  11  18
ENDBRANCH   1  11
BRANCH   4  22
ATOM     22  S   UNL     1       5.260   4.388  18.366  0.00  0.00    +0.000 S 
BRANCH  22  23
ATOM     23  C   UNL     1       6.843   4.857  17.609  0.00  0.00    +0.000 C 
BRANCH  23  24
ATOM     24  C   UNL     1       7.623   5.830  18.469  0.00  0.00    +0.000 C 
ATOM     25  O   UNL     1       8.092   5.489  19.559  0.00  0.00    +0.000 OA
ATOM     26  N   UNL     1       7.777   7.084  17.895  0.00  0.00    +0.000 N 
ATOM     27  H   UNL     1       7.305   7.314  17.020  0.00  0.00    +0.000 HD
BRANCH  26  28
ATOM     28  N   UNL     1       8.448   8.062  18.566  0.00  0.00    +0.000 NA
ATOM     29  C   UNL     1       8.361   9.246  18.055  0.00  0.00    +0.000 C 
BRANCH  29  30
ATOM     30  C   UNL     1       9.068  10.389  18.650  0.00  0.00    +0.000 A 
ATOM     31  C   UNL     1       9.435  11.474  17.846  0.00  0.00    +0.000 A 
ATOM     32  C   UNL     1      10.091  12.566  18.411  0.00  0.00    +0.000 A 
ATOM     33  C   UNL     1      10.380  12.577  19.776  0.00  0.00    +0.000 A 
ATOM     34  C   UNL     1      10.015  11.490  20.575  0.00  0.00    +0.000 A 
ATOM     35  C   UNL     1       9.365  10.391  20.012  0.00  0.00    +0.000 A 
ENDBRANCH  29  30
ENDBRANCH  26  28
ENDBRANCH  23  24
ENDBRANCH  22  23
ENDBRANCH   4  22
TORSDOF 8
ENDMDL
MODEL 3
REMARK VINA RESULT:      -7.9      1.530      1.816
REMARK  Name = 
REMARK  10 active torsions:
REMARK  status: ('A' for Active; 'I' for Inactive)
REMARK    1  A    between atoms: C_1  and  C_2
REMARK    2  A    between atoms: C_7  and  C_8
REMARK    3  A    between atoms: C_8  and  C_9
REMARK    4  A    between atoms: C_12  and  S_13
REMARK    5  A    between atoms: S_13  and  C_14
REMARK    6  A    between atoms: C_14  and  C_15
REMARK    7  A    between atoms: N_17  and  N_18
REMARK    8  A    between atoms: C_19  and  C_20
REMARK    9  A    between atoms: N_26  and  N_27
REMARK   10  A    between atoms: C_28  and  C_29
REMARK                            x       y       z     vdW  Elec       q    Type
REMARK                         _______ _______ _______ _____ _____    ______ ____
ROOT
ATOM      1  C   UNL     1       2.799   7.458  17.462  0.00  0.00    +0.000 A 
ATOM      2  N   UNL     1       3.911   7.777  16.807  0.00  0.00    +0.000 NA
ATOM      3  N   UNL     1       4.882   6.849  17.104  0.00  0.00    +0.000 NA
ATOM      4  C   UNL     1       4.351   5.974  17.927  0.00  0.00    +0.000 A 
ATOM      5  N   UNL     1       3.034   6.285  18.154  0.00  0.00    +0.000 N 
ENDROOT
BRANCH   5   6
ATOM      6  N   UNL     1       2.321   5.697  19.147  0.00  0.00    +0.000 N 
ATOM      7  C   UNL     1       1.653   4.516  19.011  0.00  0.00    +0.000 C 
ATOM      8  C   UNL     1       1.007   4.056  20.296  0.00  0.00    +0.000 C 
ATOM      9  O   UNL     1       1.588   3.851  17.982  0.00  0.00    +0.000 OA
ATOM     10  H   UNL     1       2.212   6.278  19.977  0.00  0.00    +0.000 HD
ENDBRANCH   5   6
BRANCH   1  11
ATOM     11  C   UNL     1       1.535   8.258  17.417  0.00  0.00    +0.000 C 
BRANCH  11  18
ATOM     12  C   UNL     1      -0.532   9.841  23.628  0.00  0.00    +0.000 C 
ATOM     13  C   UNL     1      -0.161   9.490  22.215  0.00  0.00    +0.000 C 
ATOM     14  O   UNL     1      -0.556   8.438  21.706  0.00  0.00    +0.000 OA
ATOM     15  N   UNL     1       0.559  10.492  21.594  0.00  0.00    +0.000 N 
ATOM     16  C   UNL     1       1.024  10.315  20.325  0.00  0.00    +0.000 A 
ATOM     17  N   UNL     1       1.095   9.195  19.668  0.00  0.00    +0.000 NA
ATOM     18  C   UNL     1       1.487   9.419  18.367  0.00  0.00    +0.000 A 
ATOM     19  C   UNL     1       1.777  10.746  18.088  0.00  0.00    +0.000 A 
ATOM     20  S   UNL     1       1.556  11.704  19.505  0.00  0.00    +0.000 S 
ATOM     21  H   UNL     1       0.647  11.409  22.006  0.00  0.00    +0.000 HD
ENDBRANCH  11  18
ENDBRANCH   1  11
BRANCH   4  22
ATOM     22  S   UNL     1       5.199   4.713  18.763  0.00  0.00    +0.000 S 
BRANCH  22  23
ATOM     23  C   UNL     1       6.874   4.857  18.079  0.00  0.00    +0.000 C 
BRANCH  23  24
ATOM     24  C   UNL     1       7.711   5.876  18.827  0.00  0.00    +0.000 C 
ATOM     25  O   UNL     1       8.254   5.596  19.900  0.00  0.00    +0.000 OA
ATOM     26  N   UNL     1       7.827   7.094  18.173  0.00  0.00    +0.000 N 
ATOM     27  H   UNL     1       7.295   7.275  17.319  0.00  0.00    +0.000 HD
BRANCH  26  28
ATOM     28  N   UNL     1       8.541   8.106  18.739  0.00  0.00    +0.000 NA
ATOM     29  C   UNL     1       8.355   9.276  18.221  0.00  0.00    +0.000 C 
BRANCH  29  30
ATOM     30  C   UNL     1       9.091  10.452  18.703  0.00  0.00    +0.000 A 
ATOM     31  C   UNL     1       9.411  10.562  20.061  0.00  0.00    +0.000 A 
ATOM     32  C   UNL     1      10.123  11.670  20.519  0.00  0.00    +0.000 A 
ATOM     33  C   UNL     1      10.518  12.664  19.624  0.00  0.00    +0.000 A 
ATOM     34  C   UNL     1      10.193  12.552  18.268  0.00  0.00    +0.000 A 
ATOM     35  C   UNL     1       9.474  11.449  17.807  0.00  0.00    +0.000 A 
ENDBRANCH  29  30
ENDBRANCH  26  28
ENDBRANCH  23  24
ENDBRANCH  22  23
ENDBRANCH   4  22
TORSDOF 8
ENDMDL
MODEL 4
REMARK VINA RESULT:      -7.9      1.746      1.849
REMARK  Name = 
REMARK  10 active torsions:
REMARK  status: ('A' for Active; 'I' for Inactive)
REMARK    1  A    between atoms: C_1  and  C_2
REMARK    2  A    between atoms: C_7  and  C_8
REMARK    3  A    between atoms: C_8  and  C_9
REMARK    4  A    between atoms: C_12  and  S_13
REMARK    5  A    between atoms: S_13  and  C_14
REMARK    6  A    between atoms: C_14  and  C_15
REMARK    7  A    between atoms: N_17  and  N_18
REMARK    8  A    between atoms: C_19  and  C_20
REMARK    9  A    between atoms: N_26  and  N_27
REMARK   10  A    between atoms: C_28  and  C_29
REMARK                            x       y       z     vdW  Elec       q    Type
REMARK                         _______ _______ _______ _____ _____    ______ ____
ROOT
ATOM      1  C   UNL     1       2.789   7.159  19.007  0.00  0.00    +0.000 A 
ATOM      2  N   UNL     1       3.194   7.909  17.987  0.00  0.00    +0.000 NA
ATOM      3  N   UNL     1       4.059   7.172  17.211  0.00  0.00    +0.000 NA
ATOM      4  C   UNL     1       4.166   5.984  17.761  0.00  0.00    +0.000 A 
ATOM      5  N   UNL     1       3.359   5.908  18.868  0.00  0.00    +0.000 N 
ENDROOT
BRANCH   5   6
ATOM      6  N   UNL     1       3.461   4.889  19.759  0.00  0.00    +0.000 N 
ATOM      7  C   UNL     1       2.488   3.955  19.965  0.00  0.00    +0.000 C 
ATOM      8  C   UNL     1       2.896   2.893  20.957  0.00  0.00    +0.000 C 
ATOM      9  O   UNL     1       1.399   3.927  19.402  0.00  0.00    +0.000 OA
ATOM     10  H   UNL     1       4.279   4.949  20.364  0.00  0.00    +0.000 HD
ENDBRANCH   5   6
BRANCH   1  11
ATOM     11  C   UNL     1       1.867   7.631  20.088  0.00  0.00    +0.000 C 
BRANCH  11  18
ATOM     12  C   UNL     1      -1.568  12.477  23.260  0.00  0.00    +0.000 C 
ATOM     13  C   UNL     1      -0.880  11.343  22.555  0.00  0.00    +0.000 C 
ATOM     14  O   UNL     1      -0.728  10.255  23.117  0.00  0.00    +0.000 OA
ATOM     15  N   UNL     1      -0.550  11.655  21.251  0.00  0.00    +0.000 N 
ATOM     16  C   UNL     1       0.130  10.757  20.483  0.00  0.00    +0.000 A 
ATOM     17  N   UNL     1       0.752   9.691  20.894  0.00  0.00    +0.000 NA
ATOM     18  C   UNL     1       1.207   8.952  19.824  0.00  0.00    +0.000 A 
ATOM     19  C   UNL     1       0.966   9.540  18.592  0.00  0.00    +0.000 A 
ATOM     20  S   UNL     1       0.163  11.051  18.810  0.00  0.00    +0.000 S 
ATOM     21  H   UNL     1      -0.907  12.485  20.802  0.00  0.00    +0.000 HD
ENDBRANCH  11  18
ENDBRANCH   1  11
BRANCH   4  22
ATOM     22  S   UNL     1       5.282   4.741  17.297  0.00  0.00    +0.000 S 
BRANCH  22  23
ATOM     23  C   UNL     1       6.658   5.700  16.601  0.00  0.00    +0.000 C 
BRANCH  23  24
ATOM     24  C   UNL     1       7.331   6.573  17.641  0.00  0.00    +0.000 C 
ATOM     25  O   UNL     1       7.875   6.082  18.635  0.00  0.00    +0.000 OA
ATOM     26  N   UNL     1       7.301   7.926  17.339  0.00  0.00    +0.000 N 
ATOM     27  H   UNL     1       6.775   8.265  16.532  0.00  0.00    +0.000 HD
BRANCH  26  28
ATOM     28  N   UNL     1       7.859   8.827  18.196  0.00  0.00    +0.000 NA
ATOM     29  C   UNL     1       8.646   9.697  17.652  0.00  0.00    +0.000 C 
BRANCH  29  30
ATOM     30  C   UNL     1       9.350  10.702  18.461  0.00  0.00    +0.000 A 
ATOM     31  C   UNL     1       9.414  10.555  19.851  0.00  0.00    +0.000 A 
ATOM     32  C   UNL     1      10.094  11.498  20.619  0.00  0.00    +0.000 A 
ATOM     33  C   UNL     1      10.710  12.587  20.001  0.00  0.00    +0.000 A 
ATOM     34  C   UNL     1      10.641  12.733  18.613  0.00  0.00    +0.000 A 
ATOM     35  C   UNL     1       9.955  11.795  17.841  0.00  0.00    +0.000 A 
ENDBRANCH  29  30
ENDBRANCH  26  28
ENDBRANCH  23  24
ENDBRANCH  22  23
ENDBRANCH   4  22
TORSDOF 8
ENDMDL
MODEL 5
REMARK VINA RESULT:      -7.7      1.811      2.105
REMARK  Name = 
REMARK  10 active torsions:
REMARK  status: ('A' for Active; 'I' for Inactive)
REMARK    1  A    between atoms: C_1  and  C_2
REMARK    2  A    between atoms: C_7  and  C_8
REMARK    3  A    between atoms: C_8  and  C_9
REMARK    4  A    between atoms: C_12  and  S_13
REMARK    5  A    between atoms: S_13  and  C_14
REMARK    6  A    between atoms: C_14  and  C_15
REMARK    7  A    between atoms: N_17  and  N_18
REMARK    8  A    between atoms: C_19  and  C_20
REMARK    9  A    between atoms: N_26  and  N_27
REMARK   10  A    between atoms: C_28  and  C_29
REMARK                            x       y       z     vdW  Elec       q    Type
REMARK                         _______ _______ _______ _____ _____    ______ ____
ROOT
ATOM      1  C   UNL     1       3.323   6.731  17.993  0.00  0.00    +0.000 A 
ATOM      2  N   UNL     1       3.900   7.712  17.306  0.00  0.00    +0.000 NA
ATOM      3  N   UNL     1       4.944   7.189  16.578  0.00  0.00    +0.000 NA
ATOM      4  C   UNL     1       4.987   5.899  16.823  0.00  0.00    +0.000 A 
ATOM      5  N   UNL     1       3.967   5.551  17.673  0.00  0.00    +0.000 N 
ENDROOT
BRANCH   5   6
ATOM      6  N   UNL     1       3.924   4.338  18.279  0.00  0.00    +0.000 N 
ATOM      7  C   UNL     1       3.022   3.362  17.974  0.00  0.00    +0.000 C 
ATOM      8  C   UNL     1       3.251   2.087  18.750  0.00  0.00    +0.000 C 
ATOM      9  O   UNL     1       2.125   3.459  17.142  0.00  0.00    +0.000 OA
ATOM     10  H   UNL     1       4.546   4.256  19.084  0.00  0.00    +0.000 HD
ENDBRANCH   5   6
BRANCH   1  11
ATOM     11  C   UNL     1       2.171   6.921  18.930  0.00  0.00    +0.000 C 
BRANCH  11  18
ATOM     12  C   UNL     1      -1.185  10.914  23.188  0.00  0.00    +0.000 C 
ATOM     13  C   UNL     1      -0.519   9.984  22.215  0.00  0.00    +0.000 C 
ATOM     14  O   UNL     1      -0.559   8.763  22.387  0.00  0.00    +0.000 OA
ATOM     15  N   UNL     1       0.026  10.652  21.136  0.00  0.00    +0.000 N 
ATOM     16  C   UNL     1       0.716   9.964  20.183  0.00  0.00    +0.000 A 
ATOM     17  N   UNL     1       1.162   8.745  20.269  0.00  0.00    +0.000 NA
ATOM     18  C   UNL     1       1.691   8.335  19.064  0.00  0.00    +0.000 A 
ATOM     19  C   UNL     1       1.691   9.319  18.087  0.00  0.00    +0.000 A 
ATOM     20  S   UNL     1       1.019  10.776  18.722  0.00  0.00    +0.000 S 
ATOM     21  H   UNL     1      -0.179  11.624  20.961  0.00  0.00    +0.000 HD
ENDBRANCH  11  18
ENDBRANCH   1  11
BRANCH   4  22
ATOM     22  S   UNL     1       6.232   4.805  16.316  0.00  0.00    +0.000 S 
BRANCH  22  23
ATOM     23  C   UNL     1       6.949   4.279  17.899  0.00  0.00    +0.000 C 
BRANCH  23  24
ATOM     24  C   UNL     1       7.671   5.409  18.604  0.00  0.00    +0.000 C 
ATOM     25  O   UNL     1       8.177   5.250  19.719  0.00  0.00    +0.000 OA
ATOM     26  N   UNL     1       7.732   6.581  17.864  0.00  0.00    +0.000 N 
ATOM     27  H   UNL     1       7.233   6.659  16.976  0.00  0.00    +0.000 HD
BRANCH  26  28
ATOM     28  N   UNL     1       8.342   7.683  18.383  0.00  0.00    +0.000 NA
ATOM     29  C   UNL     1       7.974   8.814  17.875  0.00  0.00    +0.000 C 
BRANCH  29  30
ATOM     30  C   UNL     1       8.580  10.080  18.310  0.00  0.00    +0.000 A 
ATOM     31  C   UNL     1       8.381  11.241  17.553  0.00  0.00    +0.000 A 
ATOM     32  C   UNL     1       8.941  12.447  17.972  0.00  0.00    +0.000 A 
ATOM     33  C   UNL     1       9.697  12.495  19.143  0.00  0.00    +0.000 A 
ATOM     34  C   UNL     1       9.896  11.333  19.895  0.00  0.00    +0.000 A 
ATOM     35  C   UNL     1       9.343  10.123  19.476  0.00  0.00    +0.000 A 
ENDBRANCH  29  30
ENDBRANCH  26  28
ENDBRANCH  23  24
ENDBRANCH  22  23
ENDBRANCH   4  22
TORSDOF 8
ENDMDL
MODEL 6
REMARK VINA RESULT:      -7.7      4.235      7.382
REMARK  Name = 
REMARK  10 active torsions:
REMARK  status: ('A' for Active; 'I' for Inactive)
REMARK    1  A    between atoms: C_1  and  C_2
REMARK    2  A    between atoms: C_7  and  C_8
REMARK    3  A    between atoms: C_8  and  C_9
REMARK    4  A    between atoms: C_12  and  S_13
REMARK    5  A    between atoms: S_13  and  C_14
REMARK    6  A    between atoms: C_14  and  C_15
REMARK    7  A    between atoms: N_17  and  N_18
REMARK    8  A    between atoms: C_19  and  C_20
REMARK    9  A    between atoms: N_26  and  N_27
REMARK   10  A    between atoms: C_28  and  C_29
REMARK                            x       y       z     vdW  Elec       q    Type
REMARK                         _______ _______ _______ _____ _____    ______ ____
ROOT
ATOM      1  C   UNL     1      -1.485  12.072  22.109  0.00  0.00    +0.000 A 
ATOM      2  N   UNL     1      -1.876  11.417  23.198  0.00  0.00    +0.000 NA
ATOM      3  N   UNL     1      -0.952  10.439  23.482  0.00  0.00    +0.000 NA
ATOM      4  C   UNL     1      -0.008  10.512  22.571  0.00  0.00    +0.000 A 
ATOM      5  N   UNL     1      -0.272  11.545  21.708  0.00  0.00    +0.000 N 
ENDROOT
BRANCH   5   6
ATOM      6  N   UNL     1       0.402  11.691  20.539  0.00  0.00    +0.000 N 
ATOM      7  C   UNL     1       1.436  12.561  20.356  0.00  0.00    +0.000 C 
ATOM      8  C   UNL     1       2.050  12.461  18.981  0.00  0.00    +0.000 C 
ATOM      9  O   UNL     1       1.871  13.335  21.202  0.00  0.00    +0.000 OA
ATOM     10  H   UNL     1      -0.013  11.185  19.757  0.00  0.00    +0.000 HD
ENDBRANCH   5   6
BRANCH   1  11
ATOM     11  C   UNL     1      -2.256  13.186  21.472  0.00  0.00    +0.000 C 
BRANCH  11  18
ATOM     12  C   UNL     1      -2.959  10.347  15.406  0.00  0.00    +0.000 C 
ATOM     13  C   UNL     1      -2.778  11.060  16.715  0.00  0.00    +0.000 C 
ATOM     14  O   UNL     1      -1.670  11.491  17.046  0.00  0.00    +0.000 OA
ATOM     15  N   UNL     1      -3.968  11.224  17.396  0.00  0.00    +0.000 N 
ATOM     16  C   UNL     1      -3.977  11.804  18.630  0.00  0.00    +0.000 A 
ATOM     17  N   UNL     1      -2.950  12.021  19.398  0.00  0.00    +0.000 NA
ATOM     18  C   UNL     1      -3.319  12.749  20.508  0.00  0.00    +0.000 A 
ATOM     19  C   UNL     1      -4.679  13.010  20.582  0.00  0.00    +0.000 A 
ATOM     20  S   UNL     1      -5.485  12.310  19.227  0.00  0.00    +0.000 S 
ATOM     21  H   UNL     1      -4.857  11.041  16.954  0.00  0.00    +0.000 HD
ENDBRANCH  11  18
ENDBRANCH   1  11
BRANCH   4  22
ATOM     22  S   UNL     1       1.288   9.381  22.350  0.00  0.00    +0.000 S 
BRANCH  22  23
ATOM     23  C   UNL     1       0.614   8.267  21.085  0.00  0.00    +0.000 C 
BRANCH  23  24
ATOM     24  C   UNL     1       1.568   8.079  19.922  0.00  0.00    +0.000 C 
ATOM     25  O   UNL     1       1.697   8.945  19.052  0.00  0.00    +0.000 OA
ATOM     26  N   UNL     1       2.279   6.888  19.969  0.00  0.00    +0.000 N 
ATOM     27  H   UNL     1       2.071   6.189  20.684  0.00  0.00    +0.000 HD
BRANCH  26  28
ATOM     28  N   UNL     1       3.163   6.584  18.978  0.00  0.00    +0.000 NA
ATOM     29  C   UNL     1       4.009   5.646  19.256  0.00  0.00    +0.000 C 
BRANCH  29  30
ATOM     30  C   UNL     1       5.047   5.244  18.297  0.00  0.00    +0.000 A 
ATOM     31  C   UNL     1       6.397   5.373  18.640  0.00  0.00    +0.000 A 
ATOM     32  C   UNL     1       7.384   4.978  17.738  0.00  0.00    +0.000 A 
ATOM     33  C   UNL     1       7.024   4.452  16.498  0.00  0.00    +0.000 A 
ATOM     34  C   UNL     1       5.674   4.326  16.157  0.00  0.00    +0.000 A 
ATOM     35  C   UNL     1       4.683   4.729  17.054  0.00  0.00    +0.000 A 
ENDBRANCH  29  30
ENDBRANCH  26  28
ENDBRANCH  23  24
ENDBRANCH  22  23
ENDBRANCH   4  22
TORSDOF 8
ENDMDL
MODEL 7
REMARK VINA RESULT:      -7.6      3.979      9.154
REMARK  Name = 
REMARK  10 active torsions:
REMARK  status: ('A' for Active; 'I' for Inactive)
REMARK    1  A    between atoms: C_1  and  C_2
REMARK    2  A    between atoms: C_7  and  C_8
REMARK    3  A    between atoms: C_8  and  C_9
REMARK    4  A    between atoms: C_12  and  S_13
REMARK    5  A    between atoms: S_13  and  C_14
REMARK    6  A    between atoms: C_14  and  C_15
REMARK    7  A    between atoms: N_17  and  N_18
REMARK    8  A    between atoms: C_19  and  C_20
REMARK    9  A    between atoms: N_26  and  N_27
REMARK   10  A    between atoms: C_28  and  C_29
REMARK                            x       y       z     vdW  Elec       q    Type
REMARK                         _______ _______ _______ _____ _____    ______ ____
ROOT
ATOM      1  C   UNL     1       2.718   6.435  18.483  0.00  0.00    +0.000 A 
ATOM      2  N   UNL     1       2.289   7.591  17.985  0.00  0.00    +0.000 NA
ATOM      3  N   UNL     1       1.761   8.345  19.007  0.00  0.00    +0.000 NA
ATOM      4  C   UNL     1       1.880   7.647  20.113  0.00  0.00    +0.000 A 
ATOM      5  N   UNL     1       2.510   6.457  19.849  0.00  0.00    +0.000 N 
ENDROOT
BRANCH   5   6
ATOM      6  N   UNL     1       2.542   5.447  20.755  0.00  0.00    +0.000 N 
ATOM      7  C   UNL     1       1.700   4.374  20.733  0.00  0.00    +0.000 C 
ATOM      8  C   UNL     1       2.007   3.366  21.814  0.00  0.00    +0.000 C 
ATOM      9  O   UNL     1       0.800   4.194  19.919  0.00  0.00    +0.000 OA
ATOM     10  H   UNL     1       3.167   5.618  21.542  0.00  0.00    +0.000 HD
ENDBRANCH   5   6
BRANCH   1  11
ATOM     11  C   UNL     1       3.322   5.337  17.665  0.00  0.00    +0.000 C 
BRANCH  11  18
ATOM     12  C   UNL     1       7.836   4.769  12.700  0.00  0.00    +0.000 C 
ATOM     13  C   UNL     1       6.826   4.802  13.811  0.00  0.00    +0.000 C 
ATOM     14  O   UNL     1       5.695   4.337  13.644  0.00  0.00    +0.000 OA
ATOM     15  N   UNL     1       7.347   5.312  14.984  0.00  0.00    +0.000 N 
ATOM     16  C   UNL     1       6.549   5.463  16.079  0.00  0.00    +0.000 A 
ATOM     17  N   UNL     1       5.250   5.417  16.111  0.00  0.00    +0.000 NA
ATOM     18  C   UNL     1       4.794   5.475  17.410  0.00  0.00    +0.000 A 
ATOM     19  C   UNL     1       5.799   5.638  18.351  0.00  0.00    +0.000 A 
ATOM     20  S   UNL     1       7.331   5.729  17.564  0.00  0.00    +0.000 S 
ATOM     21  H   UNL     1       8.338   5.461  15.098  0.00  0.00    +0.000 HD
ENDBRANCH  11  18
ENDBRANCH   1  11
BRANCH   4  22
ATOM     22  S   UNL     1       1.196   8.051  21.655  0.00  0.00    +0.000 S 
BRANCH  22  23
ATOM     23  C   UNL     1       0.023   9.367  21.222  0.00  0.00    +0.000 C 
BRANCH  23  24
ATOM     24  C   UNL     1      -0.098  10.409  22.316  0.00  0.00    +0.000 C 
ATOM     25  O   UNL     1      -0.067  10.092  23.509  0.00  0.00    +0.000 OA
ATOM     26  N   UNL     1      -0.200  11.709  21.842  0.00  0.00    +0.000 N 
ATOM     27  H   UNL     1      -0.285  11.889  20.841  0.00  0.00    +0.000 HD
BRANCH  26  28
ATOM     28  N   UNL     1      -0.327  12.744  22.718  0.00  0.00    +0.000 NA
ATOM     29  C   UNL     1      -1.519  13.234  22.830  0.00  0.00    +0.000 C 
BRANCH  29  30
ATOM     30  C   UNL     1      -1.794  14.381  23.706  0.00  0.00    +0.000 A 
ATOM     31  C   UNL     1      -2.987  14.427  24.437  0.00  0.00    +0.000 A 
ATOM     32  C   UNL     1      -3.243  15.507  25.281  0.00  0.00    +0.000 A 
ATOM     33  C   UNL     1      -2.311  16.538  25.397  0.00  0.00    +0.000 A 
ATOM     34  C   UNL     1      -1.122  16.490  24.663  0.00  0.00    +0.000 A 
ATOM     35  C   UNL     1      -0.865  15.416  23.811  0.00  0.00    +0.000 A 
ENDBRANCH  29  30
ENDBRANCH  26  28
ENDBRANCH  23  24
ENDBRANCH  22  23
ENDBRANCH   4  22
TORSDOF 8
ENDMDL
MODEL 8
REMARK VINA RESULT:      -7.6      4.315      6.018
REMARK  Name = 
REMARK  10 active torsions:
REMARK  status: ('A' for Active; 'I' for Inactive)
REMARK    1  A    between atoms: C_1  and  C_2
REMARK    2  A    between atoms: C_7  and  C_8
REMARK    3  A    between atoms: C_8  and  C_9
REMARK    4  A    between atoms: C_12  and  S_13
REMARK    5  A    between atoms: S_13  and  C_14
REMARK    6  A    between atoms: C_14  and  C_15
REMARK    7  A    between atoms: N_17  and  N_18
REMARK    8  A    between atoms: C_19  and  C_20
REMARK    9  A    between atoms: N_26  and  N_27
REMARK   10  A    between atoms: C_28  and  C_29
REMARK                            x       y       z     vdW  Elec       q    Type
REMARK                         _______ _______ _______ _____ _____    ______ ____
ROOT
ATOM      1  C   UNL     1       1.823   9.680  18.535  0.00  0.00    +0.000 A 
ATOM      2  N   UNL     1       2.213   8.949  17.496  0.00  0.00    +0.000 NA
ATOM      3  N   UNL     1       2.278   7.630  17.882  0.00  0.00    +0.000 NA
ATOM      4  C   UNL     1       1.923   7.571  19.145  0.00  0.00    +0.000 A 
ATOM      5  N   UNL     1       1.588   8.824  19.594  0.00  0.00    +0.000 N 
ENDROOT
BRANCH   5   6
ATOM      6  N   UNL     1       1.422   9.089  20.915  0.00  0.00    +0.000 N 
ATOM      7  C   UNL     1       0.209   9.150  21.536  0.00  0.00    +0.000 C 
ATOM      8  C   UNL     1       0.322   9.387  23.022  0.00  0.00    +0.000 C 
ATOM      9  O   UNL     1      -0.878   9.000  20.987  0.00  0.00    +0.000 OA
ATOM     10  H   UNL     1       2.278   9.373  21.390  0.00  0.00    +0.000 HD
ENDBRANCH   5   6
BRANCH   1  11
ATOM     11  C   UNL     1       1.671  11.169  18.511  0.00  0.00    +0.000 C 
BRANCH  11  18
ATOM     12  C   UNL     1      -4.841  11.393  16.814  0.00  0.00    +0.000 C 
ATOM     13  C   UNL     1      -3.373  11.411  17.128  0.00  0.00    +0.000 C 
ATOM     14  O   UNL     1      -2.544  11.097  16.269  0.00  0.00    +0.000 OA
ATOM     15  N   UNL     1      -3.111  11.881  18.400  0.00  0.00    +0.000 N 
ATOM     16  C   UNL     1      -1.831  11.911  18.869  0.00  0.00    +0.000 A 
ATOM     17  N   UNL     1      -0.797  11.312  18.356  0.00  0.00    +0.000 NA
ATOM     18  C   UNL     1       0.355  11.680  19.016  0.00  0.00    +0.000 A 
ATOM     19  C   UNL     1       0.139  12.525  20.094  0.00  0.00    +0.000 A 
ATOM     20  S   UNL     1      -1.549  12.839  20.264  0.00  0.00    +0.000 S 
ATOM     21  H   UNL     1      -3.828  12.324  18.955  0.00  0.00    +0.000 HD
ENDBRANCH  11  18
ENDBRANCH   1  11
BRANCH   4  22
ATOM     22  S   UNL     1       2.024   6.177  20.170  0.00  0.00    +0.000 S 
BRANCH  22  23
ATOM     23  C   UNL     1       3.672   5.527  19.774  0.00  0.00    +0.000 C 
BRANCH  23  24
ATOM     24  C   UNL     1       3.721   4.890  18.399  0.00  0.00    +0.000 C 
ATOM     25  O   UNL     1       2.826   4.133  18.012  0.00  0.00    +0.000 OA
ATOM     26  N   UNL     1       4.819   5.274  17.644  0.00  0.00    +0.000 N 
ATOM     27  H   UNL     1       5.554   5.852  18.055  0.00  0.00    +0.000 HD
BRANCH  26  28
ATOM     28  N   UNL     1       4.995   4.767  16.392  0.00  0.00    +0.000 NA
ATOM     29  C   UNL     1       6.052   5.175  15.770  0.00  0.00    +0.000 C 
BRANCH  29  30
ATOM     30  C   UNL     1       6.346   4.743  14.396  0.00  0.00    +0.000 A 
ATOM     31  C   UNL     1       7.444   5.283  13.718  0.00  0.00    +0.000 A 
ATOM     32  C   UNL     1       7.734   4.863  12.421  0.00  0.00    +0.000 A 
ATOM     33  C   UNL     1       6.931   3.905  11.801  0.00  0.00    +0.000 A 
ATOM     34  C   UNL     1       5.832   3.371  12.481  0.00  0.00    +0.000 A 
ATOM     35  C   UNL     1       5.534   3.794  13.777  0.00  0.00    +0.000 A 
ENDBRANCH  29  30
ENDBRANCH  26  28
ENDBRANCH  23  24
ENDBRANCH  22  23
ENDBRANCH   4  22
TORSDOF 8
ENDMDL
MODEL 9
REMARK VINA RESULT:      -7.6      1.605      1.784
REMARK  Name = 
REMARK  10 active torsions:
REMARK  status: ('A' for Active; 'I' for Inactive)
REMARK    1  A    between atoms: C_1  and  C_2
REMARK    2  A    between atoms: C_7  and  C_8
REMARK    3  A    between atoms: C_8  and  C_9
REMARK    4  A    between atoms: C_12  and  S_13
REMARK    5  A    between atoms: S_13  and  C_14
REMARK    6  A    between atoms: C_14  and  C_15
REMARK    7  A    between atoms: N_17  and  N_18
REMARK    8  A    between atoms: C_19  and  C_20
REMARK    9  A    between atoms: N_26  and  N_27
REMARK   10  A    between atoms: C_28  and  C_29
REMARK                            x       y       z     vdW  Elec       q    Type
REMARK                         _______ _______ _______ _____ _____    ______ ____
ROOT
ATOM      1  C   UNL     1       2.502   6.857  19.252  0.00  0.00    +0.000 A 
ATOM      2  N   UNL     1       2.985   7.907  18.597  0.00  0.00    +0.000 NA
ATOM      3  N   UNL     1       3.785   7.460  17.571  0.00  0.00    +0.000 NA
ATOM      4  C   UNL     1       3.775   6.147  17.608  0.00  0.00    +0.000 A 
ATOM      5  N   UNL     1       2.954   5.715  18.619  0.00  0.00    +0.000 N 
ENDROOT
BRANCH   5   6
ATOM      6  N   UNL     1       2.951   4.424  19.036  0.00  0.00    +0.000 N 
ATOM      7  C   UNL     1       2.075   3.478  18.588  0.00  0.00    +0.000 C 
ATOM      8  C   UNL     1       2.347   2.109  19.162  0.00  0.00    +0.000 C 
ATOM      9  O   UNL     1       1.171   3.672  17.782  0.00  0.00    +0.000 OA
ATOM     10  H   UNL     1       3.579   4.240  19.817  0.00  0.00    +0.000 HD
ENDBRANCH   5   6
BRANCH   1  11
ATOM     11  C   UNL     1       1.617   6.948  20.457  0.00  0.00    +0.000 C 
BRANCH  11  18
ATOM     12  C   UNL     1      -2.250  11.708  17.676  0.00  0.00    +0.000 C 
ATOM     13  C   UNL     1      -1.319  10.672  18.237  0.00  0.00    +0.000 C 
ATOM     14  O   UNL     1      -0.901   9.754  17.527  0.00  0.00    +0.000 OA
ATOM     15  N   UNL     1      -0.961  10.937  19.545  0.00  0.00    +0.000 N 
ATOM     16  C   UNL     1      -0.163  10.066  20.226  0.00  0.00    +0.000 A 
ATOM     17  N   UNL     1       0.131   8.846  19.885  0.00  0.00    +0.000 NA
ATOM     18  C   UNL     1       1.073   8.316  20.740  0.00  0.00    +0.000 A 
ATOM     19  C   UNL     1       1.424   9.161  21.782  0.00  0.00    +0.000 A 
ATOM     20  S   UNL     1       0.534  10.635  21.667  0.00  0.00    +0.000 S 
ATOM     21  H   UNL     1      -1.170  11.824  19.978  0.00  0.00    +0.000 HD
ENDBRANCH  11  18
ENDBRANCH   1  11
BRANCH   4  22
ATOM     22  S   UNL     1       4.775   5.091  16.664  0.00  0.00    +0.000 S 
BRANCH  22  23
ATOM     23  C   UNL     1       5.898   4.404  17.914  0.00  0.00    +0.000 C 
BRANCH  23  24
ATOM     24  C   UNL     1       6.729   5.478  18.587  0.00  0.00    +0.000 C 
ATOM     25  O   UNL     1       6.883   5.495  19.812  0.00  0.00    +0.000 OA
ATOM     26  N   UNL     1       7.307   6.376  17.702  0.00  0.00    +0.000 N 
ATOM     27  H   UNL     1       7.081   6.339  16.706  0.00  0.00    +0.000 HD
BRANCH  26  28
ATOM     28  N   UNL     1       8.071   7.401  18.173  0.00  0.00    +0.000 NA
ATOM     29  C   UNL     1       7.651   8.588  17.877  0.00  0.00    +0.000 C 
BRANCH  29  30
ATOM     30  C   UNL     1       8.399   9.786  18.283  0.00  0.00    +0.000 A 
ATOM     31  C   UNL     1       9.180   9.758  19.443  0.00  0.00    +0.000 A 
ATOM     32  C   UNL     1       9.902  10.888  19.822  0.00  0.00    +0.000 A 
ATOM     33  C   UNL     1       9.847  12.044  19.044  0.00  0.00    +0.000 A 
ATOM     34  C   UNL     1       9.063  12.070  17.887  0.00  0.00    +0.000 A 
ATOM     35  C   UNL     1       8.332  10.944  17.508  0.00  0.00    +0.000 A 
ENDBRANCH  29  30
ENDBRANCH  26  28
ENDBRANCH  23  24
ENDBRANCH  22  23
ENDBRANCH   4  22
TORSDOF 8
ENDMDL
