MODEL 1
REMARK VINA RESULT:      -8.0      0.000      0.000
REMARK  Name = 
REMARK  5 active torsions:
REMARK  status: ('A' for Active; 'I' for Inactive)
REMARK    1  A    between atoms: C_1  and  N_2
REMARK    2  A    between atoms: C_6  and  C_7
REMARK    3  A    between atoms: C_7  and  C_8
REMARK    4  A    between atoms: C_8  and  N_9
REMARK    5  A    between atoms: C_10  and  C_12
REMARK                            x       y       z     vdW  Elec       q    Type
REMARK                         _______ _______ _______ _____ _____    ______ ____
ROOT
ATOM      1  N   UNL     1       2.161   7.034  20.537  0.00  0.00    +0.000 N 
ATOM      2  C   UNL     1       2.681   6.825  19.274  0.00  0.00    +0.000 C 
ATOM      3  O   UNL     1       2.466   7.556  18.320  0.00  0.00    +0.000 OA
ATOM      4  H   UNL     1       2.108   6.208  21.130  0.00  0.00    +0.000 HD
ENDROOT
BRANCH   2   5
ATOM      5  C   UNL     1       3.540   5.570  19.118  0.00  0.00    +0.000 A 
ATOM      6  N   UNL     1       4.831   5.732  19.171  0.00  0.00    +0.000 NA
ATOM      7  C   UNL     1       5.665   4.647  19.094  0.00  0.00    +0.000 A 
ATOM      8  O   UNL     1       6.887   4.753  19.127  0.00  0.00    +0.000 OA
ATOM      9  N   UNL     1       5.118   3.393  18.989  0.00  0.00    +0.000 N 
ATOM     10  C   UNL     1       3.748   3.164  18.908  0.00  0.00    +0.000 A 
ATOM     11  C   UNL     1       3.255   1.864  18.785  0.00  0.00    +0.000 A 
ATOM     12  C   UNL     1       1.878   1.658  18.690  0.00  0.00    +0.000 A 
ATOM     13  C   UNL     1       1.008   2.747  18.694  0.00  0.00    +0.000 A 
ATOM     14  C   UNL     1       1.510   4.046  18.810  0.00  0.00    +0.000 A 
ATOM     15  C   UNL     1       2.886   4.254  18.940  0.00  0.00    +0.000 A 
ATOM     16  H   UNL     1       5.782   2.633  18.956  0.00  0.00    +0.000 HD
ENDBRANCH   2   5
BRANCH   1  17
ATOM     17  C   UNL     1       1.246   8.144  20.726  0.00  0.00    +0.000 C 
BRANCH  17  18
ATOM     18  C   UNL     1       1.470   8.973  21.990  0.00  0.00    +0.000 C 
BRANCH  18  24
ATOM     19  C   UNL     1       1.024  11.740  20.582  0.00  0.00    +0.000 C 
ATOM     20  N   UNL     1       0.208  11.158  21.624  0.00  0.00    +0.000 N 
ATOM     21  N   UNL     1      -0.842  11.862  22.086  0.00  0.00    +0.000 NA
ATOM     22  C   UNL     1      -1.354  11.090  23.044  0.00  0.00    +0.000 A 
ATOM     23  C   UNL     1      -0.639   9.893  23.200  0.00  0.00    +0.000 A 
ATOM     24  C   UNL     1       0.374   9.951  22.265  0.00  0.00    +0.000 A 
ENDBRANCH  18  24
ENDBRANCH  17  18
ENDBRANCH   1  17
TORSDOF 4
ENDMDL
MODEL 2
REMARK VINA RESULT:      -8.0      5.399      7.274
REMARK  Name = 
REMARK  5 active torsions:
REMARK  status: ('A' for Active; 'I' for Inactive)
REMARK    1  A    between atoms: C_1  and  N_2
REMARK    2  A    between atoms: C_6  and  C_7
REMARK    3  A    between atoms: C_7  and  C_8
REMARK    4  A    between atoms: C_8  and  N_9
REMARK    5  A    between atoms: C_10  and  C_12
REMARK                            x       y       z     vdW  Elec       q    Type
REMARK                         _______ _______ _______ _____ _____    ______ ____
ROOT
ATOM      1  N   UNL     1       7.806   8.091  17.739  0.00  0.00    +0.000 N 
ATOM      2  C   UNL     1       7.640   6.766  18.095  0.00  0.00    +0.000 C 
ATOM      3  O   UNL     1       8.125   6.264  19.097  0.00  0.00    +0.000 OA
ATOM      4  H   UNL     1       7.674   8.297  16.751  0.00  0.00    +0.000 HD
ENDROOT
BRANCH   2   5
ATOM      5  C   UNL     1       6.818   5.923  17.119  0.00  0.00    +0.000 A 
ATOM      6  N   UNL     1       7.308   5.764  15.924  0.00  0.00    +0.000 NA
ATOM      7  C   UNL     1       6.656   4.976  15.011  0.00  0.00    +0.000 A 
ATOM      8  O   UNL     1       7.074   4.807  13.870  0.00  0.00    +0.000 OA
ATOM      9  N   UNL     1       5.500   4.340  15.388  0.00  0.00    +0.000 N 
ATOM     10  C   UNL     1       4.921   4.491  16.643  0.00  0.00    +0.000 A 
ATOM     11  C   UNL     1       3.733   3.829  16.959  0.00  0.00    +0.000 A 
ATOM     12  C   UNL     1       3.162   4.006  18.219  0.00  0.00    +0.000 A 
ATOM     13  C   UNL     1       3.765   4.857  19.144  0.00  0.00    +0.000 A 
ATOM     14  C   UNL     1       4.949   5.522  18.819  0.00  0.00    +0.000 A 
ATOM     15  C   UNL     1       5.543   5.320  17.569  0.00  0.00    +0.000 A 
ATOM     16  H   UNL     1       5.076   3.759  14.678  0.00  0.00    +0.000 HD
ENDBRANCH   2   5
BRANCH   1  17
ATOM     17  C   UNL     1       8.668   8.918  18.561  0.00  0.00    +0.000 C 
BRANCH  17  18
ATOM     18  C   UNL     1       8.692  10.404  18.202  0.00  0.00    +0.000 C 
BRANCH  18  24
ATOM     19  C   UNL     1       9.237  11.434  21.115  0.00  0.00    +0.000 C 
ATOM     20  N   UNL     1      10.119  11.552  19.976  0.00  0.00    +0.000 N 
ATOM     21  N   UNL     1      11.291  12.194  20.136  0.00  0.00    +0.000 NA
ATOM     22  C   UNL     1      11.844  12.169  18.923  0.00  0.00    +0.000 A 
ATOM     23  C   UNL     1      11.032  11.514  17.984  0.00  0.00    +0.000 A 
ATOM     24  C   UNL     1       9.914  11.115  18.687  0.00  0.00    +0.000 A 
ENDBRANCH  18  24
ENDBRANCH  17  18
ENDBRANCH   1  17
TORSDOF 4
ENDMDL
MODEL 3
REMARK VINA RESULT:      -7.8      5.542      7.062
REMARK  Name = 
REMARK  5 active torsions:
REMARK  status: ('A' for Active; 'I' for Inactive)
REMARK    1  A    between atoms: C_1  and  N_2
REMARK    2  A    between atoms: C_6  and  C_7
REMARK    3  A    between atoms: C_7  and  C_8
REMARK    4  A    between atoms: C_8  and  N_9
REMARK    5  A    between atoms: C_10  and  C_12
REMARK                            x       y       z     vdW  Elec       q    Type
REMARK                         _______ _______ _______ _____ _____    ______ ____
ROOT
ATOM      1  N   UNL     1       7.829   8.200  17.789  0.00  0.00    +0.000 N 
ATOM      2  C   UNL     1       7.710   6.861  18.105  0.00  0.00    +0.000 C 
ATOM      3  O   UNL     1       8.220   6.345  19.088  0.00  0.00    +0.000 OA
ATOM      4  H   UNL     1       7.682   8.433  16.809  0.00  0.00    +0.000 HD
ENDROOT
BRANCH   2   5
ATOM      5  C   UNL     1       6.909   6.021  17.109  0.00  0.00    +0.000 A 
ATOM      6  N   UNL     1       7.393   5.919  15.905  0.00  0.00    +0.000 NA
ATOM      7  C   UNL     1       6.761   5.138  14.972  0.00  0.00    +0.000 A 
ATOM      8  O   UNL     1       7.173   5.023  13.822  0.00  0.00    +0.000 OA
ATOM      9  N   UNL     1       5.632   4.449  15.337  0.00  0.00    +0.000 N 
ATOM     10  C   UNL     1       5.060   4.537  16.602  0.00  0.00    +0.000 A 
ATOM     11  C   UNL     1       3.900   3.823  16.905  0.00  0.00    +0.000 A 
ATOM     12  C   UNL     1       3.335   3.937  18.176  0.00  0.00    +0.000 A 
ATOM     13  C   UNL     1       3.916   4.779  19.124  0.00  0.00    +0.000 A 
ATOM     14  C   UNL     1       5.073   5.497  18.810  0.00  0.00    +0.000 A 
ATOM     15  C   UNL     1       5.661   5.357  17.550  0.00  0.00    +0.000 A 
ATOM     16  H   UNL     1       5.222   3.877  14.612  0.00  0.00    +0.000 HD
ENDBRANCH   2   5
BRANCH   1  17
ATOM     17  C   UNL     1       8.669   9.030  18.632  0.00  0.00    +0.000 C 
BRANCH  17  18
ATOM     18  C   UNL     1       8.954  10.435  18.098  0.00  0.00    +0.000 C 
BRANCH  18  24
ATOM     19  C   UNL     1      10.450  13.134  17.539  0.00  0.00    +0.000 C 
ATOM     20  N   UNL     1      10.211  12.527  18.829  0.00  0.00    +0.000 N 
ATOM     21  N   UNL     1      10.697  13.139  19.926  0.00  0.00    +0.000 NA
ATOM     22  C   UNL     1      10.354  12.330  20.928  0.00  0.00    +0.000 A 
ATOM     23  C   UNL     1       9.650  11.201  20.481  0.00  0.00    +0.000 A 
ATOM     24  C   UNL     1       9.563  11.347  19.112  0.00  0.00    +0.000 A 
ENDBRANCH  18  24
ENDBRANCH  17  18
ENDBRANCH   1  17
TORSDOF 4
ENDMDL
MODEL 4
REMARK VINA RESULT:      -7.8      3.566      5.829
REMARK  Name = 
REMARK  5 active torsions:
REMARK  status: ('A' for Active; 'I' for Inactive)
REMARK    1  A    between atoms: C_1  and  N_2
REMARK    2  A    between atoms: C_6  and  C_7
REMARK    3  A    between atoms: C_7  and  C_8
REMARK    4  A    between atoms: C_8  and  N_9
REMARK    5  A    between atoms: C_10  and  C_12
REMARK                            x       y       z     vdW  Elec       q    Type
REMARK                         _______ _______ _______ _____ _____    ______ ____
ROOT
ATOM      1  N   UNL     1       3.263   5.647  20.155  0.00  0.00    +0.000 N 
ATOM      2  C   UNL     1       3.774   6.068  18.943  0.00  0.00    +0.000 C 
ATOM      3  O   UNL     1       3.138   6.709  18.121  0.00  0.00    +0.000 OA
ATOM      4  H   UNL     1       3.737   4.850  20.576  0.00  0.00    +0.000 HD
ENDROOT
BRANCH   2   5
ATOM      5  C   UNL     1       5.216   5.647  18.658  0.00  0.00    +0.000 A 
ATOM      6  N   UNL     1       6.041   5.657  19.665  0.00  0.00    +0.000 NA
ATOM      7  C   UNL     1       7.336   5.239  19.499  0.00  0.00    +0.000 A 
ATOM      8  O   UNL     1       8.151   5.244  20.415  0.00  0.00    +0.000 OA
ATOM      9  N   UNL     1       7.736   4.788  18.266  0.00  0.00    +0.000 N 
ATOM     10  C   UNL     1       6.904   4.775  17.152  0.00  0.00    +0.000 A 
ATOM     11  C   UNL     1       7.378   4.319  15.921  0.00  0.00    +0.000 A 
ATOM     12  C   UNL     1       6.530   4.328  14.812  0.00  0.00    +0.000 A 
ATOM     13  C   UNL     1       5.229   4.813  14.934  0.00  0.00    +0.000 A 
ATOM     14  C   UNL     1       4.764   5.275  16.168  0.00  0.00    +0.000 A 
ATOM     15  C   UNL     1       5.600   5.235  17.288  0.00  0.00    +0.000 A 
ATOM     16  H   UNL     1       8.696   4.476  18.211  0.00  0.00    +0.000 HD
ENDBRANCH   2   5
BRANCH   1  17
ATOM     17  C   UNL     1       1.866   5.915  20.440  0.00  0.00    +0.000 C 
BRANCH  17  18
ATOM     18  C   UNL     1       0.933   4.706  20.358  0.00  0.00    +0.000 C 
BRANCH  18  24
ATOM     19  C   UNL     1       2.668   2.323  21.430  0.00  0.00    +0.000 C 
ATOM     20  N   UNL     1       2.248   2.543  20.064  0.00  0.00    +0.000 N 
ATOM     21  N   UNL     1       2.654   1.673  19.120  0.00  0.00    +0.000 NA
ATOM     22  C   UNL     1       2.147   2.161  17.988  0.00  0.00    +0.000 A 
ATOM     23  C   UNL     1       1.418   3.342  18.200  0.00  0.00    +0.000 A 
ATOM     24  C   UNL     1       1.492   3.575  19.558  0.00  0.00    +0.000 A 
ENDBRANCH  18  24
ENDBRANCH  17  18
ENDBRANCH   1  17
TORSDOF 4
ENDMDL
MODEL 5
REMARK VINA RESULT:      -7.5      2.011      2.361
REMARK  Name = 
REMARK  5 active torsions:
REMARK  status: ('A' for Active; 'I' for Inactive)
REMARK    1  A    between atoms: C_1  and  N_2
REMARK    2  A    between atoms: C_6  and  C_7
REMARK    3  A    between atoms: C_7  and  C_8
REMARK    4  A    between atoms: C_8  and  N_9
REMARK    5  A    between atoms: C_10  and  C_12
REMARK                            x       y       z     vdW  Elec       q    Type
REMARK                         _______ _______ _______ _____ _____    ______ ____
ROOT
ATOM      1  N   UNL     1       2.977   7.742  17.864  0.00  0.00    +0.000 N 
ATOM      2  C   UNL     1       2.901   6.924  18.974  0.00  0.00    +0.000 C 
ATOM      3  O   UNL     1       2.284   7.208  19.990  0.00  0.00    +0.000 OA
ATOM      4  H   UNL     1       3.776   7.578  17.255  0.00  0.00    +0.000 HD
ENDROOT
BRANCH   2   5
ATOM      5  C   UNL     1       3.685   5.614  18.878  0.00  0.00    +0.000 A 
ATOM      6  N   UNL     1       4.983   5.704  18.898  0.00  0.00    +0.000 NA
ATOM      7  C   UNL     1       5.753   4.570  18.871  0.00  0.00    +0.000 A 
ATOM      8  O   UNL     1       6.979   4.606  18.876  0.00  0.00    +0.000 OA
ATOM      9  N   UNL     1       5.133   3.346  18.851  0.00  0.00    +0.000 N 
ATOM     10  C   UNL     1       3.751   3.192  18.807  0.00  0.00    +0.000 A 
ATOM     11  C   UNL     1       3.182   1.918  18.771  0.00  0.00    +0.000 A 
ATOM     12  C   UNL     1       1.794   1.786  18.713  0.00  0.00    +0.000 A 
ATOM     13  C   UNL     1       0.988   2.923  18.668  0.00  0.00    +0.000 A 
ATOM     14  C   UNL     1       1.565   4.195  18.697  0.00  0.00    +0.000 A 
ATOM     15  C   UNL     1       2.953   4.330  18.790  0.00  0.00    +0.000 A 
ATOM     16  H   UNL     1       5.752   2.548  18.851  0.00  0.00    +0.000 HD
ENDBRANCH   2   5
BRANCH   1  17
ATOM     17  C   UNL     1       2.350   9.049  17.933  0.00  0.00    +0.000 C 
BRANCH  17  18
ATOM     18  C   UNL     1       0.851   9.076  17.633  0.00  0.00    +0.000 C 
BRANCH  18  24
ATOM     19  C   UNL     1      -2.023  10.234  17.147  0.00  0.00    +0.000 C 
ATOM     20  N   UNL     1      -1.189  10.446  18.309  0.00  0.00    +0.000 N 
ATOM     21  N   UNL     1      -1.647  11.246  19.290  0.00  0.00    +0.000 NA
ATOM     22  C   UNL     1      -0.654  11.270  20.179  0.00  0.00    +0.000 A 
ATOM     23  C   UNL     1       0.440  10.491  19.774  0.00  0.00    +0.000 A 
ATOM     24  C   UNL     1       0.074   9.958  18.555  0.00  0.00    +0.000 A 
ENDBRANCH  18  24
ENDBRANCH  17  18
ENDBRANCH   1  17
TORSDOF 4
ENDMDL
MODEL 6
REMARK VINA RESULT:      -7.5      3.880      8.187
REMARK  Name = 
REMARK  5 active torsions:
REMARK  status: ('A' for Active; 'I' for Inactive)
REMARK    1  A    between atoms: C_1  and  N_2
REMARK    2  A    between atoms: C_6  and  C_7
REMARK    3  A    between atoms: C_7  and  C_8
REMARK    4  A    between atoms: C_8  and  N_9
REMARK    5  A    between atoms: C_10  and  C_12
REMARK                            x       y       z     vdW  Elec       q    Type
REMARK                         _______ _______ _______ _____ _____    ______ ____
ROOT
ATOM      1  N   UNL     1       5.894   4.709  17.840  0.00  0.00    +0.000 N 
ATOM      2  C   UNL     1       4.652   4.105  17.860  0.00  0.00    +0.000 C 
ATOM      3  O   UNL     1       4.299   3.247  17.066  0.00  0.00    +0.000 OA
ATOM      4  H   UNL     1       5.945   5.620  18.291  0.00  0.00    +0.000 HD
ENDROOT
BRANCH   2   5
ATOM      5  C   UNL     1       3.695   4.609  18.941  0.00  0.00    +0.000 A 
ATOM      6  N   UNL     1       3.440   3.795  19.925  0.00  0.00    +0.000 NA
ATOM      7  C   UNL     1       2.635   4.196  20.960  0.00  0.00    +0.000 A 
ATOM      8  O   UNL     1       2.357   3.460  21.900  0.00  0.00    +0.000 OA
ATOM      9  N   UNL     1       2.130   5.472  20.953  0.00  0.00    +0.000 N 
ATOM     10  C   UNL     1       2.353   6.375  19.919  0.00  0.00    +0.000 A 
ATOM     11  C   UNL     1       1.796   7.654  19.965  0.00  0.00    +0.000 A 
ATOM     12  C   UNL     1       2.021   8.539  18.910  0.00  0.00    +0.000 A 
ATOM     13  C   UNL     1       2.777   8.136  17.811  0.00  0.00    +0.000 A 
ATOM     14  C   UNL     1       3.325   6.851  17.768  0.00  0.00    +0.000 A 
ATOM     15  C   UNL     1       3.131   5.974  18.839  0.00  0.00    +0.000 A 
ATOM     16  H   UNL     1       1.560   5.715  21.751  0.00  0.00    +0.000 HD
ENDBRANCH   2   5
BRANCH   1  17
ATOM     17  C   UNL     1       6.809   4.358  16.770  0.00  0.00    +0.000 C 
BRANCH  17  18
ATOM     18  C   UNL     1       6.817   5.309  15.573  0.00  0.00    +0.000 C 
BRANCH  18  24
ATOM     19  C   UNL     1       8.469   5.785  12.949  0.00  0.00    +0.000 C 
ATOM     20  N   UNL     1       7.379   4.852  13.129  0.00  0.00    +0.000 N 
ATOM     21  N   UNL     1       6.981   4.119  12.072  0.00  0.00    +0.000 NA
ATOM     22  C   UNL     1       5.957   3.404  12.540  0.00  0.00    +0.000 A 
ATOM     23  C   UNL     1       5.695   3.675  13.892  0.00  0.00    +0.000 A 
ATOM     24  C   UNL     1       6.632   4.619  14.261  0.00  0.00    +0.000 A 
ENDBRANCH  18  24
ENDBRANCH  17  18
ENDBRANCH   1  17
TORSDOF 4
ENDMDL
MODEL 7
REMARK VINA RESULT:      -7.5      1.477      1.930
REMARK  Name = 
REMARK  5 active torsions:
REMARK  status: ('A' for Active; 'I' for Inactive)
REMARK    1  A    between atoms: C_1  and  N_2
REMARK    2  A    between atoms: C_6  and  C_7
REMARK    3  A    between atoms: C_7  and  C_8
REMARK    4  A    between atoms: C_8  and  N_9
REMARK    5  A    between atoms: C_10  and  C_12
REMARK                            x       y       z     vdW  Elec       q    Type
REMARK                         _______ _______ _______ _____ _____    ______ ____
ROOT
ATOM      1  N   UNL     1       2.932   7.805  18.315  0.00  0.00    +0.000 N 
ATOM      2  C   UNL     1       3.764   7.168  17.414  0.00  0.00    +0.000 C 
ATOM      3  O   UNL     1       4.016   7.598  16.299  0.00  0.00    +0.000 OA
ATOM      4  H   UNL     1       2.524   7.207  19.031  0.00  0.00    +0.000 HD
ENDROOT
BRANCH   2   5
ATOM      5  C   UNL     1       4.346   5.835  17.888  0.00  0.00    +0.000 A 
ATOM      6  N   UNL     1       5.633   5.791  18.077  0.00  0.00    +0.000 NA
ATOM      7  C   UNL     1       6.220   4.648  18.554  0.00  0.00    +0.000 A 
ATOM      8  O   UNL     1       7.430   4.556  18.737  0.00  0.00    +0.000 OA
ATOM      9  N   UNL     1       5.428   3.568  18.851  0.00  0.00    +0.000 N 
ATOM     10  C   UNL     1       4.052   3.553  18.648  0.00  0.00    +0.000 A 
ATOM     11  C   UNL     1       3.304   2.415  18.955  0.00  0.00    +0.000 A 
ATOM     12  C   UNL     1       1.927   2.416  18.729  0.00  0.00    +0.000 A 
ATOM     13  C   UNL     1       1.312   3.540  18.180  0.00  0.00    +0.000 A 
ATOM     14  C   UNL     1       2.068   4.673  17.867  0.00  0.00    +0.000 A 
ATOM     15  C   UNL     1       3.442   4.687  18.125  0.00  0.00    +0.000 A 
ATOM     16  H   UNL     1       5.915   2.762  19.216  0.00  0.00    +0.000 HD
ENDBRANCH   2   5
BRANCH   1  17
ATOM     17  C   UNL     1       2.258   9.016  17.886  0.00  0.00    +0.000 C 
BRANCH  17  18
ATOM     18  C   UNL     1       0.874   9.249  18.494  0.00  0.00    +0.000 C 
BRANCH  18  24
ATOM     19  C   UNL     1       1.050  11.986  20.016  0.00  0.00    +0.000 C 
ATOM     20  N   UNL     1       0.975  10.670  20.608  0.00  0.00    +0.000 N 
ATOM     21  N   UNL     1       1.015  10.567  21.950  0.00  0.00    +0.000 NA
ATOM     22  C   UNL     1       0.967   9.254  22.176  0.00  0.00    +0.000 A 
ATOM     23  C   UNL     1       0.896   8.513  20.987  0.00  0.00    +0.000 A 
ATOM     24  C   UNL     1       0.899   9.451  19.975  0.00  0.00    +0.000 A 
ENDBRANCH  18  24
ENDBRANCH  17  18
ENDBRANCH   1  17
TORSDOF 4
ENDMDL
MODEL 8
REMARK VINA RESULT:      -7.4      0.476      1.322
REMARK  Name = 
REMARK  5 active torsions:
REMARK  status: ('A' for Active; 'I' for Inactive)
REMARK    1  A    between atoms: C_1  and  N_2
REMARK    2  A    between atoms: C_6  and  C_7
REMARK    3  A    between atoms: C_7  and  C_8
REMARK    4  A    between atoms: C_8  and  N_9
REMARK    5  A    between atoms: C_10  and  C_12
REMARK                            x       y       z     vdW  Elec       q    Type
REMARK                         _______ _______ _______ _____ _____    ______ ____
ROOT
ATOM      1  N   UNL     1       2.203   7.243  20.213  0.00  0.00    +0.000 N 
ATOM      2  C   UNL     1       2.730   6.901  18.983  0.00  0.00    +0.000 C 
ATOM      3  O   UNL     1       2.520   7.525  17.954  0.00  0.00    +0.000 OA
ATOM      4  H   UNL     1       2.147   6.485  20.891  0.00  0.00    +0.000 HD
ENDROOT
BRANCH   2   5
ATOM      5  C   UNL     1       3.592   5.637  18.968  0.00  0.00    +0.000 A 
ATOM      6  N   UNL     1       4.878   5.803  19.081  0.00  0.00    +0.000 NA
ATOM      7  C   UNL     1       5.711   4.715  19.130  0.00  0.00    +0.000 A 
ATOM      8  O   UNL     1       6.929   4.823  19.224  0.00  0.00    +0.000 OA
ATOM      9  N   UNL     1       5.165   3.457  19.086  0.00  0.00    +0.000 N 
ATOM     10  C   UNL     1       3.801   3.222  18.945  0.00  0.00    +0.000 A 
ATOM     11  C   UNL     1       3.309   1.917  18.889  0.00  0.00    +0.000 A 
ATOM     12  C   UNL     1       1.940   1.705  18.732  0.00  0.00    +0.000 A 
ATOM     13  C   UNL     1       1.075   2.792  18.609  0.00  0.00    +0.000 A 
ATOM     14  C   UNL     1       1.575   4.096  18.657  0.00  0.00    +0.000 A 
ATOM     15  C   UNL     1       2.943   4.312  18.849  0.00  0.00    +0.000 A 
ATOM     16  H   UNL     1       5.827   2.696  19.146  0.00  0.00    +0.000 HD
ENDBRANCH   2   5
BRANCH   1  17
ATOM     17  C   UNL     1       1.286   8.365  20.277  0.00  0.00    +0.000 C 
BRANCH  17  18
ATOM     18  C   UNL     1       1.289   9.144  21.593  0.00  0.00    +0.000 C 
BRANCH  18  24
ATOM     19  C   UNL     1      -1.076  10.410  23.219  0.00  0.00    +0.000 C 
ATOM     20  N   UNL     1      -0.283  11.057  22.199  0.00  0.00    +0.000 N 
ATOM     21  N   UNL     1      -0.584  12.325  21.861  0.00  0.00    +0.000 NA
ATOM     22  C   UNL     1       0.281  12.616  20.889  0.00  0.00    +0.000 A 
ATOM     23  C   UNL     1       1.136  11.541  20.600  0.00  0.00    +0.000 A 
ATOM     24  C   UNL     1       0.757  10.535  21.465  0.00  0.00    +0.000 A 
ENDBRANCH  18  24
ENDBRANCH  17  18
ENDBRANCH   1  17
TORSDOF 4
ENDMDL
MODEL 9
REMARK VINA RESULT:      -7.4      3.905      6.260
REMARK  Name = 
REMARK  5 active torsions:
REMARK  status: ('A' for Active; 'I' for Inactive)
REMARK    1  A    between atoms: C_1  and  N_2
REMARK    2  A    between atoms: C_6  and  C_7
REMARK    3  A    between atoms: C_7  and  C_8
REMARK    4  A    between atoms: C_8  and  N_9
REMARK    5  A    between atoms: C_10  and  C_12
REMARK                            x       y       z     vdW  Elec       q    Type
REMARK                         _______ _______ _______ _____ _____    ______ ____
ROOT
ATOM      1  N   UNL     1       3.800   5.861  19.555  0.00  0.00    +0.000 N 
ATOM      2  C   UNL     1       3.780   6.486  18.323  0.00  0.00    +0.000 C 
ATOM      3  O   UNL     1       2.770   6.936  17.804  0.00  0.00    +0.000 OA
ATOM      4  H   UNL     1       4.586   5.232  19.713  0.00  0.00    +0.000 HD
ENDROOT
BRANCH   2   5
ATOM      5  C   UNL     1       5.127   6.556  17.601  0.00  0.00    +0.000 A 
ATOM      6  N   UNL     1       5.947   7.494  17.979  0.00  0.00    +0.000 NA
ATOM      7  C   UNL     1       7.194   7.586  17.417  0.00  0.00    +0.000 A 
ATOM      8  O   UNL     1       7.995   8.460  17.733  0.00  0.00    +0.000 OA
ATOM      9  N   UNL     1       7.569   6.661  16.475  0.00  0.00    +0.000 N 
ATOM     10  C   UNL     1       6.726   5.652  16.020  0.00  0.00    +0.000 A 
ATOM     11  C   UNL     1       7.162   4.752  15.046  0.00  0.00    +0.000 A 
ATOM     12  C   UNL     1       6.296   3.757  14.593  0.00  0.00    +0.000 A 
ATOM     13  C   UNL     1       4.998   3.682  15.095  0.00  0.00    +0.000 A 
ATOM     14  C   UNL     1       4.565   4.592  16.063  0.00  0.00    +0.000 A 
ATOM     15  C   UNL     1       5.442   5.568  16.545  0.00  0.00    +0.000 A 
ATOM     16  H   UNL     1       8.505   6.770  16.112  0.00  0.00    +0.000 HD
ENDBRANCH   2   5
BRANCH   1  17
ATOM     17  C   UNL     1       2.538   5.660  20.241  0.00  0.00    +0.000 C 
BRANCH  17  18
ATOM     18  C   UNL     1       2.201   4.210  20.588  0.00  0.00    +0.000 C 
BRANCH  18  24
ATOM     19  C   UNL     1       4.545   2.144  20.316  0.00  0.00    +0.000 C 
ATOM     20  N   UNL     1       3.470   2.361  19.375  0.00  0.00    +0.000 N 
ATOM     21  N   UNL     1       3.459   1.644  18.236  0.00  0.00    +0.000 NA
ATOM     22  C   UNL     1       2.390   2.094  17.579  0.00  0.00    +0.000 A 
ATOM     23  C   UNL     1       1.714   3.097  18.291  0.00  0.00    +0.000 A 
ATOM     24  C   UNL     1       2.429   3.257  19.460  0.00  0.00    +0.000 A 
ENDBRANCH  18  24
ENDBRANCH  17  18
ENDBRANCH   1  17
TORSDOF 4
ENDMDL
