MODEL 1
REMARK VINA RESULT:      -7.4      0.000      0.000
REMARK  Name = 
REMARK  12 active torsions:
REMARK  status: ('A' for Active; 'I' for Inactive)
REMARK    1  A    between atoms: C_1  and  O_2
REMARK    2  A    between atoms: O_2  and  C_3
REMARK    3  A    between atoms: C_3  and  C_5
REMARK    4  A    between atoms: C_5  and  O_6
REMARK    5  A    between atoms: C_8  and  O_9
REMARK    6  A    between atoms: C_10  and  O_11
REMARK    7  A    between atoms: C_12  and  O_13
REMARK    8  A    between atoms: O_13  and  C_14
REMARK    9  A    between atoms: C_14  and  C_16
REMARK   10  A    between atoms: C_17  and  C_18
REMARK   11  A    between atoms: C_21  and  O_22
REMARK   12  A    between atoms: C_23  and  O_24
REMARK                            x       y       z     vdW  Elec       q    Type
REMARK                         _______ _______ _______ _____ _____    ______ ____
ROOT
ATOM      1  C   UNL     1       3.383   4.973  19.503  0.00  0.00    +0.000 C 
ATOM      2  C   UNL     1       3.531   3.533  18.994  0.00  0.00    +0.000 C 
ATOM      3  C   UNL     1       4.398   3.405  17.743  0.00  0.00    +0.000 C 
ATOM      4  C   UNL     1       5.753   4.115  17.888  0.00  0.00    +0.000 C 
ATOM      5  C   UNL     1       5.578   5.580  18.317  0.00  0.00    +0.000 C 
ATOM      6  C   UNL     1       4.742   5.682  19.596  0.00  0.00    +0.000 C 
ENDROOT
BRANCH   1   7
ATOM      7  C   UNL     1       2.399   5.749  18.597  0.00  0.00    +0.000 C 
ATOM      8  O   UNL     1       1.679   5.230  17.755  0.00  0.00    +0.000 OA
BRANCH   7  10
ATOM      9  C   UNL     1       2.525   7.968  17.829  0.00  0.00    +0.000 C 
ATOM     10  O   UNL     1       2.384   7.072  18.934  0.00  0.00    +0.000 OA
ENDBRANCH   7  10
ENDBRANCH   1   7
BRANCH   1  11
ATOM     11  O   UNL     1       2.865   4.909  20.841  0.00  0.00    +0.000 OA
ATOM     12  H   UNL     1       1.927   5.181  20.794  0.00  0.00    +0.000 HD
ENDBRANCH   1  11
BRANCH   3  13
ATOM     13  O   UNL     1       3.703   3.873  16.580  0.00  0.00    +0.000 OA
ATOM     14  H   UNL     1       3.996   3.402  15.773  0.00  0.00    +0.000 HD
ENDBRANCH   3  13
BRANCH   4  15
ATOM     15  O   UNL     1       6.454   4.047  16.640  0.00  0.00    +0.000 OA
ATOM     16  H   UNL     1       7.256   4.599  16.736  0.00  0.00    +0.000 HD
ENDBRANCH   4  15
BRANCH   5  17
ATOM     17  O   UNL     1       6.877   6.160  18.578  0.00  0.00    +0.000 OA
BRANCH  17  18
ATOM     18  C   UNL     1       7.277   7.113  17.698  0.00  0.00    +0.000 C 
ATOM     19  O   UNL     1       6.894   7.253  16.547  0.00  0.00    +0.000 OA
BRANCH  18  20
ATOM     20  C   UNL     1       8.264   7.987  18.361  0.00  0.00    +0.000 C 
ATOM     21  C   UNL     1       8.335   9.278  17.997  0.00  0.00    +0.000 C 
BRANCH  21  22
ATOM     22  C   UNL     1       9.272  10.262  18.557  0.00  0.00    +0.000 A 
ATOM     23  C   UNL     1       9.289  10.586  19.923  0.00  0.00    +0.000 A 
ATOM     24  C   UNL     1      10.220  11.498  20.435  0.00  0.00    +0.000 A 
ATOM     25  C   UNL     1      11.145  12.075  19.575  0.00  0.00    +0.000 A 
ATOM     26  C   UNL     1      11.146  11.745  18.223  0.00  0.00    +0.000 A 
ATOM     27  C   UNL     1      10.224  10.843  17.708  0.00  0.00    +0.000 A 
BRANCH  25  28
ATOM     28  O   UNL     1      12.081  12.968  20.015  0.00  0.00    +0.000 OA
ATOM     29  H   UNL     1      12.788  12.469  20.459  0.00  0.00    +0.000 HD
ENDBRANCH  25  28
BRANCH  26  30
ATOM     30  O   UNL     1      12.069  12.307  17.387  0.00  0.00    +0.000 OA
ATOM     31  H   UNL     1      11.535  12.766  16.707  0.00  0.00    +0.000 HD
ENDBRANCH  26  30
ENDBRANCH  21  22
ENDBRANCH  18  20
ENDBRANCH  17  18
ENDBRANCH   5  17
TORSDOF 11
ENDMDL
MODEL 2
REMARK VINA RESULT:      -7.2      1.110      1.113
REMARK  Name = 
REMARK  12 active torsions:
REMARK  status: ('A' for Active; 'I' for Inactive)
REMARK    1  A    between atoms: C_1  and  O_2
REMARK    2  A    between atoms: O_2  and  C_3
REMARK    3  A    between atoms: C_3  and  C_5
REMARK    4  A    between atoms: C_5  and  O_6
REMARK    5  A    between atoms: C_8  and  O_9
REMARK    6  A    between atoms: C_10  and  O_11
REMARK    7  A    between atoms: C_12  and  O_13
REMARK    8  A    between atoms: O_13  and  C_14
REMARK    9  A    between atoms: C_14  and  C_16
REMARK   10  A    between atoms: C_17  and  C_18
REMARK   11  A    between atoms: C_21  and  O_22
REMARK   12  A    between atoms: C_23  and  O_24
REMARK                            x       y       z     vdW  Elec       q    Type
REMARK                         _______ _______ _______ _____ _____    ______ ____
ROOT
ATOM      1  C   UNL     1       3.455   5.268  19.330  0.00  0.00    +0.000 C 
ATOM      2  C   UNL     1       3.651   3.764  19.096  0.00  0.00    +0.000 C 
ATOM      3  C   UNL     1       4.584   3.436  17.931  0.00  0.00    +0.000 C 
ATOM      4  C   UNL     1       5.919   4.193  18.013  0.00  0.00    +0.000 C 
ATOM      5  C   UNL     1       5.700   5.706  18.163  0.00  0.00    +0.000 C 
ATOM      6  C   UNL     1       4.797   6.015  19.361  0.00  0.00    +0.000 C 
ENDROOT
BRANCH   1   7
ATOM      7  C   UNL     1       2.509   5.846  18.253  0.00  0.00    +0.000 C 
ATOM      8  O   UNL     1       1.550   5.249  17.783  0.00  0.00    +0.000 OA
BRANCH   7  10
ATOM      9  C   UNL     1       1.951   8.114  18.526  0.00  0.00    +0.000 C 
ATOM     10  O   UNL     1       2.841   7.140  17.973  0.00  0.00    +0.000 OA
ENDBRANCH   7  10
ENDBRANCH   1   7
BRANCH   1  11
ATOM     11  O   UNL     1       2.869   5.431  20.632  0.00  0.00    +0.000 OA
ATOM     12  H   UNL     1       3.505   5.063  21.276  0.00  0.00    +0.000 HD
ENDBRANCH   1  11
BRANCH   3  13
ATOM     13  O   UNL     1       3.944   3.673  16.671  0.00  0.00    +0.000 OA
ATOM     14  H   UNL     1       3.404   2.905  16.394  0.00  0.00    +0.000 HD
ENDBRANCH   3  13
BRANCH   4  15
ATOM     15  O   UNL     1       6.685   3.920  16.834  0.00  0.00    +0.000 OA
ATOM     16  H   UNL     1       6.933   4.786  16.451  0.00  0.00    +0.000 HD
ENDBRANCH   4  15
BRANCH   5  17
ATOM     17  O   UNL     1       6.975   6.354  18.380  0.00  0.00    +0.000 OA
BRANCH  17  18
ATOM     18  C   UNL     1       7.471   7.034  17.315  0.00  0.00    +0.000 C 
ATOM     19  O   UNL     1       7.744   6.576  16.217  0.00  0.00    +0.000 OA
BRANCH  18  20
ATOM     20  C   UNL     1       7.624   8.454  17.687  0.00  0.00    +0.000 C 
ATOM     21  C   UNL     1       8.708   8.828  18.386  0.00  0.00    +0.000 C 
BRANCH  21  22
ATOM     22  C   UNL     1       8.989  10.197  18.837  0.00  0.00    +0.000 A 
ATOM     23  C   UNL     1       9.386  10.485  20.154  0.00  0.00    +0.000 A 
ATOM     24  C   UNL     1       9.687  11.796  20.545  0.00  0.00    +0.000 A 
ATOM     25  C   UNL     1       9.602  12.817  19.609  0.00  0.00    +0.000 A 
ATOM     26  C   UNL     1       9.227  12.538  18.298  0.00  0.00    +0.000 A 
ATOM     27  C   UNL     1       8.925  11.241  17.904  0.00  0.00    +0.000 A 
BRANCH  25  28
ATOM     28  O   UNL     1       9.887  14.115  19.928  0.00  0.00    +0.000 OA
ATOM     29  H   UNL     1      10.073  14.594  19.102  0.00  0.00    +0.000 HD
ENDBRANCH  25  28
BRANCH  26  30
ATOM     30  O   UNL     1       9.159  13.548  17.380  0.00  0.00    +0.000 OA
ATOM     31  H   UNL     1      10.088  13.833  17.262  0.00  0.00    +0.000 HD
ENDBRANCH  26  30
ENDBRANCH  21  22
ENDBRANCH  18  20
ENDBRANCH  17  18
ENDBRANCH   5  17
TORSDOF 11
ENDMDL
MODEL 3
REMARK VINA RESULT:      -7.2      5.497      9.046
REMARK  Name = 
REMARK  12 active torsions:
REMARK  status: ('A' for Active; 'I' for Inactive)
REMARK    1  A    between atoms: C_1  and  O_2
REMARK    2  A    between atoms: O_2  and  C_3
REMARK    3  A    between atoms: C_3  and  C_5
REMARK    4  A    between atoms: C_5  and  O_6
REMARK    5  A    between atoms: C_8  and  O_9
REMARK    6  A    between atoms: C_10  and  O_11
REMARK    7  A    between atoms: C_12  and  O_13
REMARK    8  A    between atoms: O_13  and  C_14
REMARK    9  A    between atoms: C_14  and  C_16
REMARK   10  A    between atoms: C_17  and  C_18
REMARK   11  A    between atoms: C_21  and  O_22
REMARK   12  A    between atoms: C_23  and  O_24
REMARK                            x       y       z     vdW  Elec       q    Type
REMARK                         _______ _______ _______ _____ _____    ______ ____
ROOT
ATOM      1  C   UNL     1      -0.076  11.996  21.239  0.00  0.00    +0.000 C 
ATOM      2  C   UNL     1      -1.470  12.074  20.603  0.00  0.00    +0.000 C 
ATOM      3  C   UNL     1      -1.500  11.669  19.130  0.00  0.00    +0.000 C 
ATOM      4  C   UNL     1      -0.817  10.317  18.874  0.00  0.00    +0.000 C 
ATOM      5  C   UNL     1       0.609  10.290  19.446  0.00  0.00    +0.000 C 
ATOM      6  C   UNL     1       0.611  10.657  20.933  0.00  0.00    +0.000 C 
ENDROOT
BRANCH   1   7
ATOM      7  C   UNL     1       0.781  13.194  20.769  0.00  0.00    +0.000 C 
ATOM      8  O   UNL     1       0.324  14.240  20.329  0.00  0.00    +0.000 OA
BRANCH   7  10
ATOM      9  C   UNL     1       2.876  14.117  21.306  0.00  0.00    +0.000 C 
ATOM     10  O   UNL     1       2.104  12.952  21.002  0.00  0.00    +0.000 OA
ENDBRANCH   7  10
ENDBRANCH   1   7
BRANCH   1  11
ATOM     11  O   UNL     1      -0.247  12.049  22.665  0.00  0.00    +0.000 OA
ATOM     12  H   UNL     1       0.081  11.199  23.020  0.00  0.00    +0.000 HD
ENDBRANCH   1  11
BRANCH   3  13
ATOM     13  O   UNL     1      -0.931  12.689  18.300  0.00  0.00    +0.000 OA
ATOM     14  H   UNL     1      -1.338  12.695  17.409  0.00  0.00    +0.000 HD
ENDBRANCH   3  13
BRANCH   4  15
ATOM     15  O   UNL     1      -0.787  10.066  17.464  0.00  0.00    +0.000 OA
ATOM     16  H   UNL     1      -0.350   9.199  17.340  0.00  0.00    +0.000 HD
ENDBRANCH   4  15
BRANCH   5  17
ATOM     17  O   UNL     1       1.153   8.957  19.308  0.00  0.00    +0.000 OA
BRANCH  17  18
ATOM     18  C   UNL     1       2.011   8.783  18.270  0.00  0.00    +0.000 C 
ATOM     19  O   UNL     1       2.232   9.570  17.364  0.00  0.00    +0.000 OA
BRANCH  18  20
ATOM     20  C   UNL     1       2.665   7.468  18.411  0.00  0.00    +0.000 C 
ATOM     21  C   UNL     1       1.984   6.363  18.067  0.00  0.00    +0.000 C 
BRANCH  21  22
ATOM     22  C   UNL     1       2.497   4.990  18.164  0.00  0.00    +0.000 A 
ATOM     23  C   UNL     1       1.748   3.879  17.742  0.00  0.00    +0.000 A 
ATOM     24  C   UNL     1       2.279   2.586  17.809  0.00  0.00    +0.000 A 
ATOM     25  C   UNL     1       3.570   2.408  18.287  0.00  0.00    +0.000 A 
ATOM     26  C   UNL     1       4.325   3.505  18.690  0.00  0.00    +0.000 A 
ATOM     27  C   UNL     1       3.804   4.791  18.628  0.00  0.00    +0.000 A 
BRANCH  25  28
ATOM     28  O   UNL     1       4.145   1.171  18.372  0.00  0.00    +0.000 OA
ATOM     29  H   UNL     1       3.690   0.584  17.745  0.00  0.00    +0.000 HD
ENDBRANCH  25  28
BRANCH  26  30
ATOM     30  O   UNL     1       5.600   3.323  19.146  0.00  0.00    +0.000 OA
ATOM     31  H   UNL     1       5.823   4.164  19.594  0.00  0.00    +0.000 HD
ENDBRANCH  26  30
ENDBRANCH  21  22
ENDBRANCH  18  20
ENDBRANCH  17  18
ENDBRANCH   5  17
TORSDOF 11
ENDMDL
MODEL 4
REMARK VINA RESULT:      -7.1      1.027      1.414
REMARK  Name = 
REMARK  12 active torsions:
REMARK  status: ('A' for Active; 'I' for Inactive)
REMARK    1  A    between atoms: C_1  and  O_2
REMARK    2  A    between atoms: O_2  and  C_3
REMARK    3  A    between atoms: C_3  and  C_5
REMARK    4  A    between atoms: C_5  and  O_6
REMARK    5  A    between atoms: C_8  and  O_9
REMARK    6  A    between atoms: C_10  and  O_11
REMARK    7  A    between atoms: C_12  and  O_13
REMARK    8  A    between atoms: O_13  and  C_14
REMARK    9  A    between atoms: C_14  and  C_16
REMARK   10  A    between atoms: C_17  and  C_18
REMARK   11  A    between atoms: C_21  and  O_22
REMARK   12  A    between atoms: C_23  and  O_24
REMARK                            x       y       z     vdW  Elec       q    Type
REMARK                         _______ _______ _______ _____ _____    ______ ____
ROOT
ATOM      1  C   UNL     1       3.417   5.099  19.555  0.00  0.00    +0.000 C 
ATOM      2  C   UNL     1       3.484   3.634  19.107  0.00  0.00    +0.000 C 
ATOM      3  C   UNL     1       4.361   3.402  17.877  0.00  0.00    +0.000 C 
ATOM      4  C   UNL     1       5.755   4.033  18.018  0.00  0.00    +0.000 C 
ATOM      5  C   UNL     1       5.664   5.522  18.385  0.00  0.00    +0.000 C 
ATOM      6  C   UNL     1       4.816   5.728  19.644  0.00  0.00    +0.000 C 
ENDROOT
BRANCH   1   7
ATOM      7  C   UNL     1       2.497   5.896  18.601  0.00  0.00    +0.000 C 
ATOM      8  O   UNL     1       1.761   5.388  17.767  0.00  0.00    +0.000 OA
BRANCH   7  10
ATOM      9  C   UNL     1       2.615   8.081  17.739  0.00  0.00    +0.000 C 
ATOM     10  O   UNL     1       2.557   7.230  18.887  0.00  0.00    +0.000 OA
ENDBRANCH   7  10
ENDBRANCH   1   7
BRANCH   1  11
ATOM     11  O   UNL     1       2.876   5.122  20.886  0.00  0.00    +0.000 OA
ATOM     12  H   UNL     1       2.343   5.939  20.959  0.00  0.00    +0.000 HD
ENDBRANCH   1  11
BRANCH   3  13
ATOM     13  O   UNL     1       3.714   3.863  16.685  0.00  0.00    +0.000 OA
ATOM     14  H   UNL     1       4.209   4.599  16.270  0.00  0.00    +0.000 HD
ENDBRANCH   3  13
BRANCH   4  15
ATOM     15  O   UNL     1       6.469   3.871  16.787  0.00  0.00    +0.000 OA
ATOM     16  H   UNL     1       6.479   4.747  16.349  0.00  0.00    +0.000 HD
ENDBRANCH   4  15
BRANCH   5  17
ATOM     17  O   UNL     1       6.992   6.032  18.645  0.00  0.00    +0.000 OA
BRANCH  17  18
ATOM     18  C   UNL     1       7.528   6.794  17.658  0.00  0.00    +0.000 C 
ATOM     19  O   UNL     1       7.455   6.591  16.456  0.00  0.00    +0.000 OA
BRANCH  18  20
ATOM     20  C   UNL     1       8.222   7.944  18.269  0.00  0.00    +0.000 C 
ATOM     21  C   UNL     1       8.002   9.172  17.775  0.00  0.00    +0.000 C 
BRANCH  21  22
ATOM     22  C   UNL     1       8.629  10.406  18.269  0.00  0.00    +0.000 A 
ATOM     23  C   UNL     1       8.576  11.612  17.552  0.00  0.00    +0.000 A 
ATOM     24  C   UNL     1       9.147  12.782  18.067  0.00  0.00    +0.000 A 
ATOM     25  C   UNL     1       9.761  12.743  19.311  0.00  0.00    +0.000 A 
ATOM     26  C   UNL     1       9.803  11.556  20.036  0.00  0.00    +0.000 A 
ATOM     27  C   UNL     1       9.240  10.392  19.531  0.00  0.00    +0.000 A 
BRANCH  25  28
ATOM     28  O   UNL     1      10.333  13.852  19.870  0.00  0.00    +0.000 OA
ATOM     29  H   UNL     1      11.256  13.901  19.565  0.00  0.00    +0.000 HD
ENDBRANCH  25  28
BRANCH  26  30
ATOM     30  O   UNL     1      10.397  11.531  21.266  0.00  0.00    +0.000 OA
ATOM     31  H   UNL     1      10.392  10.586  21.521  0.00  0.00    +0.000 HD
ENDBRANCH  26  30
ENDBRANCH  21  22
ENDBRANCH  18  20
ENDBRANCH  17  18
ENDBRANCH   5  17
TORSDOF 11
ENDMDL
MODEL 5
REMARK VINA RESULT:      -7.1      2.992      7.277
REMARK  Name = 
REMARK  12 active torsions:
REMARK  status: ('A' for Active; 'I' for Inactive)
REMARK    1  A    between atoms: C_1  and  O_2
REMARK    2  A    between atoms: O_2  and  C_3
REMARK    3  A    between atoms: C_3  and  C_5
REMARK    4  A    between atoms: C_5  and  O_6
REMARK    5  A    between atoms: C_8  and  O_9
REMARK    6  A    between atoms: C_10  and  O_11
REMARK    7  A    between atoms: C_12  and  O_13
REMARK    8  A    between atoms: O_13  and  C_14
REMARK    9  A    between atoms: C_14  and  C_16
REMARK   10  A    between atoms: C_17  and  C_18
REMARK   11  A    between atoms: C_21  and  O_22
REMARK   12  A    between atoms: C_23  and  O_24
REMARK                            x       y       z     vdW  Elec       q    Type
REMARK                         _______ _______ _______ _____ _____    ______ ____
ROOT
ATOM      1  C   UNL     1       5.380   6.328  16.478  0.00  0.00    +0.000 C 
ATOM      2  C   UNL     1       5.848   4.998  15.874  0.00  0.00    +0.000 C 
ATOM      3  C   UNL     1       5.750   3.814  16.834  0.00  0.00    +0.000 C 
ATOM      4  C   UNL     1       4.366   3.700  17.493  0.00  0.00    +0.000 C 
ATOM      5  C   UNL     1       3.953   5.018  18.165  0.00  0.00    +0.000 C 
ATOM      6  C   UNL     1       4.018   6.185  17.174  0.00  0.00    +0.000 C 
ENDROOT
BRANCH   1   7
ATOM      7  C   UNL     1       6.457   6.870  17.446  0.00  0.00    +0.000 C 
ATOM      8  O   UNL     1       6.671   6.420  18.564  0.00  0.00    +0.000 OA
BRANCH   7  10
ATOM      9  C   UNL     1       8.046   8.581  17.725  0.00  0.00    +0.000 C 
ATOM     10  O   UNL     1       7.188   7.853  16.843  0.00  0.00    +0.000 OA
ENDBRANCH   7  10
ENDBRANCH   1   7
BRANCH   1  11
ATOM     11  O   UNL     1       5.188   7.253  15.396  0.00  0.00    +0.000 OA
ATOM     12  H   UNL     1       5.639   6.873  14.617  0.00  0.00    +0.000 HD
ENDBRANCH   1  11
BRANCH   3  13
ATOM     13  O   UNL     1       6.781   3.864  17.827  0.00  0.00    +0.000 OA
ATOM     14  H   UNL     1       6.817   4.741  18.262  0.00  0.00    +0.000 HD
ENDBRANCH   3  13
BRANCH   4  15
ATOM     15  O   UNL     1       4.392   2.641  18.458  0.00  0.00    +0.000 OA
ATOM     16  H   UNL     1       3.480   2.290  18.516  0.00  0.00    +0.000 HD
ENDBRANCH   4  15
BRANCH   5  17
ATOM     17  O   UNL     1       2.593   4.906  18.643  0.00  0.00    +0.000 OA
BRANCH  17  18
ATOM     18  C   UNL     1       2.454   4.805  19.989  0.00  0.00    +0.000 C 
ATOM     19  O   UNL     1       2.905   3.928  20.708  0.00  0.00    +0.000 OA
BRANCH  18  20
ATOM     20  C   UNL     1       1.665   5.955  20.472  0.00  0.00    +0.000 C 
ATOM     21  C   UNL     1       2.061   7.196  20.150  0.00  0.00    +0.000 C 
BRANCH  21  22
ATOM     22  C   UNL     1       1.387   8.433  20.567  0.00  0.00    +0.000 A 
ATOM     23  C   UNL     1       0.974   9.408  19.645  0.00  0.00    +0.000 A 
ATOM     24  C   UNL     1       0.297  10.558  20.068  0.00  0.00    +0.000 A 
ATOM     25  C   UNL     1       0.023  10.723  21.419  0.00  0.00    +0.000 A 
ATOM     26  C   UNL     1       0.413   9.753  22.337  0.00  0.00    +0.000 A 
ATOM     27  C   UNL     1       1.086   8.611  21.925  0.00  0.00    +0.000 A 
BRANCH  25  28
ATOM     28  O   UNL     1      -0.638  11.822  21.893  0.00  0.00    +0.000 OA
ATOM     29  H   UNL     1      -0.494  12.553  21.268  0.00  0.00    +0.000 HD
ENDBRANCH  25  28
BRANCH  26  30
ATOM     30  O   UNL     1       0.127   9.917  23.663  0.00  0.00    +0.000 OA
ATOM     31  H   UNL     1      -0.778  10.288  23.674  0.00  0.00    +0.000 HD
ENDBRANCH  26  30
ENDBRANCH  21  22
ENDBRANCH  18  20
ENDBRANCH  17  18
ENDBRANCH   5  17
TORSDOF 11
ENDMDL
MODEL 6
REMARK VINA RESULT:      -7.1      1.439      2.317
REMARK  Name = 
REMARK  12 active torsions:
REMARK  status: ('A' for Active; 'I' for Inactive)
REMARK    1  A    between atoms: C_1  and  O_2
REMARK    2  A    between atoms: O_2  and  C_3
REMARK    3  A    between atoms: C_3  and  C_5
REMARK    4  A    between atoms: C_5  and  O_6
REMARK    5  A    between atoms: C_8  and  O_9
REMARK    6  A    between atoms: C_10  and  O_11
REMARK    7  A    between atoms: C_12  and  O_13
REMARK    8  A    between atoms: O_13  and  C_14
REMARK    9  A    between atoms: C_14  and  C_16
REMARK   10  A    between atoms: C_17  and  C_18
REMARK   11  A    between atoms: C_21  and  O_22
REMARK   12  A    between atoms: C_23  and  O_24
REMARK                            x       y       z     vdW  Elec       q    Type
REMARK                         _______ _______ _______ _____ _____    ______ ____
ROOT
ATOM      1  C   UNL     1       3.128   5.064  18.137  0.00  0.00    +0.000 C 
ATOM      2  C   UNL     1       3.540   4.506  19.506  0.00  0.00    +0.000 C 
ATOM      3  C   UNL     1       5.048   4.331  19.674  0.00  0.00    +0.000 C 
ATOM      4  C   UNL     1       5.836   5.596  19.299  0.00  0.00    +0.000 C 
ATOM      5  C   UNL     1       5.469   6.090  17.891  0.00  0.00    +0.000 C 
ATOM      6  C   UNL     1       3.958   6.299  17.757  0.00  0.00    +0.000 C 
ENDROOT
BRANCH   1   7
ATOM      7  C   UNL     1       3.239   3.955  17.066  0.00  0.00    +0.000 C 
ATOM      8  O   UNL     1       4.214   3.783  16.348  0.00  0.00    +0.000 OA
BRANCH   7  10
ATOM      9  C   UNL     1       2.326   1.921  17.814  0.00  0.00    +0.000 C 
ATOM     10  O   UNL     1       2.139   3.147  17.102  0.00  0.00    +0.000 OA
ENDBRANCH   7  10
ENDBRANCH   1   7
BRANCH   1  11
ATOM     11  O   UNL     1       1.765   5.506  18.241  0.00  0.00    +0.000 OA
ATOM     12  H   UNL     1       1.202   4.735  18.030  0.00  0.00    +0.000 HD
ENDBRANCH   1  11
BRANCH   3  13
ATOM     13  O   UNL     1       5.525   3.200  18.934  0.00  0.00    +0.000 OA
ATOM     14  H   UNL     1       5.678   3.425  17.994  0.00  0.00    +0.000 HD
ENDBRANCH   3  13
BRANCH   4  15
ATOM     15  O   UNL     1       7.238   5.315  19.373  0.00  0.00    +0.000 OA
ATOM     16  H   UNL     1       7.641   5.671  18.555  0.00  0.00    +0.000 HD
ENDBRANCH   4  15
BRANCH   5  17
ATOM     17  O   UNL     1       6.125   7.355  17.642  0.00  0.00    +0.000 OA
BRANCH  17  18
ATOM     18  C   UNL     1       7.421   7.272  17.248  0.00  0.00    +0.000 C 
ATOM     19  O   UNL     1       7.877   6.546  16.379  0.00  0.00    +0.000 OA
BRANCH  18  20
ATOM     20  C   UNL     1       8.220   8.228  18.039  0.00  0.00    +0.000 C 
ATOM     21  C   UNL     1       8.120   9.539  17.768  0.00  0.00    +0.000 C 
BRANCH  21  22
ATOM     22  C   UNL     1       8.860  10.603  18.459  0.00  0.00    +0.000 A 
ATOM     23  C   UNL     1       9.525  10.383  19.677  0.00  0.00    +0.000 A 
ATOM     24  C   UNL     1      10.256  11.406  20.292  0.00  0.00    +0.000 A 
ATOM     25  C   UNL     1      10.330  12.649  19.678  0.00  0.00    +0.000 A 
ATOM     26  C   UNL     1       9.689  12.869  18.463  0.00  0.00    +0.000 A 
ATOM     27  C   UNL     1       8.961  11.860  17.847  0.00  0.00    +0.000 A 
BRANCH  25  28
ATOM     28  O   UNL     1      11.032  13.686  20.227  0.00  0.00    +0.000 OA
ATOM     29  H   UNL     1      10.558  14.511  20.023  0.00  0.00    +0.000 HD
ENDBRANCH  25  28
BRANCH  26  30
ATOM     30  O   UNL     1       9.780  14.091  17.858  0.00  0.00    +0.000 OA
ATOM     31  H   UNL     1       8.980  14.147  17.298  0.00  0.00    +0.000 HD
ENDBRANCH  26  30
ENDBRANCH  21  22
ENDBRANCH  18  20
ENDBRANCH  17  18
ENDBRANCH   5  17
TORSDOF 11
ENDMDL
MODEL 7
REMARK VINA RESULT:      -7.0      3.505      7.379
REMARK  Name = 
REMARK  12 active torsions:
REMARK  status: ('A' for Active; 'I' for Inactive)
REMARK    1  A    between atoms: C_1  and  O_2
REMARK    2  A    between atoms: O_2  and  C_3
REMARK    3  A    between atoms: C_3  and  C_5
REMARK    4  A    between atoms: C_5  and  O_6
REMARK    5  A    between atoms: C_8  and  O_9
REMARK    6  A    between atoms: C_10  and  O_11
REMARK    7  A    between atoms: C_12  and  O_13
REMARK    8  A    between atoms: O_13  and  C_14
REMARK    9  A    between atoms: C_14  and  C_16
REMARK   10  A    between atoms: C_17  and  C_18
REMARK   11  A    between atoms: C_21  and  O_22
REMARK   12  A    between atoms: C_23  and  O_24
REMARK                            x       y       z     vdW  Elec       q    Type
REMARK                         _______ _______ _______ _____ _____    ______ ____
ROOT
ATOM      1  C   UNL     1       6.000   5.319  16.497  0.00  0.00    +0.000 C 
ATOM      2  C   UNL     1       5.532   3.867  16.335  0.00  0.00    +0.000 C 
ATOM      3  C   UNL     1       4.527   3.419  17.395  0.00  0.00    +0.000 C 
ATOM      4  C   UNL     1       3.351   4.397  17.546  0.00  0.00    +0.000 C 
ATOM      5  C   UNL     1       3.841   5.832  17.791  0.00  0.00    +0.000 C 
ATOM      6  C   UNL     1       4.814   6.276  16.694  0.00  0.00    +0.000 C 
ENDROOT
BRANCH   1   7
ATOM      7  C   UNL     1       7.008   5.417  17.666  0.00  0.00    +0.000 C 
ATOM      8  O   UNL     1       7.809   4.542  17.962  0.00  0.00    +0.000 OA
BRANCH   7  10
ATOM      9  C   UNL     1       7.903   7.589  17.779  0.00  0.00    +0.000 C 
ATOM     10  O   UNL     1       6.936   6.647  18.253  0.00  0.00    +0.000 OA
ENDBRANCH   7  10
ENDBRANCH   1   7
BRANCH   1  11
ATOM     11  O   UNL     1       6.637   5.709  15.270  0.00  0.00    +0.000 OA
ATOM     12  H   UNL     1       7.171   6.503  15.470  0.00  0.00    +0.000 HD
ENDBRANCH   1  11
BRANCH   3  13
ATOM     13  O   UNL     1       5.168   3.200  18.658  0.00  0.00    +0.000 OA
ATOM     14  H   UNL     1       6.078   2.857  18.544  0.00  0.00    +0.000 HD
ENDBRANCH   3  13
BRANCH   4  15
ATOM     15  O   UNL     1       2.520   3.968  18.631  0.00  0.00    +0.000 OA
ATOM     16  H   UNL     1       1.631   4.344  18.471  0.00  0.00    +0.000 HD
ENDBRANCH   4  15
BRANCH   5  17
ATOM     17  O   UNL     1       2.709   6.732  17.781  0.00  0.00    +0.000 OA
BRANCH  17  18
ATOM     18  C   UNL     1       2.365   7.249  18.989  0.00  0.00    +0.000 C 
ATOM     19  O   UNL     1       2.477   6.706  20.076  0.00  0.00    +0.000 OA
BRANCH  18  20
ATOM     20  C   UNL     1       1.833   8.611  18.788  0.00  0.00    +0.000 C 
ATOM     21  C   UNL     1       1.085   9.164  19.755  0.00  0.00    +0.000 C 
BRANCH  21  22
ATOM     22  C   UNL     1       0.479  10.501  19.692  0.00  0.00    +0.000 A 
ATOM     23  C   UNL     1       0.651  11.451  20.713  0.00  0.00    +0.000 A 
ATOM     24  C   UNL     1       0.095  12.731  20.607  0.00  0.00    +0.000 A 
ATOM     25  C   UNL     1      -0.625  13.063  19.468  0.00  0.00    +0.000 A 
ATOM     26  C   UNL     1      -0.786  12.134  18.444  0.00  0.00    +0.000 A 
ATOM     27  C   UNL     1      -0.239  10.862  18.543  0.00  0.00    +0.000 A 
BRANCH  25  28
ATOM     28  O   UNL     1      -1.189  14.298  19.303  0.00  0.00    +0.000 OA
ATOM     29  H   UNL     1      -0.470  14.952  19.253  0.00  0.00    +0.000 HD
ENDBRANCH  25  28
BRANCH  26  30
ATOM     30  O   UNL     1      -1.485  12.475  17.320  0.00  0.00    +0.000 OA
ATOM     31  H   UNL     1      -0.891  12.235  16.581  0.00  0.00    +0.000 HD
ENDBRANCH  26  30
ENDBRANCH  21  22
ENDBRANCH  18  20
ENDBRANCH  17  18
ENDBRANCH   5  17
TORSDOF 11
ENDMDL
MODEL 8
REMARK VINA RESULT:      -7.0      3.260      7.384
REMARK  Name = 
REMARK  12 active torsions:
REMARK  status: ('A' for Active; 'I' for Inactive)
REMARK    1  A    between atoms: C_1  and  O_2
REMARK    2  A    between atoms: O_2  and  C_3
REMARK    3  A    between atoms: C_3  and  C_5
REMARK    4  A    between atoms: C_5  and  O_6
REMARK    5  A    between atoms: C_8  and  O_9
REMARK    6  A    between atoms: C_10  and  O_11
REMARK    7  A    between atoms: C_12  and  O_13
REMARK    8  A    between atoms: O_13  and  C_14
REMARK    9  A    between atoms: C_14  and  C_16
REMARK   10  A    between atoms: C_17  and  C_18
REMARK   11  A    between atoms: C_21  and  O_22
REMARK   12  A    between atoms: C_23  and  O_24
REMARK                            x       y       z     vdW  Elec       q    Type
REMARK                         _______ _______ _______ _____ _____    ______ ____
ROOT
ATOM      1  C   UNL     1       5.419   6.393  16.318  0.00  0.00    +0.000 C 
ATOM      2  C   UNL     1       5.501   4.947  15.814  0.00  0.00    +0.000 C 
ATOM      3  C   UNL     1       5.810   3.926  16.908  0.00  0.00    +0.000 C 
ATOM      4  C   UNL     1       4.883   4.067  18.126  0.00  0.00    +0.000 C 
ATOM      5  C   UNL     1       4.880   5.505  18.667  0.00  0.00    +0.000 C 
ATOM      6  C   UNL     1       4.528   6.507  17.564  0.00  0.00    +0.000 C 
ENDROOT
BRANCH   1   7
ATOM      7  C   UNL     1       6.842   6.935  16.588  0.00  0.00    +0.000 C 
ATOM      8  O   UNL     1       7.866   6.440  16.137  0.00  0.00    +0.000 OA
BRANCH   7  10
ATOM      9  C   UNL     1       8.042   8.533  17.827  0.00  0.00    +0.000 C 
ATOM     10  O   UNL     1       6.782   8.086  17.319  0.00  0.00    +0.000 OA
ENDBRANCH   7  10
ENDBRANCH   1   7
BRANCH   1  11
ATOM     11  O   UNL     1       4.787   7.175  15.293  0.00  0.00    +0.000 OA
ATOM     12  H   UNL     1       3.839   7.232  15.526  0.00  0.00    +0.000 HD
ENDBRANCH   1  11
BRANCH   3  13
ATOM     13  O   UNL     1       7.184   3.993  17.307  0.00  0.00    +0.000 OA
ATOM     14  H   UNL     1       7.777   4.102  16.536  0.00  0.00    +0.000 HD
ENDBRANCH   3  13
BRANCH   4  15
ATOM     15  O   UNL     1       5.309   3.157  19.147  0.00  0.00    +0.000 OA
ATOM     16  H   UNL     1       4.951   2.278  18.908  0.00  0.00    +0.000 HD
ENDBRANCH   4  15
BRANCH   5  17
ATOM     17  O   UNL     1       3.891   5.619  19.715  0.00  0.00    +0.000 OA
BRANCH  17  18
ATOM     18  C   UNL     1       2.607   5.749  19.293  0.00  0.00    +0.000 C 
ATOM     19  O   UNL     1       2.096   5.206  18.327  0.00  0.00    +0.000 OA
BRANCH  18  20
ATOM     20  C   UNL     1       1.896   6.661  20.210  0.00  0.00    +0.000 C 
ATOM     21  C   UNL     1       1.731   7.944  19.851  0.00  0.00    +0.000 C 
BRANCH  21  22
ATOM     22  C   UNL     1       1.058   8.968  20.661  0.00  0.00    +0.000 A 
ATOM     23  C   UNL     1       0.531  10.142  20.098  0.00  0.00    +0.000 A 
ATOM     24  C   UNL     1      -0.141  11.081  20.890  0.00  0.00    +0.000 A 
ATOM     25  C   UNL     1      -0.295  10.835  22.247  0.00  0.00    +0.000 A 
ATOM     26  C   UNL     1       0.209   9.666  22.810  0.00  0.00    +0.000 A 
ATOM     27  C   UNL     1       0.878   8.731  22.031  0.00  0.00    +0.000 A 
BRANCH  25  28
ATOM     28  O   UNL     1      -0.945  11.711  23.071  0.00  0.00    +0.000 OA
ATOM     29  H   UNL     1      -1.873  11.762  22.784  0.00  0.00    +0.000 HD
ENDBRANCH  25  28
BRANCH  26  30
ATOM     30  O   UNL     1       0.040   9.426  24.144  0.00  0.00    +0.000 OA
ATOM     31  H   UNL     1      -0.102   8.460  24.203  0.00  0.00    +0.000 HD
ENDBRANCH  26  30
ENDBRANCH  21  22
ENDBRANCH  18  20
ENDBRANCH  17  18
ENDBRANCH   5  17
TORSDOF 11
ENDMDL
MODEL 9
REMARK VINA RESULT:      -7.0      5.222      8.789
REMARK  Name = 
REMARK  12 active torsions:
REMARK  status: ('A' for Active; 'I' for Inactive)
REMARK    1  A    between atoms: C_1  and  O_2
REMARK    2  A    between atoms: O_2  and  C_3
REMARK    3  A    between atoms: C_3  and  C_5
REMARK    4  A    between atoms: C_5  and  O_6
REMARK    5  A    between atoms: C_8  and  O_9
REMARK    6  A    between atoms: C_10  and  O_11
REMARK    7  A    between atoms: C_12  and  O_13
REMARK    8  A    between atoms: O_13  and  C_14
REMARK    9  A    between atoms: C_14  and  C_16
REMARK   10  A    between atoms: C_17  and  C_18
REMARK   11  A    between atoms: C_21  and  O_22
REMARK   12  A    between atoms: C_23  and  O_24
REMARK                            x       y       z     vdW  Elec       q    Type
REMARK                         _______ _______ _______ _____ _____    ______ ____
ROOT
ATOM      1  C   UNL     1      -0.340  11.875  21.365  0.00  0.00    +0.000 C 
ATOM      2  C   UNL     1      -1.768  12.235  20.932  0.00  0.00    +0.000 C 
ATOM      3  C   UNL     1      -1.964  12.270  19.418  0.00  0.00    +0.000 C 
ATOM      4  C   UNL     1      -1.447  10.999  18.725  0.00  0.00    +0.000 C 
ATOM      5  C   UNL     1       0.012  10.704  19.107  0.00  0.00    +0.000 C 
ATOM      6  C   UNL     1       0.178  10.632  20.628  0.00  0.00    +0.000 C 
ENDROOT
BRANCH   1   7
ATOM      7  C   UNL     1       0.592  13.090  21.152  0.00  0.00    +0.000 C 
ATOM      8  O   UNL     1       0.209  14.249  21.072  0.00  0.00    +0.000 OA
BRANCH   7  10
ATOM      9  C   UNL     1       2.812  13.650  20.614  0.00  0.00    +0.000 C 
ATOM     10  O   UNL     1       1.898  12.694  21.160  0.00  0.00    +0.000 OA
ENDBRANCH   7  10
ENDBRANCH   1   7
BRANCH   1  11
ATOM     11  O   UNL     1      -0.383  11.533  22.760  0.00  0.00    +0.000 OA
ATOM     12  H   UNL     1       0.105  10.692  22.859  0.00  0.00    +0.000 HD
ENDBRANCH   1  11
BRANCH   3  13
ATOM     13  O   UNL     1      -1.366  13.438  18.844  0.00  0.00    +0.000 OA
ATOM     14  H   UNL     1      -1.082  14.072  19.534  0.00  0.00    +0.000 HD
ENDBRANCH   3  13
BRANCH   4  15
ATOM     15  O   UNL     1      -1.563  11.158  17.306  0.00  0.00    +0.000 OA
ATOM     16  H   UNL     1      -1.291  12.076  17.102  0.00  0.00    +0.000 HD
ENDBRANCH   4  15
BRANCH   5  17
ATOM     17  O   UNL     1       0.404   9.429  18.548  0.00  0.00    +0.000 OA
BRANCH  17  18
ATOM     18  C   UNL     1       1.713   9.320  18.207  0.00  0.00    +0.000 C 
ATOM     19  O   UNL     1       2.356  10.094  17.516  0.00  0.00    +0.000 OA
BRANCH  18  20
ATOM     20  C   UNL     1       2.264   8.099  18.825  0.00  0.00    +0.000 C 
ATOM     21  C   UNL     1       2.698   7.108  18.030  0.00  0.00    +0.000 C 
BRANCH  21  22
ATOM     22  C   UNL     1       3.257   5.833  18.498  0.00  0.00    +0.000 A 
ATOM     23  C   UNL     1       2.458   4.831  19.075  0.00  0.00    +0.000 A 
ATOM     24  C   UNL     1       3.013   3.610  19.475  0.00  0.00    +0.000 A 
ATOM     25  C   UNL     1       4.370   3.388  19.284  0.00  0.00    +0.000 A 
ATOM     26  C   UNL     1       5.165   4.368  18.697  0.00  0.00    +0.000 A 
ATOM     27  C   UNL     1       4.622   5.583  18.299  0.00  0.00    +0.000 A 
BRANCH  25  28
ATOM     28  O   UNL     1       4.969   2.215  19.650  0.00  0.00    +0.000 OA
ATOM     29  H   UNL     1       4.270   1.578  19.878  0.00  0.00    +0.000 HD
ENDBRANCH  25  28
BRANCH  26  30
ATOM     30  O   UNL     1       6.497   4.135  18.500  0.00  0.00    +0.000 OA
ATOM     31  H   UNL     1       6.907   5.023  18.527  0.00  0.00    +0.000 HD
ENDBRANCH  26  30
ENDBRANCH  21  22
ENDBRANCH  18  20
ENDBRANCH  17  18
ENDBRANCH   5  17
TORSDOF 11
ENDMDL
