MODEL 1
REMARK VINA RESULT:      -8.7      0.000      0.000
REMARK  Name = 
REMARK  8 active torsions:
REMARK  status: ('A' for Active; 'I' for Inactive)
REMARK    1  A    between atoms: C_1  and  C_2
REMARK    2  A    between atoms: C_2  and  C_3
REMARK    3  A    between atoms: C_2  and  C_4
REMARK    4  A    between atoms: C_6  and  C_7
REMARK    5  A    between atoms: C_7  and  C_9
REMARK    6  A    between atoms: C_13  and  N_14
REMARK    7  A    between atoms: C_15  and  C_17
REMARK    8  A    between atoms: N_27  and  C_28
REMARK                            x       y       z     vdW  Elec       q    Type
REMARK                         _______ _______ _______ _____ _____    ______ ____
ROOT
ATOM      1  C   UNL     1       2.522   5.959  18.950  0.00  0.00    +0.000 A 
ATOM      2  C   UNL     1       2.504   7.247  18.393  0.00  0.00    +0.000 A 
ATOM      3 CL   UNL     1       3.111   7.623  16.814  0.00  0.00    +0.000 Cl
ATOM      4  C   UNL     1       1.989   8.336  19.115  0.00  0.00    +0.000 A 
ATOM      5  C   UNL     1       1.498   8.181  20.411  0.00  0.00    +0.000 A 
ATOM      6  C   UNL     1       1.513   6.903  20.970  0.00  0.00    +0.000 A 
ATOM      7  C   UNL     1       1.991   5.796  20.240  0.00  0.00    +0.000 A 
ATOM      8 CL   UNL     1       1.760   4.249  20.986  0.00  0.00    +0.000 Cl
ENDROOT
BRANCH   5   9
ATOM      9  N   UNL     1       0.966   9.248  21.170  0.00  0.00    +0.000 N 
ATOM     10  C   UNL     1      -0.115  10.037  20.822  0.00  0.00    +0.000 C 
ATOM     11  O   UNL     1      -0.801  10.000  19.810  0.00  0.00    +0.000 OA
ATOM     12  H   UNL     1       1.394   9.461  22.068  0.00  0.00    +0.000 HD
BRANCH  10  13
ATOM     13  C   UNL     1      -0.495  11.066  21.847  0.00  0.00    +0.000 A 
ATOM     14  N   UNL     1      -0.867  10.829  23.059  0.00  0.00    +0.000 NA
ATOM     15  O   UNL     1      -1.119  12.138  23.597  0.00  0.00    +0.000 OA
ATOM     16  C   UNL     1      -0.860  13.038  22.584  0.00  0.00    +0.000 A 
ATOM     17  O   UNL     1      -0.980  14.249  22.665  0.00  0.00    +0.000 OA
ATOM     18  N   UNL     1      -0.468  12.358  21.501  0.00  0.00    +0.000 N 
ATOM     19  H   UNL     1      -0.212  12.744  20.608  0.00  0.00    +0.000 HD
ENDBRANCH  10  13
ENDBRANCH   5   9
BRANCH   1  20
ATOM     20  C   UNL     1       3.024   4.819  18.139  0.00  0.00    +0.000 C 
ATOM     21  O   UNL     1       2.409   3.758  18.097  0.00  0.00    +0.000 OA
BRANCH  20  24
ATOM     22  C   UNL     1       6.595   5.734  17.380  0.00  0.00    +0.000 A 
ATOM     23  C   UNL     1       5.436   5.591  18.037  0.00  0.00    +0.000 A 
ATOM     24  C   UNL     1       4.322   4.900  17.359  0.00  0.00    +0.000 A 
ATOM     25  N   UNL     1       4.385   4.371  16.179  0.00  0.00    +0.000 NA
ATOM     26  N   UNL     1       5.569   4.541  15.491  0.00  0.00    +0.000 N 
ATOM     27  C   UNL     1       5.606   4.046  14.130  0.00  0.00    +0.000 C 
ATOM     28  C   UNL     1       6.684   5.222  15.978  0.00  0.00    +0.000 A 
ATOM     29  O   UNL     1       7.703   5.403  15.314  0.00  0.00    +0.000 OA
BRANCH  22  31
ATOM     30  C   UNL     1       7.812   7.904  17.870  0.00  0.00    +0.000 C 
ATOM     31  C   UNL     1       7.831   6.376  17.982  0.00  0.00    +0.000 C 
ATOM     32  C   UNL     1       8.018   5.946  19.441  0.00  0.00    +0.000 C 
ENDBRANCH  22  31
ENDBRANCH  20  24
ENDBRANCH   1  20
TORSDOF 5
ENDMDL
MODEL 2
REMARK VINA RESULT:      -8.6      0.288      1.700
REMARK  Name = 
REMARK  8 active torsions:
REMARK  status: ('A' for Active; 'I' for Inactive)
REMARK    1  A    between atoms: C_1  and  C_2
REMARK    2  A    between atoms: C_2  and  C_3
REMARK    3  A    between atoms: C_2  and  C_4
REMARK    4  A    between atoms: C_6  and  C_7
REMARK    5  A    between atoms: C_7  and  C_9
REMARK    6  A    between atoms: C_13  and  N_14
REMARK    7  A    between atoms: C_15  and  C_17
REMARK    8  A    between atoms: N_27  and  C_28
REMARK                            x       y       z     vdW  Elec       q    Type
REMARK                         _______ _______ _______ _____ _____    ______ ____
ROOT
ATOM      1  C   UNL     1       2.520   5.857  18.921  0.00  0.00    +0.000 A 
ATOM      2  C   UNL     1       2.061   5.689  20.236  0.00  0.00    +0.000 A 
ATOM      3 CL   UNL     1       2.060   4.169  21.070  0.00  0.00    +0.000 Cl
ATOM      4  C   UNL     1       1.547   6.775  20.963  0.00  0.00    +0.000 A 
ATOM      5  C   UNL     1       1.457   8.047  20.401  0.00  0.00    +0.000 A 
ATOM      6  C   UNL     1       1.914   8.222  19.094  0.00  0.00    +0.000 A 
ATOM      7  C   UNL     1       2.467   7.147  18.368  0.00  0.00    +0.000 A 
ATOM      8 CL   UNL     1       3.173   7.559  16.841  0.00  0.00    +0.000 Cl
ENDROOT
BRANCH   5   9
ATOM      9  N   UNL     1       0.953   9.168  21.099  0.00  0.00    +0.000 N 
ATOM     10  C   UNL     1      -0.073   9.996  20.682  0.00  0.00    +0.000 C 
ATOM     11  O   UNL     1      -0.725   9.951  19.648  0.00  0.00    +0.000 OA
ATOM     12  H   UNL     1       1.361   9.396  22.004  0.00  0.00    +0.000 HD
BRANCH  10  13
ATOM     13  C   UNL     1      -0.436  11.083  21.651  0.00  0.00    +0.000 A 
ATOM     14  N   UNL     1      -0.275  11.044  22.931  0.00  0.00    +0.000 NA
ATOM     15  O   UNL     1      -0.787  12.312  23.375  0.00  0.00    +0.000 OA
ATOM     16  C   UNL     1      -1.217  12.980  22.247  0.00  0.00    +0.000 A 
ATOM     17  O   UNL     1      -1.729  14.087  22.232  0.00  0.00    +0.000 OA
ATOM     18  N   UNL     1      -0.989  12.206  21.180  0.00  0.00    +0.000 N 
ATOM     19  H   UNL     1      -1.198  12.426  20.222  0.00  0.00    +0.000 HD
ENDBRANCH  10  13
ENDBRANCH   5   9
BRANCH   1  20
ATOM     20  C   UNL     1       3.109   4.699  18.199  0.00  0.00    +0.000 C 
ATOM     21  O   UNL     1       2.586   3.590  18.255  0.00  0.00    +0.000 OA
BRANCH  20  24
ATOM     22  C   UNL     1       6.640   5.711  17.378  0.00  0.00    +0.000 A 
ATOM     23  C   UNL     1       5.500   5.531  18.057  0.00  0.00    +0.000 A 
ATOM     24  C   UNL     1       4.388   4.823  17.393  0.00  0.00    +0.000 A 
ATOM     25  N   UNL     1       4.437   4.314  16.203  0.00  0.00    +0.000 NA
ATOM     26  N   UNL     1       5.602   4.523  15.493  0.00  0.00    +0.000 N 
ATOM     27  C   UNL     1       5.621   4.050  14.123  0.00  0.00    +0.000 C 
ATOM     28  C   UNL     1       6.711   5.223  15.967  0.00  0.00    +0.000 A 
ATOM     29  O   UNL     1       7.711   5.439  15.284  0.00  0.00    +0.000 OA
BRANCH  22  31
ATOM     30  C   UNL     1       7.845   7.898  17.818  0.00  0.00    +0.000 C 
ATOM     31  C   UNL     1       7.873   6.373  17.963  0.00  0.00    +0.000 C 
ATOM     32  C   UNL     1       8.065   5.976  19.431  0.00  0.00    +0.000 C 
ENDBRANCH  22  31
ENDBRANCH  20  24
ENDBRANCH   1  20
TORSDOF 5
ENDMDL
MODEL 3
REMARK VINA RESULT:      -8.6      4.103      9.578
REMARK  Name = 
REMARK  8 active torsions:
REMARK  status: ('A' for Active; 'I' for Inactive)
REMARK    1  A    between atoms: C_1  and  C_2
REMARK    2  A    between atoms: C_2  and  C_3
REMARK    3  A    between atoms: C_2  and  C_4
REMARK    4  A    between atoms: C_6  and  C_7
REMARK    5  A    between atoms: C_7  and  C_9
REMARK    6  A    between atoms: C_13  and  N_14
REMARK    7  A    between atoms: C_15  and  C_17
REMARK    8  A    between atoms: N_27  and  C_28
REMARK                            x       y       z     vdW  Elec       q    Type
REMARK                         _______ _______ _______ _____ _____    ______ ____
ROOT
ATOM      1  C   UNL     1       0.435   9.990  20.261  0.00  0.00    +0.000 A 
ATOM      2  C   UNL     1       1.283   9.446  19.284  0.00  0.00    +0.000 A 
ATOM      3 CL   UNL     1       1.654  10.233  17.784  0.00  0.00    +0.000 Cl
ATOM      4  C   UNL     1       1.882   8.190  19.470  0.00  0.00    +0.000 A 
ATOM      5  C   UNL     1       1.642   7.433  20.615  0.00  0.00    +0.000 A 
ATOM      6  C   UNL     1       0.801   7.969  21.592  0.00  0.00    +0.000 A 
ATOM      7  C   UNL     1       0.224   9.246  21.434  0.00  0.00    +0.000 A 
ATOM      8 CL   UNL     1      -0.629   9.859  22.811  0.00  0.00    +0.000 Cl
ENDROOT
BRANCH   5   9
ATOM      9  N   UNL     1       2.229   6.169  20.845  0.00  0.00    +0.000 N 
ATOM     10  C   UNL     1       1.608   4.941  20.700  0.00  0.00    +0.000 C 
ATOM     11  O   UNL     1       0.454   4.697  20.377  0.00  0.00    +0.000 OA
ATOM     12  H   UNL     1       3.206   6.135  21.131  0.00  0.00    +0.000 HD
BRANCH  10  13
ATOM     13  C   UNL     1       2.491   3.757  20.963  0.00  0.00    +0.000 A 
ATOM     14  N   UNL     1       2.428   2.976  21.988  0.00  0.00    +0.000 NA
ATOM     15  O   UNL     1       3.485   2.029  21.757  0.00  0.00    +0.000 OA
ATOM     16  C   UNL     1       4.080   2.385  20.565  0.00  0.00    +0.000 A 
ATOM     17  O   UNL     1       5.030   1.818  20.049  0.00  0.00    +0.000 OA
ATOM     18  N   UNL     1       3.449   3.460  20.078  0.00  0.00    +0.000 N 
ATOM     19  H   UNL     1       3.660   3.946  19.223  0.00  0.00    +0.000 HD
ENDBRANCH  10  13
ENDBRANCH   5   9
BRANCH   1  20
ATOM     20  C   UNL     1      -0.140  11.345  20.058  0.00  0.00    +0.000 C 
ATOM     21  O   UNL     1       0.496  12.351  20.359  0.00  0.00    +0.000 OA
BRANCH  20  24
ATOM     22  C   UNL     1      -3.689  12.589  19.898  0.00  0.00    +0.000 A 
ATOM     23  C   UNL     1      -2.427  12.409  20.311  0.00  0.00    +0.000 A 
ATOM     24  C   UNL     1      -1.538  11.549  19.506  0.00  0.00    +0.000 A 
ATOM     25  N   UNL     1      -1.867  10.979  18.391  0.00  0.00    +0.000 NA
ATOM     26  N   UNL     1      -3.173  11.141  17.979  0.00  0.00    +0.000 N 
ATOM     27  C   UNL     1      -3.574  10.417  16.790  0.00  0.00    +0.000 C 
ATOM     28  C   UNL     1      -4.142  11.874  18.665  0.00  0.00    +0.000 A 
ATOM     29  O   UNL     1      -5.312  11.951  18.297  0.00  0.00    +0.000 OA
BRANCH  22  31
ATOM     30  C   UNL     1      -5.294  12.830  21.845  0.00  0.00    +0.000 C 
ATOM     31  C   UNL     1      -4.686  13.489  20.603  0.00  0.00    +0.000 C 
ATOM     32  C   UNL     1      -4.049  14.835  20.966  0.00  0.00    +0.000 C 
ENDBRANCH  22  31
ENDBRANCH  20  24
ENDBRANCH   1  20
TORSDOF 5
ENDMDL
MODEL 4
REMARK VINA RESULT:      -8.5      1.269      2.325
REMARK  Name = 
REMARK  8 active torsions:
REMARK  status: ('A' for Active; 'I' for Inactive)
REMARK    1  A    between atoms: C_1  and  C_2
REMARK    2  A    between atoms: C_2  and  C_3
REMARK    3  A    between atoms: C_2  and  C_4
REMARK    4  A    between atoms: C_6  and  C_7
REMARK    5  A    between atoms: C_7  and  C_9
REMARK    6  A    between atoms: C_13  and  N_14
REMARK    7  A    between atoms: C_15  and  C_17
REMARK    8  A    between atoms: N_27  and  C_28
REMARK                            x       y       z     vdW  Elec       q    Type
REMARK                         _______ _______ _______ _____ _____    ______ ____
ROOT
ATOM      1  C   UNL     1       2.387   6.068  19.014  0.00  0.00    +0.000 A 
ATOM      2  C   UNL     1       2.480   7.382  18.530  0.00  0.00    +0.000 A 
ATOM      3 CL   UNL     1       3.292   7.812  17.060  0.00  0.00    +0.000 Cl
ATOM      4  C   UNL     1       1.915   8.453  19.242  0.00  0.00    +0.000 A 
ATOM      5  C   UNL     1       1.263   8.253  20.457  0.00  0.00    +0.000 A 
ATOM      6  C   UNL     1       1.165   6.948  20.944  0.00  0.00    +0.000 A 
ATOM      7  C   UNL     1       1.695   5.861  20.219  0.00  0.00    +0.000 A 
ATOM      8 CL   UNL     1       1.322   4.289  20.846  0.00  0.00    +0.000 Cl
ENDROOT
BRANCH   5   9
ATOM      9  N   UNL     1       0.675   9.300  21.202  0.00  0.00    +0.000 N 
ATOM     10  C   UNL     1      -0.317  10.157  20.763  0.00  0.00    +0.000 C 
ATOM     11  O   UNL     1      -0.860  10.208  19.668  0.00  0.00    +0.000 OA
ATOM     12  H   UNL     1       0.986   9.442  22.161  0.00  0.00    +0.000 HD
BRANCH  10  13
ATOM     13  C   UNL     1      -0.792  11.145  21.789  0.00  0.00    +0.000 A 
ATOM     14  N   UNL     1      -0.417  11.198  23.022  0.00  0.00    +0.000 NA
ATOM     15  O   UNL     1      -1.169  12.301  23.556  0.00  0.00    +0.000 OA
ATOM     16  C   UNL     1      -1.941  12.789  22.523  0.00  0.00    +0.000 A 
ATOM     17  O   UNL     1      -2.726  13.721  22.604  0.00  0.00    +0.000 OA
ATOM     18  N   UNL     1      -1.694  12.064  21.426  0.00  0.00    +0.000 N 
ATOM     19  H   UNL     1      -2.109  12.185  20.519  0.00  0.00    +0.000 HD
ENDBRANCH  10  13
ENDBRANCH   5   9
BRANCH   1  20
ATOM     20  C   UNL     1       2.948   4.951  18.210  0.00  0.00    +0.000 C 
ATOM     21  O   UNL     1       2.234   4.031  17.826  0.00  0.00    +0.000 OA
BRANCH  20  24
ATOM     22  C   UNL     1       6.017   4.352  16.114  0.00  0.00    +0.000 A 
ATOM     23  C   UNL     1       4.732   4.478  16.471  0.00  0.00    +0.000 A 
ATOM     24  C   UNL     1       4.422   4.879  17.858  0.00  0.00    +0.000 A 
ATOM     25  N   UNL     1       5.303   5.168  18.762  0.00  0.00    +0.000 NA
ATOM     26  N   UNL     1       6.626   5.013  18.402  0.00  0.00    +0.000 N 
ATOM     27  C   UNL     1       7.611   5.230  19.442  0.00  0.00    +0.000 C 
ATOM     28  C   UNL     1       7.068   4.584  17.150  0.00  0.00    +0.000 A 
ATOM     29  O   UNL     1       8.255   4.403  16.883  0.00  0.00    +0.000 OA
BRANCH  22  31
ATOM     30  C   UNL     1       5.296   3.666  13.782  0.00  0.00    +0.000 C 
ATOM     31  C   UNL     1       6.469   4.000  14.709  0.00  0.00    +0.000 C 
ATOM     32  C   UNL     1       7.325   5.122  14.110  0.00  0.00    +0.000 C 
ENDBRANCH  22  31
ENDBRANCH  20  24
ENDBRANCH   1  20
TORSDOF 5
ENDMDL
MODEL 5
REMARK VINA RESULT:      -8.5      1.208      2.829
REMARK  Name = 
REMARK  8 active torsions:
REMARK  status: ('A' for Active; 'I' for Inactive)
REMARK    1  A    between atoms: C_1  and  C_2
REMARK    2  A    between atoms: C_2  and  C_3
REMARK    3  A    between atoms: C_2  and  C_4
REMARK    4  A    between atoms: C_6  and  C_7
REMARK    5  A    between atoms: C_7  and  C_9
REMARK    6  A    between atoms: C_13  and  N_14
REMARK    7  A    between atoms: C_15  and  C_17
REMARK    8  A    between atoms: N_27  and  C_28
REMARK                            x       y       z     vdW  Elec       q    Type
REMARK                         _______ _______ _______ _____ _____    ______ ____
ROOT
ATOM      1  C   UNL     1       2.352   6.182  19.043  0.00  0.00    +0.000 A 
ATOM      2  C   UNL     1       1.810   5.972  20.320  0.00  0.00    +0.000 A 
ATOM      3 CL   UNL     1       1.690   4.414  21.072  0.00  0.00    +0.000 Cl
ATOM      4  C   UNL     1       1.305   7.045  21.073  0.00  0.00    +0.000 A 
ATOM      5  C   UNL     1       1.308   8.346  20.575  0.00  0.00    +0.000 A 
ATOM      6  C   UNL     1       1.847   8.563  19.306  0.00  0.00    +0.000 A 
ATOM      7  C   UNL     1       2.391   7.500  18.557  0.00  0.00    +0.000 A 
ATOM      8 CL   UNL     1       3.203   7.952  17.094  0.00  0.00    +0.000 Cl
ENDROOT
BRANCH   5   9
ATOM      9  N   UNL     1       0.817   9.455  21.301  0.00  0.00    +0.000 N 
ATOM     10  C   UNL     1      -0.167  10.333  20.885  0.00  0.00    +0.000 C 
ATOM     11  O   UNL     1      -0.783  10.352  19.828  0.00  0.00    +0.000 OA
ATOM     12  H   UNL     1       1.200   9.631  22.228  0.00  0.00    +0.000 HD
BRANCH  10  13
ATOM     13  C   UNL     1      -0.527  11.391  21.886  0.00  0.00    +0.000 A 
ATOM     14  N   UNL     1      -0.906  11.188  23.103  0.00  0.00    +0.000 NA
ATOM     15  O   UNL     1      -1.132  12.514  23.612  0.00  0.00    +0.000 OA
ATOM     16  C   UNL     1      -0.851  13.386  22.580  0.00  0.00    +0.000 A 
ATOM     17  O   UNL     1      -0.945  14.601  22.635  0.00  0.00    +0.000 OA
ATOM     18  N   UNL     1      -0.471  12.675  21.513  0.00  0.00    +0.000 N 
ATOM     19  H   UNL     1      -0.205  13.036  20.613  0.00  0.00    +0.000 HD
ENDBRANCH  10  13
ENDBRANCH   5   9
BRANCH   1  20
ATOM     20  C   UNL     1       2.927   5.034  18.294  0.00  0.00    +0.000 C 
ATOM     21  O   UNL     1       2.222   4.092  17.947  0.00  0.00    +0.000 OA
BRANCH  20  24
ATOM     22  C   UNL     1       6.015   4.390  16.241  0.00  0.00    +0.000 A 
ATOM     23  C   UNL     1       4.727   4.521  16.584  0.00  0.00    +0.000 A 
ATOM     24  C   UNL     1       4.404   4.956  17.957  0.00  0.00    +0.000 A 
ATOM     25  N   UNL     1       5.276   5.270  18.861  0.00  0.00    +0.000 NA
ATOM     26  N   UNL     1       6.603   5.109  18.517  0.00  0.00    +0.000 N 
ATOM     27  C   UNL     1       7.578   5.356  19.560  0.00  0.00    +0.000 C 
ATOM     28  C   UNL     1       7.057   4.650  17.281  0.00  0.00    +0.000 A 
ATOM     29  O   UNL     1       8.246   4.466  17.029  0.00  0.00    +0.000 OA
BRANCH  22  31
ATOM     30  C   UNL     1       5.317   3.634  13.924  0.00  0.00    +0.000 C 
ATOM     31  C   UNL     1       6.481   4.003  14.850  0.00  0.00    +0.000 C 
ATOM     32  C   UNL     1       7.332   5.115  14.226  0.00  0.00    +0.000 C 
ENDBRANCH  22  31
ENDBRANCH  20  24
ENDBRANCH   1  20
TORSDOF 5
ENDMDL
MODEL 6
REMARK VINA RESULT:      -8.5      3.655      9.637
REMARK  Name = 
REMARK  8 active torsions:
REMARK  status: ('A' for Active; 'I' for Inactive)
REMARK    1  A    between atoms: C_1  and  C_2
REMARK    2  A    between atoms: C_2  and  C_3
REMARK    3  A    between atoms: C_2  and  C_4
REMARK    4  A    between atoms: C_6  and  C_7
REMARK    5  A    between atoms: C_7  and  C_9
REMARK    6  A    between atoms: C_13  and  N_14
REMARK    7  A    between atoms: C_15  and  C_17
REMARK    8  A    between atoms: N_27  and  C_28
REMARK                            x       y       z     vdW  Elec       q    Type
REMARK                         _______ _______ _______ _____ _____    ______ ____
ROOT
ATOM      1  C   UNL     1       0.909   9.581  20.069  0.00  0.00    +0.000 A 
ATOM      2  C   UNL     1       0.651   8.658  21.093  0.00  0.00    +0.000 A 
ATOM      3 CL   UNL     1      -0.284   9.022  22.507  0.00  0.00    +0.000 Cl
ATOM      4  C   UNL     1       1.166   7.352  21.031  0.00  0.00    +0.000 A 
ATOM      5  C   UNL     1       1.963   6.936  19.967  0.00  0.00    +0.000 A 
ATOM      6  C   UNL     1       2.222   7.849  18.944  0.00  0.00    +0.000 A 
ATOM      7  C   UNL     1       1.679   9.150  18.976  0.00  0.00    +0.000 A 
ATOM      8 CL   UNL     1       1.920  10.098  17.547  0.00  0.00    +0.000 Cl
ENDROOT
BRANCH   5   9
ATOM      9  N   UNL     1       2.495   5.631  19.862  0.00  0.00    +0.000 N 
ATOM     10  C   UNL     1       2.261   4.734  18.836  0.00  0.00    +0.000 C 
ATOM     11  O   UNL     1       1.550   4.863  17.849  0.00  0.00    +0.000 OA
ATOM     12  H   UNL     1       3.126   5.308  20.593  0.00  0.00    +0.000 HD
BRANCH  10  13
ATOM     13  C   UNL     1       3.002   3.434  18.959  0.00  0.00    +0.000 A 
ATOM     14  N   UNL     1       2.848   2.398  18.204  0.00  0.00    +0.000 NA
ATOM     15  O   UNL     1       3.774   1.443  18.749  0.00  0.00    +0.000 OA
ATOM     16  C   UNL     1       4.391   2.058  19.819  0.00  0.00    +0.000 A 
ATOM     17  O   UNL     1       5.232   1.547  20.540  0.00  0.00    +0.000 OA
ATOM     18  N   UNL     1       3.905   3.299  19.936  0.00  0.00    +0.000 N 
ATOM     19  H   UNL     1       4.164   3.984  20.624  0.00  0.00    +0.000 HD
ENDBRANCH  10  13
ENDBRANCH   5   9
BRANCH   1  20
ATOM     20  C   UNL     1       0.304  10.937  20.138  0.00  0.00    +0.000 C 
ATOM     21  O   UNL     1       0.902  11.867  20.671  0.00  0.00    +0.000 OA
BRANCH  20  24
ATOM     22  C   UNL     1      -3.128  12.469  19.937  0.00  0.00    +0.000 A 
ATOM     23  C   UNL     1      -1.880  12.206  20.348  0.00  0.00    +0.000 A 
ATOM     24  C   UNL     1      -1.079  11.226  19.589  0.00  0.00    +0.000 A 
ATOM     25  N   UNL     1      -1.472  10.621  18.513  0.00  0.00    +0.000 NA
ATOM     26  N   UNL     1      -2.766  10.870  18.105  0.00  0.00    +0.000 N 
ATOM     27  C   UNL     1      -3.245  10.113  16.966  0.00  0.00    +0.000 C 
ATOM     28  C   UNL     1      -3.658  11.723  18.755  0.00  0.00    +0.000 A 
ATOM     29  O   UNL     1      -4.823  11.878  18.394  0.00  0.00    +0.000 OA
BRANCH  22  31
ATOM     30  C   UNL     1      -4.900  12.882  21.702  0.00  0.00    +0.000 C 
ATOM     31  C   UNL     1      -4.034  13.492  20.595  0.00  0.00    +0.000 C 
ATOM     32  C   UNL     1      -3.224  14.675  21.137  0.00  0.00    +0.000 C 
ENDBRANCH  22  31
ENDBRANCH  20  24
ENDBRANCH   1  20
TORSDOF 5
ENDMDL
MODEL 7
REMARK VINA RESULT:      -8.4      3.558      9.550
REMARK  Name = 
REMARK  8 active torsions:
REMARK  status: ('A' for Active; 'I' for Inactive)
REMARK    1  A    between atoms: C_1  and  C_2
REMARK    2  A    between atoms: C_2  and  C_3
REMARK    3  A    between atoms: C_2  and  C_4
REMARK    4  A    between atoms: C_6  and  C_7
REMARK    5  A    between atoms: C_7  and  C_9
REMARK    6  A    between atoms: C_13  and  N_14
REMARK    7  A    between atoms: C_15  and  C_17
REMARK    8  A    between atoms: N_27  and  C_28
REMARK                            x       y       z     vdW  Elec       q    Type
REMARK                         _______ _______ _______ _____ _____    ______ ____
ROOT
ATOM      1  C   UNL     1       0.982   9.806  20.408  0.00  0.00    +0.000 A 
ATOM      2  C   UNL     1       1.654   9.418  19.239  0.00  0.00    +0.000 A 
ATOM      3 CL   UNL     1       1.935  10.473  17.892  0.00  0.00    +0.000 Cl
ATOM      4  C   UNL     1       2.136   8.107  19.088  0.00  0.00    +0.000 A 
ATOM      5  C   UNL     1       1.948   7.146  20.079  0.00  0.00    +0.000 A 
ATOM      6  C   UNL     1       1.282   7.526  21.245  0.00  0.00    +0.000 A 
ATOM      7  C   UNL     1       0.828   8.849  21.424  0.00  0.00    +0.000 A 
ATOM      8 CL   UNL     1       0.204   9.221  22.997  0.00  0.00    +0.000 Cl
ENDROOT
BRANCH   5   9
ATOM      9  N   UNL     1       2.422   5.819  19.971  0.00  0.00    +0.000 N 
ATOM     10  C   UNL     1       2.332   5.007  18.855  0.00  0.00    +0.000 C 
ATOM     11  O   UNL     1       1.819   5.247  17.770  0.00  0.00    +0.000 OA
ATOM     12  H   UNL     1       2.892   5.408  20.776  0.00  0.00    +0.000 HD
BRANCH  10  13
ATOM     13  C   UNL     1       2.969   3.657  19.007  0.00  0.00    +0.000 A 
ATOM     14  N   UNL     1       2.648   2.589  18.359  0.00  0.00    +0.000 NA
ATOM     15  O   UNL     1       3.543   1.594  18.883  0.00  0.00    +0.000 OA
ATOM     16  C   UNL     1       4.321   2.224  19.832  0.00  0.00    +0.000 A 
ATOM     17  O   UNL     1       5.188   1.691  20.505  0.00  0.00    +0.000 OA
ATOM     18  N   UNL     1       3.957   3.509  19.897  0.00  0.00    +0.000 N 
ATOM     19  H   UNL     1       4.345   4.215  20.498  0.00  0.00    +0.000 HD
ENDBRANCH  10  13
ENDBRANCH   5   9
BRANCH   1  20
ATOM     20  C   UNL     1       0.533  11.215  20.559  0.00  0.00    +0.000 C 
ATOM     21  O   UNL     1       1.324  12.097  20.878  0.00  0.00    +0.000 OA
BRANCH  20  24
ATOM     22  C   UNL     1      -2.765  11.653  18.799  0.00  0.00    +0.000 A 
ATOM     23  C   UNL     1      -1.503  11.280  19.050  0.00  0.00    +0.000 A 
ATOM     24  C   UNL     1      -0.915  11.620  20.360  0.00  0.00    +0.000 A 
ATOM     25  N   UNL     1      -1.541  12.220  21.322  0.00  0.00    +0.000 NA
ATOM     26  N   UNL     1      -2.832  12.628  21.055  0.00  0.00    +0.000 N 
ATOM     27  C   UNL     1      -3.498  13.394  22.089  0.00  0.00    +0.000 C 
ATOM     28  C   UNL     1      -3.497  12.431  19.845  0.00  0.00    +0.000 A 
ATOM     29  O   UNL     1      -4.628  12.859  19.623  0.00  0.00    +0.000 OA
BRANCH  22  31
ATOM     30  C   UNL     1      -2.561  11.197  16.314  0.00  0.00    +0.000 C 
ATOM     31  C   UNL     1      -3.503  11.319  17.516  0.00  0.00    +0.000 C 
ATOM     32  C   UNL     1      -4.336  10.044  17.677  0.00  0.00    +0.000 C 
ENDBRANCH  22  31
ENDBRANCH  20  24
ENDBRANCH   1  20
TORSDOF 5
ENDMDL
MODEL 8
REMARK VINA RESULT:      -8.4      2.754      4.479
REMARK  Name = 
REMARK  8 active torsions:
REMARK  status: ('A' for Active; 'I' for Inactive)
REMARK    1  A    between atoms: C_1  and  C_2
REMARK    2  A    between atoms: C_2  and  C_3
REMARK    3  A    between atoms: C_2  and  C_4
REMARK    4  A    between atoms: C_6  and  C_7
REMARK    5  A    between atoms: C_7  and  C_9
REMARK    6  A    between atoms: C_13  and  N_14
REMARK    7  A    between atoms: C_15  and  C_17
REMARK    8  A    between atoms: N_27  and  C_28
REMARK                            x       y       z     vdW  Elec       q    Type
REMARK                         _______ _______ _______ _____ _____    ______ ____
ROOT
ATOM      1  C   UNL     1       5.072   5.514  17.172  0.00  0.00    +0.000 A 
ATOM      2  C   UNL     1       5.300   6.880  17.401  0.00  0.00    +0.000 A 
ATOM      3 CL   UNL     1       6.835   7.652  17.170  0.00  0.00    +0.000 Cl
ATOM      4  C   UNL     1       4.268   7.715  17.859  0.00  0.00    +0.000 A 
ATOM      5  C   UNL     1       2.993   7.218  18.119  0.00  0.00    +0.000 A 
ATOM      6  C   UNL     1       2.758   5.861  17.892  0.00  0.00    +0.000 A 
ATOM      7  C   UNL     1       3.776   5.021  17.396  0.00  0.00    +0.000 A 
ATOM      8 CL   UNL     1       3.282   3.414  16.974  0.00  0.00    +0.000 Cl
ENDROOT
BRANCH   5   9
ATOM      9  N   UNL     1       1.925   8.024  18.574  0.00  0.00    +0.000 N 
ATOM     10  C   UNL     1       1.649   9.318  18.171  0.00  0.00    +0.000 C 
ATOM     11  O   UNL     1       2.262  10.025  17.383  0.00  0.00    +0.000 OA
ATOM     12  H   UNL     1       1.276   7.627  19.251  0.00  0.00    +0.000 HD
BRANCH  10  13
ATOM     13  C   UNL     1       0.417   9.916  18.783  0.00  0.00    +0.000 A 
ATOM     14  N   UNL     1       0.170  10.023  20.045  0.00  0.00    +0.000 NA
ATOM     15  O   UNL     1      -1.125  10.646  20.085  0.00  0.00    +0.000 OA
ATOM     16  C   UNL     1      -1.511  10.837  18.775  0.00  0.00    +0.000 A 
ATOM     17  O   UNL     1      -2.567  11.330  18.412  0.00  0.00    +0.000 OA
ATOM     18  N   UNL     1      -0.541  10.383  17.974  0.00  0.00    +0.000 N 
ATOM     19  H   UNL     1      -0.539  10.388  16.968  0.00  0.00    +0.000 HD
ENDBRANCH  10  13
ENDBRANCH   5   9
BRANCH   1  20
ATOM     20  C   UNL     1       6.170   4.669  16.636  0.00  0.00    +0.000 C 
ATOM     21  O   UNL     1       6.879   4.007  17.387  0.00  0.00    +0.000 OA
BRANCH  20  24
ATOM     22  C   UNL     1       5.918   3.553  13.050  0.00  0.00    +0.000 A 
ATOM     23  C   UNL     1       5.656   3.683  14.357  0.00  0.00    +0.000 A 
ATOM     24  C   UNL     1       6.485   4.609  15.153  0.00  0.00    +0.000 A 
ATOM     25  N   UNL     1       7.431   5.355  14.677  0.00  0.00    +0.000 NA
ATOM     26  N   UNL     1       7.718   5.202  13.337  0.00  0.00    +0.000 N 
ATOM     27  C   UNL     1       8.846   5.954  12.825  0.00  0.00    +0.000 C 
ATOM     28  C   UNL     1       7.062   4.323  12.474  0.00  0.00    +0.000 A 
ATOM     29  O   UNL     1       7.383   4.173  11.297  0.00  0.00    +0.000 OA
BRANCH  22  31
ATOM     30  C   UNL     1       4.240   3.496  11.150  0.00  0.00    +0.000 C 
ATOM     31  C   UNL     1       5.108   2.678  12.112  0.00  0.00    +0.000 C 
ATOM     32  C   UNL     1       6.016   1.719  11.334  0.00  0.00    +0.000 C 
ENDBRANCH  22  31
ENDBRANCH  20  24
ENDBRANCH   1  20
TORSDOF 5
ENDMDL
MODEL 9
REMARK VINA RESULT:      -8.4      3.633      9.579
REMARK  Name = 
REMARK  8 active torsions:
REMARK  status: ('A' for Active; 'I' for Inactive)
REMARK    1  A    between atoms: C_1  and  C_2
REMARK    2  A    between atoms: C_2  and  C_3
REMARK    3  A    between atoms: C_2  and  C_4
REMARK    4  A    between atoms: C_6  and  C_7
REMARK    5  A    between atoms: C_7  and  C_9
REMARK    6  A    between atoms: C_13  and  N_14
REMARK    7  A    between atoms: C_15  and  C_17
REMARK    8  A    between atoms: N_27  and  C_28
REMARK                            x       y       z     vdW  Elec       q    Type
REMARK                         _______ _______ _______ _____ _____    ______ ____
ROOT
ATOM      1  C   UNL     1       0.984   9.737  20.133  0.00  0.00    +0.000 A 
ATOM      2  C   UNL     1       1.724   9.361  19.001  0.00  0.00    +0.000 A 
ATOM      3 CL   UNL     1       2.056  10.422  17.671  0.00  0.00    +0.000 Cl
ATOM      4  C   UNL     1       2.237   8.060  18.877  0.00  0.00    +0.000 A 
ATOM      5  C   UNL     1       2.016   7.095  19.857  0.00  0.00    +0.000 A 
ATOM      6  C   UNL     1       1.282   7.462  20.987  0.00  0.00    +0.000 A 
ATOM      7  C   UNL     1       0.794   8.776  21.140  0.00  0.00    +0.000 A 
ATOM      8 CL   UNL     1       0.080   9.135  22.677  0.00  0.00    +0.000 Cl
ENDROOT
BRANCH   5   9
ATOM      9  N   UNL     1       2.519   5.777  19.775  0.00  0.00    +0.000 N 
ATOM     10  C   UNL     1       2.257   4.863  18.771  0.00  0.00    +0.000 C 
ATOM     11  O   UNL     1       1.539   4.987  17.788  0.00  0.00    +0.000 OA
ATOM     12  H   UNL     1       3.150   5.456  20.507  0.00  0.00    +0.000 HD
BRANCH  10  13
ATOM     13  C   UNL     1       2.971   3.551  18.915  0.00  0.00    +0.000 A 
ATOM     14  N   UNL     1       2.803   2.510  18.171  0.00  0.00    +0.000 NA
ATOM     15  O   UNL     1       3.706   1.544  18.734  0.00  0.00    +0.000 OA
ATOM     16  C   UNL     1       4.326   2.158  19.802  0.00  0.00    +0.000 A 
ATOM     17  O   UNL     1       5.151   1.640  20.536  0.00  0.00    +0.000 OA
ATOM     18  N   UNL     1       3.863   3.409  19.901  0.00  0.00    +0.000 N 
ATOM     19  H   UNL     1       4.130   4.097  20.584  0.00  0.00    +0.000 HD
ENDBRANCH  10  13
ENDBRANCH   5   9
BRANCH   1  20
ATOM     20  C   UNL     1       0.501  11.137  20.259  0.00  0.00    +0.000 C 
ATOM     21  O   UNL     1       1.236  12.020  20.688  0.00  0.00    +0.000 OA
BRANCH  20  24
ATOM     22  C   UNL     1      -2.980  12.489  20.734  0.00  0.00    +0.000 A 
ATOM     23  C   UNL     1      -1.704  12.161  20.979  0.00  0.00    +0.000 A 
ATOM     24  C   UNL     1      -0.919  11.530  19.900  0.00  0.00    +0.000 A 
ATOM     25  N   UNL     1      -1.354  11.303  18.701  0.00  0.00    +0.000 NA
ATOM     26  N   UNL     1      -2.675  11.615  18.457  0.00  0.00    +0.000 N 
ATOM     27  C   UNL     1      -3.195  11.263  17.151  0.00  0.00    +0.000 C 
ATOM     28  C   UNL     1      -3.554  12.159  19.394  0.00  0.00    +0.000 A 
ATOM     29  O   UNL     1      -4.741  12.373  19.157  0.00  0.00    +0.000 OA
BRANCH  22  31
ATOM     30  C   UNL     1      -3.691  12.656  23.162  0.00  0.00    +0.000 C 
ATOM     31  C   UNL     1      -3.876  13.190  21.738  0.00  0.00    +0.000 C 
ATOM     32  C   UNL     1      -3.661  14.707  21.701  0.00  0.00    +0.000 C 
ENDBRANCH  22  31
ENDBRANCH  20  24
ENDBRANCH   1  20
TORSDOF 5
ENDMDL
