MODEL 1
REMARK VINA RESULT:      -8.0      0.000      0.000
REMARK  Name = 
REMARK  4 active torsions:
REMARK  status: ('A' for Active; 'I' for Inactive)
REMARK    1  A    between atoms: C_1  and  C_2
REMARK    2  A    between atoms: C_2  and  N_3
REMARK    3  A    between atoms: C_9  and  N_10
REMARK    4  A    between atoms: N_13  and  C_14
REMARK                            x       y       z     vdW  Elec       q    Type
REMARK                         _______ _______ _______ _____ _____    ______ ____
ROOT
ATOM      1  N   UNL     1       1.877   5.758  21.335  0.00  0.00    +0.000 N 
ATOM      2  C   UNL     1       2.265   4.568  20.768  0.00  0.00    +0.000 C 
ATOM      3  O   UNL     1       2.382   3.559  21.459  0.00  0.00    +0.000 OA
ATOM      4  N   UNL     1       2.541   4.600  19.441  0.00  0.00    +0.000 N 
ATOM      5  H   UNL     1       1.736   5.705  22.332  0.00  0.00    +0.000 HD
ATOM      6  H   UNL     1       2.228   5.435  18.948  0.00  0.00    +0.000 HD
ENDROOT
BRANCH   1  13
ATOM      7  N   UNL     1       1.699  11.276  17.880  0.00  0.00    +0.000 N 
ATOM      8  C   UNL     1       1.148  10.693  18.969  0.00  0.00    +0.000 A 
ATOM      9  N   UNL     1       0.291  11.253  19.823  0.00  0.00    +0.000 NA
ATOM     10  N   UNL     1       0.046  10.288  20.729  0.00  0.00    +0.000 N 
ATOM     11  C   UNL     1       0.747   9.132  20.523  0.00  0.00    +0.000 A 
ATOM     12  C   UNL     1       0.830   7.927  21.230  0.00  0.00    +0.000 A 
ATOM     13  C   UNL     1       1.692   6.985  20.682  0.00  0.00    +0.000 A 
ATOM     14  N   UNL     1       2.382   7.194  19.537  0.00  0.00    +0.000 NA
ATOM     15  C   UNL     1       2.281   8.360  18.866  0.00  0.00    +0.000 A 
ATOM     16  C   UNL     1       1.463   9.367  19.356  0.00  0.00    +0.000 A 
ATOM     17  H   UNL     1       2.467  10.800  17.418  0.00  0.00    +0.000 HD
ATOM     18  H   UNL     1      -0.603  10.494  21.478  0.00  0.00    +0.000 HD
BRANCH   7  20
ATOM     19  C   UNL     1       3.002  13.190  18.612  0.00  0.00    +0.000 C 
ATOM     20  C   UNL     1       1.794  12.724  17.818  0.00  0.00    +0.000 C 
ENDBRANCH   7  20
ENDBRANCH   1  13
BRANCH   4  21
ATOM     21  C   UNL     1       2.930   3.489  18.590  0.00  0.00    +0.000 C 
ATOM     22  C   UNL     1       4.172   2.799  19.183  0.00  0.00    +0.000 C 
ATOM     23  N   UNL     1       5.337   3.694  19.179  0.00  0.00    +0.000 N 
ATOM     24  C   UNL     1       5.645   4.225  17.914  0.00  0.00    +0.000 A 
ATOM     25  C   UNL     1       6.947   4.676  17.655  0.00  0.00    +0.000 A 
ATOM     26  C   UNL     1       7.277   5.249  16.426  0.00  0.00    +0.000 A 
ATOM     27  C   UNL     1       6.297   5.421  15.454  0.00  0.00    +0.000 A 
ATOM     28  C   UNL     1       4.988   5.019  15.714  0.00  0.00    +0.000 A 
ATOM     29  C   UNL     1       4.650   4.429  16.943  0.00  0.00    +0.000 A 
ATOM     30  C   UNL     1       3.228   3.954  17.158  0.00  0.00    +0.000 C 
ATOM     31  H   UNL     1       6.151   3.293  19.635  0.00  0.00    +0.000 HD
ENDBRANCH   4  21
TORSDOF 3
ENDMDL
MODEL 2
REMARK VINA RESULT:      -7.7      1.363      1.535
REMARK  Name = 
REMARK  4 active torsions:
REMARK  status: ('A' for Active; 'I' for Inactive)
REMARK    1  A    between atoms: C_1  and  C_2
REMARK    2  A    between atoms: C_2  and  N_3
REMARK    3  A    between atoms: C_9  and  N_10
REMARK    4  A    between atoms: N_13  and  C_14
REMARK                            x       y       z     vdW  Elec       q    Type
REMARK                         _______ _______ _______ _____ _____    ______ ____
ROOT
ATOM      1  N   UNL     1       1.499   6.329  21.074  0.00  0.00    +0.000 N 
ATOM      2  C   UNL     1       2.158   5.344  20.379  0.00  0.00    +0.000 C 
ATOM      3  O   UNL     1       2.291   4.223  20.863  0.00  0.00    +0.000 OA
ATOM      4  N   UNL     1       2.670   5.702  19.175  0.00  0.00    +0.000 N 
ATOM      5  H   UNL     1       1.183   6.039  21.986  0.00  0.00    +0.000 HD
ATOM      6  H   UNL     1       2.336   6.590  18.803  0.00  0.00    +0.000 HD
ENDROOT
BRANCH   1  13
ATOM      7  N   UNL     1       0.928  12.293  18.519  0.00  0.00    +0.000 N 
ATOM      8  C   UNL     1       0.623  11.586  19.632  0.00  0.00    +0.000 A 
ATOM      9  N   UNL     1       0.064  12.059  20.746  0.00  0.00    +0.000 NA
ATOM     10  N   UNL     1      -0.024  10.986  21.555  0.00  0.00    +0.000 N 
ATOM     11  C   UNL     1       0.498   9.838  21.026  0.00  0.00    +0.000 A 
ATOM     12  C   UNL     1       0.653   8.540  21.526  0.00  0.00    +0.000 A 
ATOM     13  C   UNL     1       1.262   7.646  20.655  0.00  0.00    +0.000 A 
ATOM     14  N   UNL     1       1.652   7.984  19.404  0.00  0.00    +0.000 NA
ATOM     15  C   UNL     1       1.486   9.238  18.938  0.00  0.00    +0.000 A 
ATOM     16  C   UNL     1       0.910  10.204  19.750  0.00  0.00    +0.000 A 
ATOM     17  H   UNL     1       1.508  11.850  17.815  0.00  0.00    +0.000 HD
ATOM     18  H   UNL     1      -0.441  11.114  22.468  0.00  0.00    +0.000 HD
BRANCH   7  20
ATOM     19  C   UNL     1       2.581  14.060  18.321  0.00  0.00    +0.000 C 
ATOM     20  C   UNL     1       1.128  13.727  18.619  0.00  0.00    +0.000 C 
ENDBRANCH   7  20
ENDBRANCH   1  13
BRANCH   4  21
ATOM     21  C   UNL     1       3.372   4.858  18.224  0.00  0.00    +0.000 C 
ATOM     22  C   UNL     1       4.283   3.876  18.984  0.00  0.00    +0.000 C 
ATOM     23  N   UNL     1       5.348   4.583  19.707  0.00  0.00    +0.000 N 
ATOM     24  C   UNL     1       6.128   5.425  18.896  0.00  0.00    +0.000 A 
ATOM     25  C   UNL     1       7.423   5.771  19.307  0.00  0.00    +0.000 A 
ATOM     26  C   UNL     1       8.209   6.641  18.549  0.00  0.00    +0.000 A 
ATOM     27  C   UNL     1       7.691   7.213  17.391  0.00  0.00    +0.000 A 
ATOM     28  C   UNL     1       6.389   6.916  16.995  0.00  0.00    +0.000 A 
ATOM     29  C   UNL     1       5.596   6.030  17.745  0.00  0.00    +0.000 A 
ATOM     30  C   UNL     1       4.209   5.690  17.243  0.00  0.00    +0.000 C 
ATOM     31  H   UNL     1       5.918   3.967  20.280  0.00  0.00    +0.000 HD
ENDBRANCH   4  21
TORSDOF 3
ENDMDL
MODEL 3
REMARK VINA RESULT:      -7.7      1.050      1.723
REMARK  Name = 
REMARK  4 active torsions:
REMARK  status: ('A' for Active; 'I' for Inactive)
REMARK    1  A    between atoms: C_1  and  C_2
REMARK    2  A    between atoms: C_2  and  N_3
REMARK    3  A    between atoms: C_9  and  N_10
REMARK    4  A    between atoms: N_13  and  C_14
REMARK                            x       y       z     vdW  Elec       q    Type
REMARK                         _______ _______ _______ _____ _____    ______ ____
ROOT
ATOM      1  N   UNL     1       2.008   5.499  21.364  0.00  0.00    +0.000 N 
ATOM      2  C   UNL     1       2.397   4.335  20.748  0.00  0.00    +0.000 C 
ATOM      3  O   UNL     1       2.525   3.300  21.398  0.00  0.00    +0.000 OA
ATOM      4  N   UNL     1       2.661   4.419  19.421  0.00  0.00    +0.000 N 
ATOM      5  H   UNL     1       1.876   5.407  22.359  0.00  0.00    +0.000 HD
ATOM      6  H   UNL     1       2.339   5.272  18.964  0.00  0.00    +0.000 HD
ENDROOT
BRANCH   1  13
ATOM      7  N   UNL     1       0.541  11.447  19.151  0.00  0.00    +0.000 N 
ATOM      8  C   UNL     1       1.192  10.317  18.793  0.00  0.00    +0.000 A 
ATOM      9  N   UNL     1       1.765  10.069  17.615  0.00  0.00    +0.000 NA
ATOM     10  N   UNL     1       2.264   8.825  17.743  0.00  0.00    +0.000 N 
ATOM     11  C   UNL     1       1.999   8.234  18.947  0.00  0.00    +0.000 A 
ATOM     12  C   UNL     1       2.280   6.967  19.471  0.00  0.00    +0.000 A 
ATOM     13  C   UNL     1       1.811   6.750  20.761  0.00  0.00    +0.000 A 
ATOM     14  N   UNL     1       1.157   7.693  21.477  0.00  0.00    +0.000 NA
ATOM     15  C   UNL     1       0.904   8.912  20.956  0.00  0.00    +0.000 A 
ATOM     16  C   UNL     1       1.313   9.206  19.664  0.00  0.00    +0.000 A 
ATOM     17  H   UNL     1       0.002  11.437  20.011  0.00  0.00    +0.000 HD
ATOM     18  H   UNL     1       2.765   8.432  16.956  0.00  0.00    +0.000 HD
BRANCH   7  20
ATOM     19  C   UNL     1      -1.499  11.981  17.947  0.00  0.00    +0.000 C 
ATOM     20  C   UNL     1      -0.024  12.301  18.122  0.00  0.00    +0.000 C 
ENDBRANCH   7  20
ENDBRANCH   1  13
BRANCH   4  21
ATOM     21  C   UNL     1       3.048   3.344  18.524  0.00  0.00    +0.000 C 
ATOM     22  C   UNL     1       4.321   2.663  19.059  0.00  0.00    +0.000 C 
ATOM     23  N   UNL     1       5.466   3.583  19.050  0.00  0.00    +0.000 N 
ATOM     24  C   UNL     1       5.726   4.159  17.794  0.00  0.00    +0.000 A 
ATOM     25  C   UNL     1       7.010   4.647  17.513  0.00  0.00    +0.000 A 
ATOM     26  C   UNL     1       7.292   5.265  16.293  0.00  0.00    +0.000 A 
ATOM     27  C   UNL     1       6.280   5.446  15.356  0.00  0.00    +0.000 A 
ATOM     28  C   UNL     1       4.988   5.008  15.641  0.00  0.00    +0.000 A 
ATOM     29  C   UNL     1       4.698   4.372  16.860  0.00  0.00    +0.000 A 
ATOM     30  C   UNL     1       3.294   3.860  17.100  0.00  0.00    +0.000 C 
ATOM     31  H   UNL     1       6.302   3.185  19.469  0.00  0.00    +0.000 HD
ENDBRANCH   4  21
TORSDOF 3
ENDMDL
MODEL 4
REMARK VINA RESULT:      -7.6      3.031      6.168
REMARK  Name = 
REMARK  4 active torsions:
REMARK  status: ('A' for Active; 'I' for Inactive)
REMARK    1  A    between atoms: C_1  and  C_2
REMARK    2  A    between atoms: C_2  and  N_3
REMARK    3  A    between atoms: C_9  and  N_10
REMARK    4  A    between atoms: N_13  and  C_14
REMARK                            x       y       z     vdW  Elec       q    Type
REMARK                         _______ _______ _______ _____ _____    ______ ____
ROOT
ATOM      1  N   UNL     1       5.596   3.228  19.029  0.00  0.00    +0.000 N 
ATOM      2  C   UNL     1       4.237   3.092  19.176  0.00  0.00    +0.000 C 
ATOM      3  O   UNL     1       3.736   1.981  19.326  0.00  0.00    +0.000 OA
ATOM      4  N   UNL     1       3.511   4.234  19.104  0.00  0.00    +0.000 N 
ATOM      5  H   UNL     1       6.094   2.352  19.032  0.00  0.00    +0.000 HD
ATOM      6  H   UNL     1       4.046   5.100  19.167  0.00  0.00    +0.000 HD
ENDROOT
BRANCH   1  13
ATOM      7  N   UNL     1       8.989   8.788  19.052  0.00  0.00    +0.000 N 
ATOM      8  C   UNL     1       8.242   8.009  18.236  0.00  0.00    +0.000 A 
ATOM      9  N   UNL     1       7.890   8.282  16.980  0.00  0.00    +0.000 NA
ATOM     10  N   UNL     1       7.151   7.221  16.604  0.00  0.00    +0.000 N 
ATOM     11  C   UNL     1       6.971   6.285  17.584  0.00  0.00    +0.000 A 
ATOM     12  C   UNL     1       6.252   5.085  17.638  0.00  0.00    +0.000 A 
ATOM     13  C   UNL     1       6.313   4.422  18.857  0.00  0.00    +0.000 A 
ATOM     14  N   UNL     1       7.032   4.875  19.910  0.00  0.00    +0.000 NA
ATOM     15  C   UNL     1       7.725   6.030  19.834  0.00  0.00    +0.000 A 
ATOM     16  C   UNL     1       7.699   6.772  18.662  0.00  0.00    +0.000 A 
ATOM     17  H   UNL     1       9.035   8.545  20.035  0.00  0.00    +0.000 HD
ATOM     18  H   UNL     1       6.784   7.209  15.660  0.00  0.00    +0.000 HD
BRANCH   7  20
ATOM     19  C   UNL     1       9.668  10.914  20.009  0.00  0.00    +0.000 C 
ATOM     20  C   UNL     1       9.063  10.216  18.802  0.00  0.00    +0.000 C 
ENDBRANCH   7  20
ENDBRANCH   1  13
BRANCH   4  21
ATOM     21  C   UNL     1       2.074   4.383  19.264  0.00  0.00    +0.000 C 
ATOM     22  C   UNL     1       1.466   4.928  17.959  0.00  0.00    +0.000 C 
ATOM     23  N   UNL     1       1.948   6.285  17.669  0.00  0.00    +0.000 N 
ATOM     24  C   UNL     1       1.736   7.203  18.713  0.00  0.00    +0.000 A 
ATOM     25  C   UNL     1       1.689   8.574  18.426  0.00  0.00    +0.000 A 
ATOM     26  C   UNL     1       1.525   9.515  19.443  0.00  0.00    +0.000 A 
ATOM     27  C   UNL     1       1.452   9.099  20.769  0.00  0.00    +0.000 A 
ATOM     28  C   UNL     1       1.545   7.742  21.074  0.00  0.00    +0.000 A 
ATOM     29  C   UNL     1       1.696   6.787  20.055  0.00  0.00    +0.000 A 
ATOM     30  C   UNL     1       1.732   5.320  20.429  0.00  0.00    +0.000 C 
ATOM     31  H   UNL     1       1.623   6.642  16.774  0.00  0.00    +0.000 HD
ENDBRANCH   4  21
TORSDOF 3
ENDMDL
MODEL 5
REMARK VINA RESULT:      -7.5      2.359      4.409
REMARK  Name = 
REMARK  4 active torsions:
REMARK  status: ('A' for Active; 'I' for Inactive)
REMARK    1  A    between atoms: C_1  and  C_2
REMARK    2  A    between atoms: C_2  and  N_3
REMARK    3  A    between atoms: C_9  and  N_10
REMARK    4  A    between atoms: N_13  and  C_14
REMARK                            x       y       z     vdW  Elec       q    Type
REMARK                         _______ _______ _______ _____ _____    ______ ____
ROOT
ATOM      1  N   UNL     1       3.978   7.732  16.928  0.00  0.00    +0.000 N 
ATOM      2  C   UNL     1       4.375   6.432  16.730  0.00  0.00    +0.000 C 
ATOM      3  O   UNL     1       5.258   6.168  15.917  0.00  0.00    +0.000 OA
ATOM      4  N   UNL     1       3.712   5.489  17.443  0.00  0.00    +0.000 N 
ATOM      5  H   UNL     1       4.455   8.396  16.339  0.00  0.00    +0.000 HD
ATOM      6  H   UNL     1       3.142   5.840  18.212  0.00  0.00    +0.000 HD
ENDROOT
BRANCH   1  13
ATOM      7  N   UNL     1      -0.583  10.551  20.625  0.00  0.00    +0.000 N 
ATOM      8  C   UNL     1       0.257   9.491  20.608  0.00  0.00    +0.000 A 
ATOM      9  N   UNL     1       0.439   8.605  21.587  0.00  0.00    +0.000 NA
ATOM     10  N   UNL     1       1.369   7.761  21.104  0.00  0.00    +0.000 N 
ATOM     11  C   UNL     1       1.834   8.089  19.860  0.00  0.00    +0.000 A 
ATOM     12  C   UNL     1       2.810   7.530  19.027  0.00  0.00    +0.000 A 
ATOM     13  C   UNL     1       2.996   8.190  17.819  0.00  0.00    +0.000 A 
ATOM     14  N   UNL     1       2.276   9.275  17.452  0.00  0.00    +0.000 NA
ATOM     15  C   UNL     1       1.334   9.793  18.266  0.00  0.00    +0.000 A 
ATOM     16  C   UNL     1       1.099   9.213  19.504  0.00  0.00    +0.000 A 
ATOM     17  H   UNL     1      -0.496  11.243  19.888  0.00  0.00    +0.000 HD
ATOM     18  H   UNL     1       1.655   6.985  21.687  0.00  0.00    +0.000 HD
BRANCH   7  20
ATOM     19  C   UNL     1      -0.446  12.517  22.044  0.00  0.00    +0.000 C 
ATOM     20  C   UNL     1      -1.001  11.110  21.899  0.00  0.00    +0.000 C 
ENDBRANCH   7  20
ENDBRANCH   1  13
BRANCH   4  21
ATOM     21  C   UNL     1       3.953   4.056  17.456  0.00  0.00    +0.000 C 
ATOM     22  C   UNL     1       2.685   3.319  16.988  0.00  0.00    +0.000 C 
ATOM     23  N   UNL     1       1.572   3.516  17.926  0.00  0.00    +0.000 N 
ATOM     24  C   UNL     1       1.871   3.154  19.251  0.00  0.00    +0.000 A 
ATOM     25  C   UNL     1       0.827   2.830  20.129  0.00  0.00    +0.000 A 
ATOM     26  C   UNL     1       1.083   2.509  21.463  0.00  0.00    +0.000 A 
ATOM     27  C   UNL     1       2.386   2.555  21.950  0.00  0.00    +0.000 A 
ATOM     28  C   UNL     1       3.429   2.921  21.101  0.00  0.00    +0.000 A 
ATOM     29  C   UNL     1       3.181   3.231  19.753  0.00  0.00    +0.000 A 
ATOM     30  C   UNL     1       4.353   3.565  18.854  0.00  0.00    +0.000 C 
ATOM     31  H   UNL     1       0.701   3.104  17.604  0.00  0.00    +0.000 HD
ENDBRANCH   4  21
TORSDOF 3
ENDMDL
MODEL 6
REMARK VINA RESULT:      -7.5      6.343      9.387
REMARK  Name = 
REMARK  4 active torsions:
REMARK  status: ('A' for Active; 'I' for Inactive)
REMARK    1  A    between atoms: C_1  and  C_2
REMARK    2  A    between atoms: C_2  and  N_3
REMARK    3  A    between atoms: C_9  and  N_10
REMARK    4  A    between atoms: N_13  and  C_14
REMARK                            x       y       z     vdW  Elec       q    Type
REMARK                         _______ _______ _______ _____ _____    ______ ____
ROOT
ATOM      1  N   UNL     1       6.029  17.215  18.762  0.00  0.00    +0.000 N 
ATOM      2  C   UNL     1       7.402  17.150  18.769  0.00  0.00    +0.000 C 
ATOM      3  O   UNL     1       8.073  18.141  18.490  0.00  0.00    +0.000 OA
ATOM      4  N   UNL     1       7.942  15.940  19.055  0.00  0.00    +0.000 N 
ATOM      5  H   UNL     1       5.668  18.115  18.489  0.00  0.00    +0.000 HD
ATOM      6  H   UNL     1       7.298  15.255  19.450  0.00  0.00    +0.000 HD
ENDROOT
BRANCH   1  13
ATOM      7  N   UNL     1       1.785  12.309  19.346  0.00  0.00    +0.000 N 
ATOM      8  C   UNL     1       2.377  13.287  20.070  0.00  0.00    +0.000 A 
ATOM      9  N   UNL     1       2.134  13.589  21.345  0.00  0.00    +0.000 NA
ATOM     10  N   UNL     1       2.952  14.627  21.603  0.00  0.00    +0.000 N 
ATOM     11  C   UNL     1       3.689  15.042  20.529  0.00  0.00    +0.000 A 
ATOM     12  C   UNL     1       4.603  16.086  20.343  0.00  0.00    +0.000 A 
ATOM     13  C   UNL     1       5.132  16.180  19.062  0.00  0.00    +0.000 A 
ATOM     14  N   UNL     1       4.818  15.317  18.069  0.00  0.00    +0.000 NA
ATOM     15  C   UNL     1       3.941  14.313  18.270  0.00  0.00    +0.000 A 
ATOM     16  C   UNL     1       3.343  14.159  19.513  0.00  0.00    +0.000 A 
ATOM     17  H   UNL     1       1.934  12.300  18.343  0.00  0.00    +0.000 HD
ATOM     18  H   UNL     1       2.944  15.016  22.537  0.00  0.00    +0.000 HD
BRANCH   7  20
ATOM     19  C   UNL     1       0.541  10.315  19.956  0.00  0.00    +0.000 C 
ATOM     20  C   UNL     1       0.478  11.819  19.744  0.00  0.00    +0.000 C 
ENDBRANCH   7  20
ENDBRANCH   1  13
BRANCH   4  21
ATOM     21  C   UNL     1       9.350  15.603  19.168  0.00  0.00    +0.000 C 
ATOM     22  C   UNL     1       9.855  15.049  17.824  0.00  0.00    +0.000 C 
ATOM     23  N   UNL     1       9.197  13.780  17.485  0.00  0.00    +0.000 N 
ATOM     24  C   UNL     1       9.312  12.793  18.479  0.00  0.00    +0.000 A 
ATOM     25  C   UNL     1       9.176  11.443  18.128  0.00  0.00    +0.000 A 
ATOM     26  C   UNL     1       9.240  10.440  19.097  0.00  0.00    +0.000 A 
ATOM     27  C   UNL     1       9.394  10.777  20.437  0.00  0.00    +0.000 A 
ATOM     28  C   UNL     1       9.483  12.118  20.807  0.00  0.00    +0.000 A 
ATOM     29  C   UNL     1       9.434  13.134  19.837  0.00  0.00    +0.000 A 
ATOM     30  C   UNL     1       9.595  14.573  20.279  0.00  0.00    +0.000 C 
ATOM     31  H   UNL     1       9.453  13.430  16.566  0.00  0.00    +0.000 HD
ENDBRANCH   4  21
TORSDOF 3
ENDMDL
MODEL 7
REMARK VINA RESULT:      -7.3      6.446      9.268
REMARK  Name = 
REMARK  4 active torsions:
REMARK  status: ('A' for Active; 'I' for Inactive)
REMARK    1  A    between atoms: C_1  and  C_2
REMARK    2  A    between atoms: C_2  and  N_3
REMARK    3  A    between atoms: C_9  and  N_10
REMARK    4  A    between atoms: N_13  and  C_14
REMARK                            x       y       z     vdW  Elec       q    Type
REMARK                         _______ _______ _______ _____ _____    ______ ____
ROOT
ATOM      1  N   UNL     1       5.422  16.908  18.554  0.00  0.00    +0.000 N 
ATOM      2  C   UNL     1       6.765  16.945  18.841  0.00  0.00    +0.000 C 
ATOM      3  O   UNL     1       7.443  17.918  18.519  0.00  0.00    +0.000 OA
ATOM      4  N   UNL     1       7.278  15.847  19.447  0.00  0.00    +0.000 N 
ATOM      5  H   UNL     1       5.092  17.719  18.053  0.00  0.00    +0.000 HD
ATOM      6  H   UNL     1       6.592  15.196  19.829  0.00  0.00    +0.000 HD
ENDROOT
BRANCH   1  13
ATOM      7  N   UNL     1       1.414  12.275  20.766  0.00  0.00    +0.000 N 
ATOM      8  C   UNL     1       1.990  12.719  19.625  0.00  0.00    +0.000 A 
ATOM      9  N   UNL     1       1.907  12.153  18.421  0.00  0.00    +0.000 NA
ATOM     10  N   UNL     1       2.646  12.949  17.627  0.00  0.00    +0.000 N 
ATOM     11  C   UNL     1       3.246  13.991  18.278  0.00  0.00    +0.000 A 
ATOM     12  C   UNL     1       4.117  15.005  17.859  0.00  0.00    +0.000 A 
ATOM     13  C   UNL     1       4.520  15.879  18.861  0.00  0.00    +0.000 A 
ATOM     14  N   UNL     1       4.090  15.786  20.140  0.00  0.00    +0.000 NA
ATOM     15  C   UNL     1       3.244  14.807  20.521  0.00  0.00    +0.000 A 
ATOM     16  C   UNL     1       2.810  13.873  19.592  0.00  0.00    +0.000 A 
ATOM     17  H   UNL     1       1.700  12.699  21.642  0.00  0.00    +0.000 HD
ATOM     18  H   UNL     1       2.712  12.711  16.645  0.00  0.00    +0.000 HD
BRANCH   7  20
ATOM     19  C   UNL     1      -0.074  10.718  21.887  0.00  0.00    +0.000 C 
ATOM     20  C   UNL     1       1.061  10.873  20.888  0.00  0.00    +0.000 C 
ENDBRANCH   7  20
ENDBRANCH   1  13
BRANCH   4  21
ATOM     21  C   UNL     1       8.644  15.637  19.894  0.00  0.00    +0.000 C 
ATOM     22  C   UNL     1       9.581  15.583  18.674  0.00  0.00    +0.000 C 
ATOM     23  N   UNL     1       9.287  14.421  17.824  0.00  0.00    +0.000 N 
ATOM     24  C   UNL     1       9.321  13.191  18.505  0.00  0.00    +0.000 A 
ATOM     25  C   UNL     1       9.541  12.010  17.783  0.00  0.00    +0.000 A 
ATOM     26  C   UNL     1       9.536  10.768  18.419  0.00  0.00    +0.000 A 
ATOM     27  C   UNL     1       9.264  10.687  19.781  0.00  0.00    +0.000 A 
ATOM     28  C   UNL     1       8.997  11.849  20.504  0.00  0.00    +0.000 A 
ATOM     29  C   UNL     1       9.014  13.105  19.873  0.00  0.00    +0.000 A 
ATOM     30  C   UNL     1       8.777  14.344  20.710  0.00  0.00    +0.000 C 
ATOM     31  H   UNL     1       9.839  14.401  16.970  0.00  0.00    +0.000 HD
ENDBRANCH   4  21
TORSDOF 3
ENDMDL
MODEL 8
REMARK VINA RESULT:      -7.3      1.998      7.263
REMARK  Name = 
REMARK  4 active torsions:
REMARK  status: ('A' for Active; 'I' for Inactive)
REMARK    1  A    between atoms: C_1  and  C_2
REMARK    2  A    between atoms: C_2  and  N_3
REMARK    3  A    between atoms: C_9  and  N_10
REMARK    4  A    between atoms: N_13  and  C_14
REMARK                            x       y       z     vdW  Elec       q    Type
REMARK                         _______ _______ _______ _____ _____    ______ ____
ROOT
ATOM      1  N   UNL     1       1.011   7.429  21.478  0.00  0.00    +0.000 N 
ATOM      2  C   UNL     1       0.179   8.520  21.417  0.00  0.00    +0.000 C 
ATOM      3  O   UNL     1      -0.527   8.819  22.377  0.00  0.00    +0.000 OA
ATOM      4  N   UNL     1       0.164   9.196  20.242  0.00  0.00    +0.000 N 
ATOM      5  H   UNL     1       0.951   6.921  22.347  0.00  0.00    +0.000 HD
ATOM      6  H   UNL     1       0.921   8.971  19.597  0.00  0.00    +0.000 HD
ENDROOT
BRANCH   1  13
ATOM      7  N   UNL     1       4.803   5.951  16.393  0.00  0.00    +0.000 N 
ATOM      8  C   UNL     1       4.303   5.415  17.530  0.00  0.00    +0.000 A 
ATOM      9  N   UNL     1       4.448   4.157  17.946  0.00  0.00    +0.000 NA
ATOM     10  N   UNL     1       3.769   4.110  19.107  0.00  0.00    +0.000 N 
ATOM     11  C   UNL     1       3.150   5.282  19.444  0.00  0.00    +0.000 A 
ATOM     12  C   UNL     1       2.323   5.653  20.511  0.00  0.00    +0.000 A 
ATOM     13  C   UNL     1       1.876   6.967  20.475  0.00  0.00    +0.000 A 
ATOM     14  N   UNL     1       2.229   7.841  19.504  0.00  0.00    +0.000 NA
ATOM     15  C   UNL     1       3.034   7.466  18.489  0.00  0.00    +0.000 A 
ATOM     16  C   UNL     1       3.506   6.163  18.431  0.00  0.00    +0.000 A 
ATOM     17  H   UNL     1       4.473   6.868  16.111  0.00  0.00    +0.000 HD
ATOM     18  H   UNL     1       3.758   3.234  19.615  0.00  0.00    +0.000 HD
BRANCH   7  20
ATOM     19  C   UNL     1       6.634   4.995  15.116  0.00  0.00    +0.000 C 
ATOM     20  C   UNL     1       5.125   5.082  15.276  0.00  0.00    +0.000 C 
ENDBRANCH   7  20
ENDBRANCH   1  13
BRANCH   4  21
ATOM     21  C   UNL     1      -0.586  10.397  19.920  0.00  0.00    +0.000 C 
ATOM     22  C   UNL     1      -0.487  10.675  18.410  0.00  0.00    +0.000 C 
ATOM     23  N   UNL     1       0.893  10.982  18.009  0.00  0.00    +0.000 N 
ATOM     24  C   UNL     1       1.474  12.042  18.727  0.00  0.00    +0.000 A 
ATOM     25  C   UNL     1       2.546  12.748  18.165  0.00  0.00    +0.000 A 
ATOM     26  C   UNL     1       3.175  13.777  18.868  0.00  0.00    +0.000 A 
ATOM     27  C   UNL     1       2.770  14.083  20.163  0.00  0.00    +0.000 A 
ATOM     28  C   UNL     1       1.735  13.358  20.753  0.00  0.00    +0.000 A 
ATOM     29  C   UNL     1       1.087  12.330  20.047  0.00  0.00    +0.000 A 
ATOM     30  C   UNL     1      -0.070  11.610  20.706  0.00  0.00    +0.000 C 
ATOM     31  H   UNL     1       1.002  11.094  17.005  0.00  0.00    +0.000 HD
ENDBRANCH   4  21
TORSDOF 3
ENDMDL
MODEL 9
REMARK VINA RESULT:      -7.3      6.124     10.513
REMARK  Name = 
REMARK  4 active torsions:
REMARK  status: ('A' for Active; 'I' for Inactive)
REMARK    1  A    between atoms: C_1  and  C_2
REMARK    2  A    between atoms: C_2  and  N_3
REMARK    3  A    between atoms: C_9  and  N_10
REMARK    4  A    between atoms: N_13  and  C_14
REMARK                            x       y       z     vdW  Elec       q    Type
REMARK                         _______ _______ _______ _____ _____    ______ ____
ROOT
ATOM      1  N   UNL     1      -2.168  13.707  23.666  0.00  0.00    +0.000 N 
ATOM      2  C   UNL     1      -3.422  14.248  23.518  0.00  0.00    +0.000 C 
ATOM      3  O   UNL     1      -3.898  14.965  24.394  0.00  0.00    +0.000 OA
ATOM      4  N   UNL     1      -4.090  13.908  22.388  0.00  0.00    +0.000 N 
ATOM      5  H   UNL     1      -1.729  13.938  24.543  0.00  0.00    +0.000 HD
ATOM      6  H   UNL     1      -3.526  13.470  21.660  0.00  0.00    +0.000 HD
ENDROOT
BRANCH   1  13
ATOM      7  N   UNL     1       0.876  10.478  18.899  0.00  0.00    +0.000 N 
ATOM      8  C   UNL     1       0.348  10.294  20.131  0.00  0.00    +0.000 A 
ATOM      9  N   UNL     1       0.246   9.138  20.787  0.00  0.00    +0.000 NA
ATOM     10  N   UNL     1      -0.349   9.467  21.949  0.00  0.00    +0.000 N 
ATOM     11  C   UNL     1      -0.679  10.789  22.057  0.00  0.00    +0.000 A 
ATOM     12  C   UNL     1      -1.335  11.532  23.046  0.00  0.00    +0.000 A 
ATOM     13  C   UNL     1      -1.490  12.882  22.757  0.00  0.00    +0.000 A 
ATOM     14  N   UNL     1      -1.023  13.453  21.623  0.00  0.00    +0.000 NA
ATOM     15  C   UNL     1      -0.386  12.721  20.686  0.00  0.00    +0.000 A 
ATOM     16  C   UNL     1      -0.209  11.359  20.880  0.00  0.00    +0.000 A 
ATOM     17  H   UNL     1       0.733  11.374  18.446  0.00  0.00    +0.000 HD
ATOM     18  H   UNL     1      -0.515   8.729  22.622  0.00  0.00    +0.000 HD
BRANCH   7  20
ATOM     19  C   UNL     1       2.353   8.838  17.886  0.00  0.00    +0.000 C 
ATOM     20  C   UNL     1       0.929   9.361  17.972  0.00  0.00    +0.000 C 
ENDBRANCH   7  20
ENDBRANCH   1  13
BRANCH   4  21
ATOM     21  C   UNL     1      -5.403  14.364  21.963  0.00  0.00    +0.000 C 
ATOM     22  C   UNL     1      -6.485  13.468  22.592  0.00  0.00    +0.000 C 
ATOM     23  N   UNL     1      -6.395  12.088  22.097  0.00  0.00    +0.000 N 
ATOM     24  C   UNL     1      -6.442  11.979  20.696  0.00  0.00    +0.000 A 
ATOM     25  C   UNL     1      -6.844  10.770  20.113  0.00  0.00    +0.000 A 
ATOM     26  C   UNL     1      -6.861  10.612  18.726  0.00  0.00    +0.000 A 
ATOM     27  C   UNL     1      -6.429  11.649  17.904  0.00  0.00    +0.000 A 
ATOM     28  C   UNL     1      -5.981  12.840  18.471  0.00  0.00    +0.000 A 
ATOM     29  C   UNL     1      -5.976  13.013  19.866  0.00  0.00    +0.000 A 
ATOM     30  C   UNL     1      -5.537  14.346  20.435  0.00  0.00    +0.000 C 
ATOM     31  H   UNL     1      -7.047  11.457  22.553  0.00  0.00    +0.000 HD
ENDBRANCH   4  21
TORSDOF 3
ENDMDL
