MODEL 1
REMARK VINA RESULT:      -7.2      0.000      0.000
REMARK  Name = 
REMARK  12 active torsions:
REMARK  status: ('A' for Active; 'I' for Inactive)
REMARK    1  A    between atoms: C_1  and  C_2
REMARK    2  A    between atoms: C_2  and  O_3
REMARK    3  A    between atoms: O_3  and  P_4
REMARK    4  A    between atoms: P_4  and  O_6
REMARK    5  A    between atoms: P_4  and  C_9
REMARK    6  A    between atoms: O_6  and  C_7
REMARK    7  A    between atoms: C_7  and  C_8
REMARK    8  A    between atoms: C_9  and  N_10
REMARK    9  A    between atoms: C_9  and  C_20
REMARK   10  A    between atoms: N_10  and  C_11
REMARK   11  A    between atoms: C_14  and  N_15
REMARK   12  A    between atoms: C_24  and  C_25
REMARK                            x       y       z     vdW  Elec       q    Type
REMARK                         _______ _______ _______ _____ _____    ______ ____
ROOT
ATOM      1  C   UNL     1       0.207  10.625  19.773  0.00  0.00    +0.000 C 
ENDROOT
BRANCH   1   2
ATOM      2  C   UNL     1       1.151   9.453  19.672  0.00  0.00    +0.000 A 
ATOM      3  C   UNL     1       1.832   9.087  18.570  0.00  0.00    +0.000 A 
ATOM      4  C   UNL     1       2.578   7.831  18.527  0.00  0.00    +0.000 A 
ATOM      5  C   UNL     1       3.379   7.497  17.433  0.00  0.00    +0.000 A 
ATOM      6  C   UNL     1       4.082   6.284  17.417  0.00  0.00    +0.000 A 
ATOM      7  C   UNL     1       5.009   5.951  16.285  0.00  0.00    +0.000 C 
ATOM      8  C   UNL     1       3.931   5.386  18.484  0.00  0.00    +0.000 A 
ATOM      9  C   UNL     1       3.119   5.708  19.573  0.00  0.00    +0.000 A 
ATOM     10  C   UNL     1       2.470   6.940  19.600  0.00  0.00    +0.000 A 
ATOM     11  N   UNL     1       1.735   7.321  20.727  0.00  0.00    +0.000 N 
ATOM     12  C   UNL     1       1.152   8.547  20.861  0.00  0.00    +0.000 A 
ATOM     13  O   UNL     1       0.623   8.899  21.912  0.00  0.00    +0.000 OA
ATOM     14  H   UNL     1       1.690   6.706  21.530  0.00  0.00    +0.000 HD
ENDBRANCH   1   2
BRANCH   1  15
ATOM     15  P   UNL     1       0.967  12.099  20.547  0.00  0.00    +0.000 P 
ATOM     16  O   UNL     1      -0.303  12.252  21.407  0.00  0.00    +0.000 OA
BRANCH  15  17
ATOM     17  O   UNL     1       1.686  13.493  21.278  0.00  0.00    +0.000 OA
BRANCH  17  19
ATOM     18  C   UNL     1       1.395  15.721  22.175  0.00  0.00    +0.000 C 
ATOM     19  C   UNL     1       0.759  14.374  21.917  0.00  0.00    +0.000 C 
ENDBRANCH  17  19
ENDBRANCH  15  17
BRANCH  15  20
ATOM     20  O   UNL     1       0.709  12.992  19.159  0.00  0.00    +0.000 OA
BRANCH  20  21
ATOM     21  C   UNL     1       1.807  13.690  18.589  0.00  0.00    +0.000 C 
ATOM     22  C   UNL     1       2.769  12.675  18.000  0.00  0.00    +0.000 C 
ENDBRANCH  20  21
ENDBRANCH  15  20
ENDBRANCH   1  15
BRANCH   1  23
ATOM     23  N   UNL     1      -0.436  10.917  18.443  0.00  0.00    +0.000 N 
ATOM     24  H   UNL     1      -0.004  11.783  18.109  0.00  0.00    +0.000 HD
BRANCH  23  25
ATOM     25  C   UNL     1      -1.834  11.064  18.345  0.00  0.00    +0.000 A 
ATOM     26  C   UNL     1      -2.523  10.197  17.475  0.00  0.00    +0.000 A 
ATOM     27  C   UNL     1      -3.917  10.249  17.328  0.00  0.00    +0.000 A 
ATOM     28  C   UNL     1      -4.653  11.165  18.083  0.00  0.00    +0.000 A 
ATOM     29  C   UNL     1      -4.003  11.995  18.999  0.00  0.00    +0.000 A 
ATOM     30  C   UNL     1      -2.607  11.918  19.141  0.00  0.00    +0.000 A 
BRANCH  28  31
ATOM     31  N   UNL     1      -6.112  11.246  17.927  0.00  0.00    +0.000 N 
ATOM     32  O   UNL     1      -6.564  12.150  17.207  0.00  0.00    +0.000 OA
ATOM     33  O   UNL     1      -6.807  10.404  18.514  0.00  0.00    +0.000 OA
ENDBRANCH  28  31
ENDBRANCH  23  25
ENDBRANCH   1  23
TORSDOF 9
ENDMDL
MODEL 2
REMARK VINA RESULT:      -7.1      1.211      2.076
REMARK  Name = 
REMARK  12 active torsions:
REMARK  status: ('A' for Active; 'I' for Inactive)
REMARK    1  A    between atoms: C_1  and  C_2
REMARK    2  A    between atoms: C_2  and  O_3
REMARK    3  A    between atoms: O_3  and  P_4
REMARK    4  A    between atoms: P_4  and  O_6
REMARK    5  A    between atoms: P_4  and  C_9
REMARK    6  A    between atoms: O_6  and  C_7
REMARK    7  A    between atoms: C_7  and  C_8
REMARK    8  A    between atoms: C_9  and  N_10
REMARK    9  A    between atoms: C_9  and  C_20
REMARK   10  A    between atoms: N_10  and  C_11
REMARK   11  A    between atoms: C_14  and  N_15
REMARK   12  A    between atoms: C_24  and  C_25
REMARK                            x       y       z     vdW  Elec       q    Type
REMARK                         _______ _______ _______ _____ _____    ______ ____
ROOT
ATOM      1  C   UNL     1       0.410  11.403  19.082  0.00  0.00    +0.000 C 
ENDROOT
BRANCH   1   2
ATOM      2  C   UNL     1       1.153  10.099  19.241  0.00  0.00    +0.000 A 
ATOM      3  C   UNL     1       1.881   9.490  18.287  0.00  0.00    +0.000 A 
ATOM      4  C   UNL     1       2.409   8.143  18.487  0.00  0.00    +0.000 A 
ATOM      5  C   UNL     1       3.259   7.547  17.553  0.00  0.00    +0.000 A 
ATOM      6  C   UNL     1       3.749   6.252  17.770  0.00  0.00    +0.000 A 
ATOM      7  C   UNL     1       4.727   5.634  16.814  0.00  0.00    +0.000 C 
ATOM      8  C   UNL     1       3.336   5.539  18.905  0.00  0.00    +0.000 A 
ATOM      9  C   UNL     1       2.475   6.124  19.834  0.00  0.00    +0.000 A 
ATOM     10  C   UNL     1       2.039   7.431  19.633  0.00  0.00    +0.000 A 
ATOM     11  N   UNL     1       1.257   8.067  20.604  0.00  0.00    +0.000 N 
ATOM     12  C   UNL     1       0.873   9.374  20.517  0.00  0.00    +0.000 A 
ATOM     13  O   UNL     1       0.298   9.939  21.442  0.00  0.00    +0.000 OA
ATOM     14  H   UNL     1       1.024   7.580  21.460  0.00  0.00    +0.000 HD
ENDBRANCH   1   2
BRANCH   1  15
ATOM     15  P   UNL     1       1.501  12.870  19.157  0.00  0.00    +0.000 P 
ATOM     16  O   UNL     1       1.297  12.892  20.686  0.00  0.00    +0.000 OA
BRANCH  15  17
ATOM     17  O   UNL     1       2.533  14.257  19.229  0.00  0.00    +0.000 OA
BRANCH  17  19
ATOM     18  C   UNL     1       3.739  15.566  17.590  0.00  0.00    +0.000 C 
ATOM     19  C   UNL     1       3.621  14.237  18.301  0.00  0.00    +0.000 C 
ENDBRANCH  17  19
ENDBRANCH  15  17
BRANCH  15  20
ATOM     20  O   UNL     1       0.299  13.829  18.506  0.00  0.00    +0.000 OA
BRANCH  20  21
ATOM     21  C   UNL     1       0.202  15.179  18.937  0.00  0.00    +0.000 C 
ATOM     22  C   UNL     1      -0.991  15.303  19.868  0.00  0.00    +0.000 C 
ENDBRANCH  20  21
ENDBRANCH  15  20
ENDBRANCH   1  15
BRANCH   1  23
ATOM     23  N   UNL     1      -0.468  11.378  17.858  0.00  0.00    +0.000 N 
ATOM     24  H   UNL     1      -0.336  12.285  17.402  0.00  0.00    +0.000 HD
BRANCH  23  25
ATOM     25  C   UNL     1      -1.854  11.152  17.980  0.00  0.00    +0.000 A 
ATOM     26  C   UNL     1      -2.597  12.052  18.767  0.00  0.00    +0.000 A 
ATOM     27  C   UNL     1      -3.985  11.925  18.928  0.00  0.00    +0.000 A 
ATOM     28  C   UNL     1      -4.660  10.895  18.270  0.00  0.00    +0.000 A 
ATOM     29  C   UNL     1      -3.959  10.024  17.434  0.00  0.00    +0.000 A 
ATOM     30  C   UNL     1      -2.571  10.177  17.275  0.00  0.00    +0.000 A 
BRANCH  28  31
ATOM     31  N   UNL     1      -6.111  10.735  18.444  0.00  0.00    +0.000 N 
ATOM     32  O   UNL     1      -6.506   9.798  19.155  0.00  0.00    +0.000 OA
ATOM     33  O   UNL     1      -6.857  11.548  17.880  0.00  0.00    +0.000 OA
ENDBRANCH  28  31
ENDBRANCH  23  25
ENDBRANCH   1  23
TORSDOF 9
ENDMDL
MODEL 3
REMARK VINA RESULT:      -7.0      1.060      1.579
REMARK  Name = 
REMARK  12 active torsions:
REMARK  status: ('A' for Active; 'I' for Inactive)
REMARK    1  A    between atoms: C_1  and  C_2
REMARK    2  A    between atoms: C_2  and  O_3
REMARK    3  A    between atoms: O_3  and  P_4
REMARK    4  A    between atoms: P_4  and  O_6
REMARK    5  A    between atoms: P_4  and  C_9
REMARK    6  A    between atoms: O_6  and  C_7
REMARK    7  A    between atoms: C_7  and  C_8
REMARK    8  A    between atoms: C_9  and  N_10
REMARK    9  A    between atoms: C_9  and  C_20
REMARK   10  A    between atoms: N_10  and  C_11
REMARK   11  A    between atoms: C_14  and  N_15
REMARK   12  A    between atoms: C_24  and  C_25
REMARK                            x       y       z     vdW  Elec       q    Type
REMARK                         _______ _______ _______ _____ _____    ______ ____
ROOT
ATOM      1  C   UNL     1       0.382  10.996  19.600  0.00  0.00    +0.000 C 
ENDROOT
BRANCH   1   2
ATOM      2  C   UNL     1       1.201   9.728  19.595  0.00  0.00    +0.000 A 
ATOM      3  C   UNL     1       1.868   9.230  18.538  0.00  0.00    +0.000 A 
ATOM      4  C   UNL     1       2.479   7.904  18.588  0.00  0.00    +0.000 A 
ATOM      5  C   UNL     1       3.269   7.425  17.542  0.00  0.00    +0.000 A 
ATOM      6  C   UNL     1       3.841   6.147  17.616  0.00  0.00    +0.000 A 
ATOM      7  C   UNL     1       4.757   5.655  16.535  0.00  0.00    +0.000 C 
ATOM      8  C   UNL     1       3.569   5.334  18.726  0.00  0.00    +0.000 A 
ATOM      9  C   UNL     1       2.768   5.802  19.768  0.00  0.00    +0.000 A 
ATOM     10  C   UNL     1       2.250   7.093  19.705  0.00  0.00    +0.000 A 
ATOM     11  N   UNL     1       1.530   7.613  20.786  0.00  0.00    +0.000 N 
ATOM     12  C   UNL     1       1.075   8.900  20.832  0.00  0.00    +0.000 A 
ATOM     13  O   UNL     1       0.559   9.365  21.844  0.00  0.00    +0.000 OA
ATOM     14  H   UNL     1       1.400   7.055  21.620  0.00  0.00    +0.000 HD
ENDBRANCH   1   2
BRANCH   1  15
ATOM     15  P   UNL     1       1.347  12.476  20.075  0.00  0.00    +0.000 P 
ATOM     16  O   UNL     1       0.654  12.435  21.452  0.00  0.00    +0.000 OA
BRANCH  15  17
ATOM     17  O   UNL     1       2.259  13.876  20.524  0.00  0.00    +0.000 OA
BRANCH  17  19
ATOM     18  C   UNL     1       4.344  15.090  20.342  0.00  0.00    +0.000 C 
ATOM     19  C   UNL     1       3.356  14.175  19.656  0.00  0.00    +0.000 C 
ENDBRANCH  17  19
ENDBRANCH  15  17
BRANCH  15  20
ATOM     20  O   UNL     1       0.397  13.440  19.096  0.00  0.00    +0.000 OA
BRANCH  20  21
ATOM     21  C   UNL     1      -0.222  14.584  19.669  0.00  0.00    +0.000 C 
ATOM     22  C   UNL     1      -0.132  15.728  18.675  0.00  0.00    +0.000 C 
ENDBRANCH  20  21
ENDBRANCH  15  20
ENDBRANCH   1  15
BRANCH   1  23
ATOM     23  N   UNL     1      -0.363  11.163  18.301  0.00  0.00    +0.000 N 
ATOM     24  H   UNL     1      -0.127  12.101  17.964  0.00  0.00    +0.000 HD
BRANCH  23  25
ATOM     25  C   UNL     1      -1.765  11.027  18.262  0.00  0.00    +0.000 A 
ATOM     26  C   UNL     1      -2.534  11.965  18.976  0.00  0.00    +0.000 A 
ATOM     27  C   UNL     1      -3.936  11.928  18.977  0.00  0.00    +0.000 A 
ATOM     28  C   UNL     1      -4.596  10.952  18.227  0.00  0.00    +0.000 A 
ATOM     29  C   UNL     1      -3.861  10.047  17.459  0.00  0.00    +0.000 A 
ATOM     30  C   UNL     1      -2.458  10.110  17.461  0.00  0.00    +0.000 A 
BRANCH  28  31
ATOM     31  N   UNL     1      -6.064  10.887  18.232  0.00  0.00    +0.000 N 
ATOM     32  O   UNL     1      -6.682  11.757  17.600  0.00  0.00    +0.000 OA
ATOM     33  O   UNL     1      -6.603   9.962  18.858  0.00  0.00    +0.000 OA
ENDBRANCH  28  31
ENDBRANCH  23  25
ENDBRANCH   1  23
TORSDOF 9
ENDMDL
MODEL 4
REMARK VINA RESULT:      -6.9      1.357      2.007
REMARK  Name = 
REMARK  12 active torsions:
REMARK  status: ('A' for Active; 'I' for Inactive)
REMARK    1  A    between atoms: C_1  and  C_2
REMARK    2  A    between atoms: C_2  and  O_3
REMARK    3  A    between atoms: O_3  and  P_4
REMARK    4  A    between atoms: P_4  and  O_6
REMARK    5  A    between atoms: P_4  and  C_9
REMARK    6  A    between atoms: O_6  and  C_7
REMARK    7  A    between atoms: C_7  and  C_8
REMARK    8  A    between atoms: C_9  and  N_10
REMARK    9  A    between atoms: C_9  and  C_20
REMARK   10  A    between atoms: N_10  and  C_11
REMARK   11  A    between atoms: C_14  and  N_15
REMARK   12  A    between atoms: C_24  and  C_25
REMARK                            x       y       z     vdW  Elec       q    Type
REMARK                         _______ _______ _______ _____ _____    ______ ____
ROOT
ATOM      1  C   UNL     1      -0.002  11.155  18.708  0.00  0.00    +0.000 C 
ENDROOT
BRANCH   1   2
ATOM      2  C   UNL     1       0.922   9.986  18.948  0.00  0.00    +0.000 A 
ATOM      3  C   UNL     1       1.698   9.397  18.020  0.00  0.00    +0.000 A 
ATOM      4  C   UNL     1       2.418   8.159  18.313  0.00  0.00    +0.000 A 
ATOM      5  C   UNL     1       3.312   7.602  17.399  0.00  0.00    +0.000 A 
ATOM      6  C   UNL     1       3.987   6.412  17.706  0.00  0.00    +0.000 A 
ATOM      7  C   UNL     1       5.012   5.849  16.766  0.00  0.00    +0.000 C 
ATOM      8  C   UNL     1       3.715   5.759  18.917  0.00  0.00    +0.000 A 
ATOM      9  C   UNL     1       2.809   6.304  19.828  0.00  0.00    +0.000 A 
ATOM     10  C   UNL     1       2.187   7.513  19.533  0.00  0.00    +0.000 A 
ATOM     11  N   UNL     1       1.355   8.123  20.478  0.00  0.00    +0.000 N 
ATOM     12  C   UNL     1       0.788   9.351  20.294  0.00  0.00    +0.000 A 
ATOM     13  O   UNL     1       0.168   9.916  21.190  0.00  0.00    +0.000 OA
ATOM     14  H   UNL     1       1.220   7.691  21.383  0.00  0.00    +0.000 HD
ENDBRANCH   1   2
BRANCH   1  15
ATOM     15  P   UNL     1       0.875  12.756  18.591  0.00  0.00    +0.000 P 
ATOM     16  O   UNL     1       1.999  12.158  19.460  0.00  0.00    +0.000 OA
BRANCH  15  17
ATOM     17  O   UNL     1       1.704  14.271  18.480  0.00  0.00    +0.000 OA
BRANCH  17  19
ATOM     18  C   UNL     1       3.710  15.355  17.673  0.00  0.00    +0.000 C 
ATOM     19  C   UNL     1       3.127  14.165  18.401  0.00  0.00    +0.000 C 
ENDBRANCH  17  19
ENDBRANCH  15  17
BRANCH  15  20
ATOM     20  O   UNL     1      -0.214  13.458  19.645  0.00  0.00    +0.000 OA
BRANCH  20  21
ATOM     21  C   UNL     1      -0.543  14.829  19.466  0.00  0.00    +0.000 C 
ATOM     22  C   UNL     1      -1.611  15.203  20.478  0.00  0.00    +0.000 C 
ENDBRANCH  20  21
ENDBRANCH  15  20
ENDBRANCH   1  15
BRANCH   1  23
ATOM     23  N   UNL     1      -0.915  10.890  17.539  0.00  0.00    +0.000 N 
ATOM     24  H   UNL     1      -0.507  11.395  16.747  0.00  0.00    +0.000 HD
BRANCH  23  25
ATOM     25  C   UNL     1      -2.281  11.228  17.612  0.00  0.00    +0.000 A 
ATOM     26  C   UNL     1      -3.070  11.015  16.465  0.00  0.00    +0.000 A 
ATOM     27  C   UNL     1      -4.444  11.296  16.447  0.00  0.00    +0.000 A 
ATOM     28  C   UNL     1      -5.060  11.775  17.605  0.00  0.00    +0.000 A 
ATOM     29  C   UNL     1      -4.316  11.937  18.776  0.00  0.00    +0.000 A 
ATOM     30  C   UNL     1      -2.944  11.637  18.776  0.00  0.00    +0.000 A 
BRANCH  28  31
ATOM     31  N   UNL     1      -6.495  12.094  17.599  0.00  0.00    +0.000 N 
ATOM     32  O   UNL     1      -6.874  13.031  16.879  0.00  0.00    +0.000 OA
ATOM     33  O   UNL     1      -7.247  11.404  18.303  0.00  0.00    +0.000 OA
ENDBRANCH  28  31
ENDBRANCH  23  25
ENDBRANCH   1  23
TORSDOF 9
ENDMDL
MODEL 5
REMARK VINA RESULT:      -6.9      2.502      5.662
REMARK  Name = 
REMARK  12 active torsions:
REMARK  status: ('A' for Active; 'I' for Inactive)
REMARK    1  A    between atoms: C_1  and  C_2
REMARK    2  A    between atoms: C_2  and  O_3
REMARK    3  A    between atoms: O_3  and  P_4
REMARK    4  A    between atoms: P_4  and  O_6
REMARK    5  A    between atoms: P_4  and  C_9
REMARK    6  A    between atoms: O_6  and  C_7
REMARK    7  A    between atoms: C_7  and  C_8
REMARK    8  A    between atoms: C_9  and  N_10
REMARK    9  A    between atoms: C_9  and  C_20
REMARK   10  A    between atoms: N_10  and  C_11
REMARK   11  A    between atoms: C_14  and  N_15
REMARK   12  A    between atoms: C_24  and  C_25
REMARK                            x       y       z     vdW  Elec       q    Type
REMARK                         _______ _______ _______ _____ _____    ______ ____
ROOT
ATOM      1  C   UNL     1       0.214  11.092  18.571  0.00  0.00    +0.000 C 
ENDROOT
BRANCH   1   2
ATOM      2  C   UNL     1       1.072   9.886  18.864  0.00  0.00    +0.000 A 
ATOM      3  C   UNL     1       1.827   9.225  17.967  0.00  0.00    +0.000 A 
ATOM      4  C   UNL     1       2.477   7.963  18.313  0.00  0.00    +0.000 A 
ATOM      5  C   UNL     1       3.353   7.328  17.431  0.00  0.00    +0.000 A 
ATOM      6  C   UNL     1       3.961   6.116  17.789  0.00  0.00    +0.000 A 
ATOM      7  C   UNL     1       4.966   5.468  16.883  0.00  0.00    +0.000 C 
ATOM      8  C   UNL     1       3.639   5.520  19.017  0.00  0.00    +0.000 A 
ATOM      9  C   UNL     1       2.752   6.143  19.896  0.00  0.00    +0.000 A 
ATOM     10  C   UNL     1       2.198   7.373  19.551  0.00  0.00    +0.000 A 
ATOM     11  N   UNL     1       1.388   8.058  20.463  0.00  0.00    +0.000 N 
ATOM     12  C   UNL     1       0.888   9.306  20.229  0.00  0.00    +0.000 A 
ATOM     13  O   UNL     1       0.288   9.933  21.096  0.00  0.00    +0.000 OA
ATOM     14  H   UNL     1       1.219   7.665  21.380  0.00  0.00    +0.000 HD
ENDBRANCH   1   2
BRANCH   1  15
ATOM     15  P   UNL     1      -1.573  10.705  18.498  0.00  0.00    +0.000 P 
ATOM     16  O   UNL     1      -1.473  10.729  16.959  0.00  0.00    +0.000 OA
BRANCH  15  17
ATOM     17  O   UNL     1      -3.263  10.339  18.428  0.00  0.00    +0.000 OA
BRANCH  17  19
ATOM     18  C   UNL     1      -4.929  11.464  17.082  0.00  0.00    +0.000 C 
ATOM     19  C   UNL     1      -3.836  10.420  17.121  0.00  0.00    +0.000 C 
ENDBRANCH  17  19
ENDBRANCH  15  17
BRANCH  15  20
ATOM     20  O   UNL     1      -1.955  12.260  18.971  0.00  0.00    +0.000 OA
BRANCH  20  21
ATOM     21  C   UNL     1      -2.882  12.436  20.034  0.00  0.00    +0.000 C 
ATOM     22  C   UNL     1      -2.575  13.751  20.727  0.00  0.00    +0.000 C 
ENDBRANCH  20  21
ENDBRANCH  15  20
ENDBRANCH   1  15
BRANCH   1  23
ATOM     23  N   UNL     1       0.538  12.226  19.508  0.00  0.00    +0.000 N 
ATOM     24  H   UNL     1      -0.364  12.580  19.840  0.00  0.00    +0.000 HD
BRANCH  23  25
ATOM     25  C   UNL     1       1.297  13.325  19.060  0.00  0.00    +0.000 A 
ATOM     26  C   UNL     1       0.727  14.607  19.180  0.00  0.00    +0.000 A 
ATOM     27  C   UNL     1       1.414  15.764  18.785  0.00  0.00    +0.000 A 
ATOM     28  C   UNL     1       2.713  15.653  18.283  0.00  0.00    +0.000 A 
ATOM     29  C   UNL     1       3.328  14.401  18.211  0.00  0.00    +0.000 A 
ATOM     30  C   UNL     1       2.627  13.255  18.624  0.00  0.00    +0.000 A 
BRANCH  28  31
ATOM     31  N   UNL     1       3.440  16.853  17.847  0.00  0.00    +0.000 N 
ATOM     32  O   UNL     1       2.905  17.570  16.987  0.00  0.00    +0.000 OA
ATOM     33  O   UNL     1       4.541  17.087  18.367  0.00  0.00    +0.000 OA
ENDBRANCH  28  31
ENDBRANCH  23  25
ENDBRANCH   1  23
TORSDOF 9
ENDMDL
MODEL 6
REMARK VINA RESULT:      -6.8      1.152      1.860
REMARK  Name = 
REMARK  12 active torsions:
REMARK  status: ('A' for Active; 'I' for Inactive)
REMARK    1  A    between atoms: C_1  and  C_2
REMARK    2  A    between atoms: C_2  and  O_3
REMARK    3  A    between atoms: O_3  and  P_4
REMARK    4  A    between atoms: P_4  and  O_6
REMARK    5  A    between atoms: P_4  and  C_9
REMARK    6  A    between atoms: O_6  and  C_7
REMARK    7  A    between atoms: C_7  and  C_8
REMARK    8  A    between atoms: C_9  and  N_10
REMARK    9  A    between atoms: C_9  and  C_20
REMARK   10  A    between atoms: N_10  and  C_11
REMARK   11  A    between atoms: C_14  and  N_15
REMARK   12  A    between atoms: C_24  and  C_25
REMARK                            x       y       z     vdW  Elec       q    Type
REMARK                         _______ _______ _______ _____ _____    ______ ____
ROOT
ATOM      1  C   UNL     1       0.180  10.537  19.023  0.00  0.00    +0.000 C 
ENDROOT
BRANCH   1   2
ATOM      2  C   UNL     1       1.188   9.417  19.090  0.00  0.00    +0.000 A 
ATOM      3  C   UNL     1       1.936   8.972  18.063  0.00  0.00    +0.000 A 
ATOM      4  C   UNL     1       2.748   7.764  18.189  0.00  0.00    +0.000 A 
ATOM      5  C   UNL     1       3.613   7.358  17.172  0.00  0.00    +0.000 A 
ATOM      6  C   UNL     1       4.379   6.193  17.319  0.00  0.00    +0.000 A 
ATOM      7  C   UNL     1       5.372   5.792  16.268  0.00  0.00    +0.000 C 
ATOM      8  C   UNL     1       4.229   5.410  18.474  0.00  0.00    +0.000 A 
ATOM      9  C   UNL     1       3.354   5.804  19.487  0.00  0.00    +0.000 A 
ATOM     10  C   UNL     1       2.640   6.991  19.350  0.00  0.00    +0.000 A 
ATOM     11  N   UNL     1       1.836   7.450  20.399  0.00  0.00    +0.000 N 
ATOM     12  C   UNL     1       1.183   8.649  20.372  0.00  0.00    +0.000 A 
ATOM     13  O   UNL     1       0.591   9.082  21.356  0.00  0.00    +0.000 OA
ATOM     14  H   UNL     1       1.788   6.926  21.264  0.00  0.00    +0.000 HD
ENDBRANCH   1   2
BRANCH   1  15
ATOM     15  P   UNL     1       0.917  12.189  19.296  0.00  0.00    +0.000 P 
ATOM     16  O   UNL     1       2.284  11.601  18.891  0.00  0.00    +0.000 OA
BRANCH  15  17
ATOM     17  O   UNL     1       1.614  13.751  19.554  0.00  0.00    +0.000 OA
BRANCH  17  19
ATOM     18  C   UNL     1      -0.196  15.212  18.890  0.00  0.00    +0.000 C 
ATOM     19  C   UNL     1       1.214  14.746  18.608  0.00  0.00    +0.000 C 
ENDBRANCH  17  19
ENDBRANCH  15  17
BRANCH  15  20
ATOM     20  O   UNL     1       0.793  11.999  20.951  0.00  0.00    +0.000 OA
BRANCH  20  21
ATOM     21  C   UNL     1      -0.129  12.815  21.658  0.00  0.00    +0.000 C 
ATOM     22  C   UNL     1      -0.937  11.931  22.591  0.00  0.00    +0.000 C 
ENDBRANCH  20  21
ENDBRANCH  15  20
ENDBRANCH   1  15
BRANCH   1  23
ATOM     23  N   UNL     1      -0.638  10.452  17.761  0.00  0.00    +0.000 N 
ATOM     24  H   UNL     1      -0.116  10.978  17.054  0.00  0.00    +0.000 HD
BRANCH  23  25
ATOM     25  C   UNL     1      -1.971  10.910  17.744  0.00  0.00    +0.000 A 
ATOM     26  C   UNL     1      -2.733  10.661  16.587  0.00  0.00    +0.000 A 
ATOM     27  C   UNL     1      -4.076  11.055  16.485  0.00  0.00    +0.000 A 
ATOM     28  C   UNL     1      -4.689  11.688  17.568  0.00  0.00    +0.000 A 
ATOM     29  C   UNL     1      -3.976  11.892  18.751  0.00  0.00    +0.000 A 
ATOM     30  C   UNL     1      -2.636  11.478  18.838  0.00  0.00    +0.000 A 
BRANCH  28  31
ATOM     31  N   UNL     1      -6.089  12.124  17.471  0.00  0.00    +0.000 N 
ATOM     32  O   UNL     1      -6.314  13.221  16.937  0.00  0.00    +0.000 OA
ATOM     33  O   UNL     1      -6.965  11.371  17.919  0.00  0.00    +0.000 OA
ENDBRANCH  28  31
ENDBRANCH  23  25
ENDBRANCH   1  23
TORSDOF 9
ENDMDL
MODEL 7
REMARK VINA RESULT:      -6.8      1.515      1.882
REMARK  Name = 
REMARK  12 active torsions:
REMARK  status: ('A' for Active; 'I' for Inactive)
REMARK    1  A    between atoms: C_1  and  C_2
REMARK    2  A    between atoms: C_2  and  O_3
REMARK    3  A    between atoms: O_3  and  P_4
REMARK    4  A    between atoms: P_4  and  O_6
REMARK    5  A    between atoms: P_4  and  C_9
REMARK    6  A    between atoms: O_6  and  C_7
REMARK    7  A    between atoms: C_7  and  C_8
REMARK    8  A    between atoms: C_9  and  N_10
REMARK    9  A    between atoms: C_9  and  C_20
REMARK   10  A    between atoms: N_10  and  C_11
REMARK   11  A    between atoms: C_14  and  N_15
REMARK   12  A    between atoms: C_24  and  C_25
REMARK                            x       y       z     vdW  Elec       q    Type
REMARK                         _______ _______ _______ _____ _____    ______ ____
ROOT
ATOM      1  C   UNL     1       0.149  11.902  19.239  0.00  0.00    +0.000 C 
ENDROOT
BRANCH   1   2
ATOM      2  C   UNL     1       0.868  10.589  19.425  0.00  0.00    +0.000 A 
ATOM      3  C   UNL     1       1.568   9.937  18.479  0.00  0.00    +0.000 A 
ATOM      4  C   UNL     1       2.072   8.585  18.710  0.00  0.00    +0.000 A 
ATOM      5  C   UNL     1       2.895   7.945  17.782  0.00  0.00    +0.000 A 
ATOM      6  C   UNL     1       3.362   6.646  18.029  0.00  0.00    +0.000 A 
ATOM      7  C   UNL     1       4.312   5.981  17.077  0.00  0.00    +0.000 C 
ATOM      8  C   UNL     1       2.951   5.976  19.191  0.00  0.00    +0.000 A 
ATOM      9  C   UNL     1       2.116   6.605  20.114  0.00  0.00    +0.000 A 
ATOM     10  C   UNL     1       1.704   7.915  19.882  0.00  0.00    +0.000 A 
ATOM     11  N   UNL     1       0.951   8.594  20.845  0.00  0.00    +0.000 N 
ATOM     12  C   UNL     1       0.592   9.906  20.726  0.00  0.00    +0.000 A 
ATOM     13  O   UNL     1       0.043  10.510  21.642  0.00  0.00    +0.000 OA
ATOM     14  H   UNL     1       0.721   8.138  21.718  0.00  0.00    +0.000 HD
ENDBRANCH   1   2
BRANCH   1  15
ATOM     15  P   UNL     1       1.263  13.352  19.322  0.00  0.00    +0.000 P 
ATOM     16  O   UNL     1       0.991  13.422  20.838  0.00  0.00    +0.000 OA
BRANCH  15  17
ATOM     17  O   UNL     1       2.315  14.723  19.400  0.00  0.00    +0.000 OA
BRANCH  17  19
ATOM     18  C   UNL     1       4.586  15.482  19.750  0.00  0.00    +0.000 C 
ATOM     19  C   UNL     1       3.500  14.519  20.175  0.00  0.00    +0.000 C 
ENDBRANCH  17  19
ENDBRANCH  15  17
BRANCH  15  20
ATOM     20  O   UNL     1       0.108  14.312  18.590  0.00  0.00    +0.000 OA
BRANCH  20  21
ATOM     21  C   UNL     1      -0.375  15.446  19.296  0.00  0.00    +0.000 C 
ATOM     22  C   UNL     1      -0.497  16.603  18.321  0.00  0.00    +0.000 C 
ENDBRANCH  20  21
ENDBRANCH  15  20
ENDBRANCH   1  15
BRANCH   1  23
ATOM     23  N   UNL     1      -0.705  11.879  17.998  0.00  0.00    +0.000 N 
ATOM     24  H   UNL     1      -0.501  12.752  17.503  0.00  0.00    +0.000 HD
BRANCH  23  25
ATOM     25  C   UNL     1      -2.105  11.755  18.099  0.00  0.00    +0.000 A 
ATOM     26  C   UNL     1      -2.767  10.988  17.122  0.00  0.00    +0.000 A 
ATOM     27  C   UNL     1      -4.154  10.786  17.152  0.00  0.00    +0.000 A 
ATOM     28  C   UNL     1      -4.905  11.335  18.194  0.00  0.00    +0.000 A 
ATOM     29  C   UNL     1      -4.268  12.049  19.211  0.00  0.00    +0.000 A 
ATOM     30  C   UNL     1      -2.875  12.229  19.170  0.00  0.00    +0.000 A 
BRANCH  28  31
ATOM     31  N   UNL     1      -6.362  11.150  18.230  0.00  0.00    +0.000 N 
ATOM     32  O   UNL     1      -6.798  10.112  18.754  0.00  0.00    +0.000 OA
ATOM     33  O   UNL     1      -7.074  12.042  17.746  0.00  0.00    +0.000 OA
ENDBRANCH  28  31
ENDBRANCH  23  25
ENDBRANCH   1  23
TORSDOF 9
ENDMDL
MODEL 8
REMARK VINA RESULT:      -6.8      1.114      2.133
REMARK  Name = 
REMARK  12 active torsions:
REMARK  status: ('A' for Active; 'I' for Inactive)
REMARK    1  A    between atoms: C_1  and  C_2
REMARK    2  A    between atoms: C_2  and  O_3
REMARK    3  A    between atoms: O_3  and  P_4
REMARK    4  A    between atoms: P_4  and  O_6
REMARK    5  A    between atoms: P_4  and  C_9
REMARK    6  A    between atoms: O_6  and  C_7
REMARK    7  A    between atoms: C_7  and  C_8
REMARK    8  A    between atoms: C_9  and  N_10
REMARK    9  A    between atoms: C_9  and  C_20
REMARK   10  A    between atoms: N_10  and  C_11
REMARK   11  A    between atoms: C_14  and  N_15
REMARK   12  A    between atoms: C_24  and  C_25
REMARK                            x       y       z     vdW  Elec       q    Type
REMARK                         _______ _______ _______ _____ _____    ______ ____
ROOT
ATOM      1  C   UNL     1       0.106  10.621  18.983  0.00  0.00    +0.000 C 
ENDROOT
BRANCH   1   2
ATOM      2  C   UNL     1       1.104   9.497  19.107  0.00  0.00    +0.000 A 
ATOM      3  C   UNL     1       1.885   9.028  18.116  0.00  0.00    +0.000 A 
ATOM      4  C   UNL     1       2.685   7.818  18.294  0.00  0.00    +0.000 A 
ATOM      5  C   UNL     1       3.583   7.388  17.316  0.00  0.00    +0.000 A 
ATOM      6  C   UNL     1       4.335   6.221  17.512  0.00  0.00    +0.000 A 
ATOM      7  C   UNL     1       5.362   5.795  16.504  0.00  0.00    +0.000 C 
ATOM      8  C   UNL     1       4.139   5.462  18.675  0.00  0.00    +0.000 A 
ATOM      9  C   UNL     1       3.231   5.879  19.649  0.00  0.00    +0.000 A 
ATOM     10  C   UNL     1       2.530   7.068  19.464  0.00  0.00    +0.000 A 
ATOM     11  N   UNL     1       1.692   7.552  20.475  0.00  0.00    +0.000 N 
ATOM     12  C   UNL     1       1.048   8.753  20.402  0.00  0.00    +0.000 A 
ATOM     13  O   UNL     1       0.424   9.209  21.356  0.00  0.00    +0.000 OA
ATOM     14  H   UNL     1       1.610   7.044  21.347  0.00  0.00    +0.000 HD
ENDBRANCH   1   2
BRANCH   1  15
ATOM     15  P   UNL     1       0.819  12.264  19.362  0.00  0.00    +0.000 P 
ATOM     16  O   UNL     1       2.202  11.709  18.966  0.00  0.00    +0.000 OA
BRANCH  15  17
ATOM     17  O   UNL     1       1.492  13.816  19.721  0.00  0.00    +0.000 OA
BRANCH  17  19
ATOM     18  C   UNL     1       2.762  15.205  18.201  0.00  0.00    +0.000 C 
ATOM     19  C   UNL     1       1.390  14.769  18.659  0.00  0.00    +0.000 C 
ENDBRANCH  17  19
ENDBRANCH  15  17
BRANCH  15  20
ATOM     20  O   UNL     1       0.650  11.986  21.001  0.00  0.00    +0.000 OA
BRANCH  20  21
ATOM     21  C   UNL     1      -0.173  12.866  21.754  0.00  0.00    +0.000 C 
ATOM     22  C   UNL     1      -1.309  12.061  22.360  0.00  0.00    +0.000 C 
ENDBRANCH  20  21
ENDBRANCH  15  20
ENDBRANCH   1  15
BRANCH   1  23
ATOM     23  N   UNL     1      -0.600  10.573  17.653  0.00  0.00    +0.000 N 
ATOM     24  H   UNL     1      -0.092  11.221  17.044  0.00  0.00    +0.000 HD
BRANCH  23  25
ATOM     25  C   UNL     1      -1.973  10.878  17.564  0.00  0.00    +0.000 A 
ATOM     26  C   UNL     1      -2.590  11.451  18.692  0.00  0.00    +0.000 A 
ATOM     27  C   UNL     1      -3.945  11.813  18.692  0.00  0.00    +0.000 A 
ATOM     28  C   UNL     1      -4.704  11.629  17.534  0.00  0.00    +0.000 A 
ATOM     29  C   UNL     1      -4.103  11.121  16.380  0.00  0.00    +0.000 A 
ATOM     30  C   UNL     1      -2.741  10.777  16.397  0.00  0.00    +0.000 A 
BRANCH  28  31
ATOM     31  N   UNL     1      -6.130  11.984  17.522  0.00  0.00    +0.000 N 
ATOM     32  O   UNL     1      -6.925  11.192  18.051  0.00  0.00    +0.000 OA
ATOM     33  O   UNL     1      -6.457  13.056  16.993  0.00  0.00    +0.000 OA
ENDBRANCH  28  31
ENDBRANCH  23  25
ENDBRANCH   1  23
TORSDOF 9
ENDMDL
MODEL 9
REMARK VINA RESULT:      -6.7      2.384      5.400
REMARK  Name = 
REMARK  12 active torsions:
REMARK  status: ('A' for Active; 'I' for Inactive)
REMARK    1  A    between atoms: C_1  and  C_2
REMARK    2  A    between atoms: C_2  and  O_3
REMARK    3  A    between atoms: O_3  and  P_4
REMARK    4  A    between atoms: P_4  and  O_6
REMARK    5  A    between atoms: P_4  and  C_9
REMARK    6  A    between atoms: O_6  and  C_7
REMARK    7  A    between atoms: C_7  and  C_8
REMARK    8  A    between atoms: C_9  and  N_10
REMARK    9  A    between atoms: C_9  and  C_20
REMARK   10  A    between atoms: N_10  and  C_11
REMARK   11  A    between atoms: C_14  and  N_15
REMARK   12  A    between atoms: C_24  and  C_25
REMARK                            x       y       z     vdW  Elec       q    Type
REMARK                         _______ _______ _______ _____ _____    ______ ____
ROOT
ATOM      1  C   UNL     1       0.641  10.739  18.847  0.00  0.00    +0.000 C 
ENDROOT
BRANCH   1   2
ATOM      2  C   UNL     1       1.386   9.451  19.092  0.00  0.00    +0.000 A 
ATOM      3  C   UNL     1       2.020   8.722  18.155  0.00  0.00    +0.000 A 
ATOM      4  C   UNL     1       2.556   7.398  18.464  0.00  0.00    +0.000 A 
ATOM      5  C   UNL     1       3.313   6.682  17.535  0.00  0.00    +0.000 A 
ATOM      6  C   UNL     1       3.812   5.413  17.858  0.00  0.00    +0.000 A 
ATOM      7  C   UNL     1       4.696   4.671  16.899  0.00  0.00    +0.000 C 
ATOM      8  C   UNL     1       3.499   4.845  19.102  0.00  0.00    +0.000 A 
ATOM      9  C   UNL     1       2.729   5.549  20.029  0.00  0.00    +0.000 A 
ATOM     10  C   UNL     1       2.285   6.831  19.715  0.00  0.00    +0.000 A 
ATOM     11  N   UNL     1       1.599   7.589  20.670  0.00  0.00    +0.000 N 
ATOM     12  C   UNL     1       1.218   8.884  20.464  0.00  0.00    +0.000 A 
ATOM     13  O   UNL     1       0.733   9.563  21.364  0.00  0.00    +0.000 OA
ATOM     14  H   UNL     1       1.441   7.210  21.595  0.00  0.00    +0.000 HD
ENDBRANCH   1   2
BRANCH   1  15
ATOM     15  P   UNL     1      -1.150  10.494  18.558  0.00  0.00    +0.000 P 
ATOM     16  O   UNL     1      -1.082  11.585  17.470  0.00  0.00    +0.000 OA
BRANCH  15  17
ATOM     17  O   UNL     1      -2.842  10.262  18.285  0.00  0.00    +0.000 OA
BRANCH  17  19
ATOM     18  C   UNL     1      -4.473  11.189  16.758  0.00  0.00    +0.000 C 
ATOM     19  C   UNL     1      -3.238  10.331  16.913  0.00  0.00    +0.000 C 
ENDBRANCH  17  19
ENDBRANCH  15  17
BRANCH  15  20
ATOM     20  O   UNL     1      -1.513  11.275  19.989  0.00  0.00    +0.000 OA
BRANCH  20  21
ATOM     21  C   UNL     1      -2.497  12.299  19.970  0.00  0.00    +0.000 C 
ATOM     22  C   UNL     1      -2.614  12.881  21.367  0.00  0.00    +0.000 C 
ENDBRANCH  20  21
ENDBRANCH  15  20
ENDBRANCH   1  15
BRANCH   1  23
ATOM     23  N   UNL     1       0.936  11.747  19.927  0.00  0.00    +0.000 N 
ATOM     24  H   UNL     1       0.081  11.815  20.486  0.00  0.00    +0.000 HD
BRANCH  23  25
ATOM     25  C   UNL     1       1.338  13.055  19.590  0.00  0.00    +0.000 A 
ATOM     26  C   UNL     1       2.325  13.201  18.596  0.00  0.00    +0.000 A 
ATOM     27  C   UNL     1       2.773  14.461  18.175  0.00  0.00    +0.000 A 
ATOM     28  C   UNL     1       2.209  15.610  18.733  0.00  0.00    +0.000 A 
ATOM     29  C   UNL     1       1.185  15.498  19.676  0.00  0.00    +0.000 A 
ATOM     30  C   UNL     1       0.741  14.226  20.075  0.00  0.00    +0.000 A 
BRANCH  28  31
ATOM     31  N   UNL     1       2.680  16.939  18.318  0.00  0.00    +0.000 N 
ATOM     32  O   UNL     1       1.931  17.906  18.524  0.00  0.00    +0.000 OA
ATOM     33  O   UNL     1       3.801  17.021  17.795  0.00  0.00    +0.000 OA
ENDBRANCH  28  31
ENDBRANCH  23  25
ENDBRANCH   1  23
TORSDOF 9
ENDMDL
