MODEL 1
REMARK VINA RESULT:      -8.8      0.000      0.000
REMARK  Name = 
REMARK  4 active torsions:
REMARK  status: ('A' for Active; 'I' for Inactive)
REMARK    1  A    between atoms: C_2  and  C_16
REMARK    2  A    between atoms: N_3  and  C_4
REMARK    3  A    between atoms: C_7  and  N_8
REMARK    4  A    between atoms: C_22  and  C_23
REMARK                            x       y       z     vdW  Elec       q    Type
REMARK                         _______ _______ _______ _____ _____    ______ ____
ROOT
ATOM      1  O   UNL     1       2.387   8.051  19.666  0.00  0.00    +0.000 OA
ATOM      2  C   UNL     1       1.671   7.199  20.182  0.00  0.00    +0.000 C 
ATOM      3  N   UNL     1       0.633   7.409  21.068  0.00  0.00    +0.000 N 
ATOM      4  H   UNL     1       0.233   6.585  21.500  0.00  0.00    +0.000 HD
ENDROOT
BRANCH   2   5
ATOM      5  C   UNL     1       1.978   5.741  19.841  0.00  0.00    +0.000 A 
ATOM      6  C   UNL     1       1.102   4.755  20.559  0.00  0.00    +0.000 A 
ATOM      7  C   UNL     1       1.365   3.468  20.329  0.00  0.00    +0.000 A 
ATOM      8  N   UNL     1       2.390   3.108  19.469  0.00  0.00    +0.000 N 
ATOM      9  N   UNL     1       2.767   1.849  19.160  0.00  0.00    +0.000 NA
ATOM     10  C   UNL     1       3.796   2.012  18.338  0.00  0.00    +0.000 A 
ATOM     11  C   UNL     1       4.097   3.368  18.073  0.00  0.00    +0.000 A 
ATOM     12  C   UNL     1       3.170   4.084  18.820  0.00  0.00    +0.000 A 
ATOM     13  N   UNL     1       2.941   5.436  19.010  0.00  0.00    +0.000 NA
BRANCH  11  14
ATOM     14  C   UNL     1       5.160   3.901  17.236  0.00  0.00    +0.000 A 
ATOM     15  C   UNL     1       6.124   4.754  17.803  0.00  0.00    +0.000 A 
ATOM     16  C   UNL     1       7.110   5.348  17.012  0.00  0.00    +0.000 A 
ATOM     17  C   UNL     1       7.148   5.092  15.644  0.00  0.00    +0.000 A 
ATOM     18  C   UNL     1       6.203   4.238  15.078  0.00  0.00    +0.000 A 
ATOM     19 CL   UNL     1       6.249   3.927  13.385  0.00  0.00    +0.000 Cl
ATOM     20  C   UNL     1       5.213   3.644  15.863  0.00  0.00    +0.000 A 
ENDBRANCH  11  14
ENDBRANCH   2   5
BRANCH   3  21
ATOM     21  C   UNL     1       0.189   8.687  21.483  0.00  0.00    +0.000 A 
ATOM     22  C   UNL     1      -0.053   9.008  22.817  0.00  0.00    +0.000 A 
ATOM     23  C   UNL     1      -0.545  10.265  23.186  0.00  0.00    +0.000 A 
ATOM     24  C   UNL     1      -0.816  11.259  22.241  0.00  0.00    +0.000 A 
ATOM     25  C   UNL     1      -0.532  10.934  20.906  0.00  0.00    +0.000 A 
ATOM     26  C   UNL     1      -0.026   9.675  20.526  0.00  0.00    +0.000 A 
BRANCH  24  27
ATOM     27  N   UNL     1      -1.354  12.471  22.608  0.00  0.00    +0.000 N 
ATOM     28  C   UNL     1      -0.641  13.746  22.458  0.00  0.00    +0.000 C 
ATOM     29  C   UNL     1      -1.538  14.760  21.717  0.00  0.00    +0.000 C 
ATOM     30  N   UNL     1      -2.848  14.965  22.370  0.00  0.00    +0.000 NA
ATOM     31  C   UNL     1      -3.520  13.660  22.540  0.00  0.00    +0.000 C 
ATOM     32  C   UNL     1      -2.662  12.599  23.273  0.00  0.00    +0.000 C 
ATOM     33  H   UNL     1      -3.426  15.557  21.775  0.00  0.00    +0.000 HD
ENDBRANCH  24  27
ENDBRANCH   3  21
TORSDOF 4
ENDMDL
MODEL 2
REMARK VINA RESULT:      -8.8      0.649      1.087
REMARK  Name = 
REMARK  4 active torsions:
REMARK  status: ('A' for Active; 'I' for Inactive)
REMARK    1  A    between atoms: C_2  and  C_16
REMARK    2  A    between atoms: N_3  and  C_4
REMARK    3  A    between atoms: C_7  and  N_8
REMARK    4  A    between atoms: C_22  and  C_23
REMARK                            x       y       z     vdW  Elec       q    Type
REMARK                         _______ _______ _______ _____ _____    ______ ____
ROOT
ATOM      1  O   UNL     1       2.128   8.267  19.341  0.00  0.00    +0.000 OA
ATOM      2  C   UNL     1       1.701   7.435  20.134  0.00  0.00    +0.000 C 
ATOM      3  N   UNL     1       0.874   7.664  21.217  0.00  0.00    +0.000 N 
ATOM      4  H   UNL     1       0.725   6.884  21.845  0.00  0.00    +0.000 HD
ENDROOT
BRANCH   2   5
ATOM      5  C   UNL     1       2.157   5.990  19.932  0.00  0.00    +0.000 A 
ATOM      6  C   UNL     1       1.459   5.005  20.824  0.00  0.00    +0.000 A 
ATOM      7  C   UNL     1       1.859   3.737  20.717  0.00  0.00    +0.000 A 
ATOM      8  N   UNL     1       2.857   3.394  19.820  0.00  0.00    +0.000 N 
ATOM      9  N   UNL     1       3.362   2.158  19.622  0.00  0.00    +0.000 NA
ATOM     10  C   UNL     1       4.304   2.335  18.705  0.00  0.00    +0.000 A 
ATOM     11  C   UNL     1       4.419   3.676  18.268  0.00  0.00    +0.000 A 
ATOM     12  C   UNL     1       3.466   4.367  19.005  0.00  0.00    +0.000 A 
ATOM     13  N   UNL     1       3.090   5.698  19.063  0.00  0.00    +0.000 NA
BRANCH  11  14
ATOM     14  C   UNL     1       5.350   4.220  17.292  0.00  0.00    +0.000 A 
ATOM     15  C   UNL     1       6.234   5.245  17.676  0.00  0.00    +0.000 A 
ATOM     16  C   UNL     1       7.083   5.847  16.745  0.00  0.00    +0.000 A 
ATOM     17  C   UNL     1       7.063   5.427  15.418  0.00  0.00    +0.000 A 
ATOM     18  C   UNL     1       6.198   4.405  15.032  0.00  0.00    +0.000 A 
ATOM     19 CL   UNL     1       6.171   3.893  13.388  0.00  0.00    +0.000 Cl
ATOM     20  C   UNL     1       5.344   3.802  15.958  0.00  0.00    +0.000 A 
ENDBRANCH  11  14
ENDBRANCH   2   5
BRANCH   3  21
ATOM     21  C   UNL     1       0.332   8.928  21.549  0.00  0.00    +0.000 A 
ATOM     22  C   UNL     1      -0.213   9.213  22.799  0.00  0.00    +0.000 A 
ATOM     23  C   UNL     1      -0.791  10.458  23.075  0.00  0.00    +0.000 A 
ATOM     24  C   UNL     1      -0.847  11.474  22.118  0.00  0.00    +0.000 A 
ATOM     25  C   UNL     1      -0.259  11.187  20.877  0.00  0.00    +0.000 A 
ATOM     26  C   UNL     1       0.333   9.941  20.593  0.00  0.00    +0.000 A 
BRANCH  24  27
ATOM     27  N   UNL     1      -1.468  12.674  22.381  0.00  0.00    +0.000 N 
ATOM     28  C   UNL     1      -2.928  12.831  22.428  0.00  0.00    +0.000 C 
ATOM     29  C   UNL     1      -3.332  13.536  23.740  0.00  0.00    +0.000 C 
ATOM     30  N   UNL     1      -2.658  14.836  23.935  0.00  0.00    +0.000 NA
ATOM     31  C   UNL     1      -1.195  14.647  23.843  0.00  0.00    +0.000 C 
ATOM     32  C   UNL     1      -0.731  13.938  22.546  0.00  0.00    +0.000 C 
ATOM     33  H   UNL     1      -2.886  15.191  24.863  0.00  0.00    +0.000 HD
ENDBRANCH  24  27
ENDBRANCH   3  21
TORSDOF 4
ENDMDL
MODEL 3
REMARK VINA RESULT:      -8.8      1.086      1.625
REMARK  Name = 
REMARK  4 active torsions:
REMARK  status: ('A' for Active; 'I' for Inactive)
REMARK    1  A    between atoms: C_2  and  C_16
REMARK    2  A    between atoms: N_3  and  C_4
REMARK    3  A    between atoms: C_7  and  N_8
REMARK    4  A    between atoms: C_22  and  C_23
REMARK                            x       y       z     vdW  Elec       q    Type
REMARK                         _______ _______ _______ _____ _____    ______ ____
ROOT
ATOM      1  O   UNL     1       1.909   8.430  19.064  0.00  0.00    +0.000 OA
ATOM      2  C   UNL     1       1.711   7.746  20.061  0.00  0.00    +0.000 C 
ATOM      3  N   UNL     1       1.127   8.150  21.246  0.00  0.00    +0.000 N 
ATOM      4  H   UNL     1       1.161   7.492  22.015  0.00  0.00    +0.000 HD
ENDROOT
BRANCH   2   5
ATOM      5  C   UNL     1       2.193   6.296  20.011  0.00  0.00    +0.000 A 
ATOM      6  C   UNL     1       1.536   5.405  21.026  0.00  0.00    +0.000 A 
ATOM      7  C   UNL     1       1.960   4.140  21.051  0.00  0.00    +0.000 A 
ATOM      8  N   UNL     1       2.945   3.717  20.174  0.00  0.00    +0.000 N 
ATOM      9  N   UNL     1       3.471   2.476  20.103  0.00  0.00    +0.000 NA
ATOM     10  C   UNL     1       4.388   2.566  19.148  0.00  0.00    +0.000 A 
ATOM     11  C   UNL     1       4.465   3.851  18.561  0.00  0.00    +0.000 A 
ATOM     12  C   UNL     1       3.515   4.603  19.240  0.00  0.00    +0.000 A 
ATOM     13  N   UNL     1       3.112   5.925  19.157  0.00  0.00    +0.000 NA
BRANCH  11  14
ATOM     14  C   UNL     1       5.361   4.299  17.507  0.00  0.00    +0.000 A 
ATOM     15  C   UNL     1       6.352   5.253  17.802  0.00  0.00    +0.000 A 
ATOM     16  C   UNL     1       7.176   5.766  16.798  0.00  0.00    +0.000 A 
ATOM     17  C   UNL     1       7.023   5.327  15.486  0.00  0.00    +0.000 A 
ATOM     18  C   UNL     1       6.052   4.373  15.188  0.00  0.00    +0.000 A 
ATOM     19 CL   UNL     1       5.860   3.836  13.563  0.00  0.00    +0.000 Cl
ATOM     20  C   UNL     1       5.223   3.859  16.187  0.00  0.00    +0.000 A 
ENDBRANCH  11  14
ENDBRANCH   2   5
BRANCH   3  21
ATOM     21  C   UNL     1       0.600   9.443  21.472  0.00  0.00    +0.000 A 
ATOM     22  C   UNL     1       0.928  10.543  20.681  0.00  0.00    +0.000 A 
ATOM     23  C   UNL     1       0.432  11.820  20.967  0.00  0.00    +0.000 A 
ATOM     24  C   UNL     1      -0.415  12.057  22.052  0.00  0.00    +0.000 A 
ATOM     25  C   UNL     1      -0.769  10.934  22.816  0.00  0.00    +0.000 A 
ATOM     26  C   UNL     1      -0.283   9.643  22.530  0.00  0.00    +0.000 A 
BRANCH  24  27
ATOM     27  N   UNL     1      -0.852  13.326  22.359  0.00  0.00    +0.000 N 
ATOM     28  C   UNL     1      -1.898  13.598  23.354  0.00  0.00    +0.000 C 
ATOM     29  C   UNL     1      -1.400  14.663  24.353  0.00  0.00    +0.000 C 
ATOM     30  N   UNL     1      -0.957  15.913  23.701  0.00  0.00    +0.000 NA
ATOM     31  C   UNL     1       0.065  15.598  22.681  0.00  0.00    +0.000 C 
ATOM     32  C   UNL     1      -0.379  14.528  21.652  0.00  0.00    +0.000 C 
ATOM     33  H   UNL     1      -0.543  16.524  24.404  0.00  0.00    +0.000 HD
ENDBRANCH  24  27
ENDBRANCH   3  21
TORSDOF 4
ENDMDL
MODEL 4
REMARK VINA RESULT:      -8.7      0.647      1.044
REMARK  Name = 
REMARK  4 active torsions:
REMARK  status: ('A' for Active; 'I' for Inactive)
REMARK    1  A    between atoms: C_2  and  C_16
REMARK    2  A    between atoms: N_3  and  C_4
REMARK    3  A    between atoms: C_7  and  N_8
REMARK    4  A    between atoms: C_22  and  C_23
REMARK                            x       y       z     vdW  Elec       q    Type
REMARK                         _______ _______ _______ _____ _____    ______ ____
ROOT
ATOM      1  O   UNL     1       2.153   8.385  19.262  0.00  0.00    +0.000 OA
ATOM      2  C   UNL     1       1.741   7.603  20.111  0.00  0.00    +0.000 C 
ATOM      3  N   UNL     1       0.956   7.901  21.208  0.00  0.00    +0.000 N 
ATOM      4  H   UNL     1       0.817   7.157  21.881  0.00  0.00    +0.000 HD
ENDROOT
BRANCH   2   5
ATOM      5  C   UNL     1       2.167   6.141  19.969  0.00  0.00    +0.000 A 
ATOM      6  C   UNL     1       1.458   5.210  20.909  0.00  0.00    +0.000 A 
ATOM      7  C   UNL     1       1.833   3.931  20.854  0.00  0.00    +0.000 A 
ATOM      8  N   UNL     1       2.816   3.530  19.964  0.00  0.00    +0.000 N 
ATOM      9  N   UNL     1       3.294   2.276  19.816  0.00  0.00    +0.000 NA
ATOM     10  C   UNL     1       4.231   2.395  18.883  0.00  0.00    +0.000 A 
ATOM     11  C   UNL     1       4.368   3.712  18.387  0.00  0.00    +0.000 A 
ATOM     12  C   UNL     1       3.436   4.454  19.102  0.00  0.00    +0.000 A 
ATOM     13  N   UNL     1       3.086   5.793  19.105  0.00  0.00    +0.000 NA
BRANCH  11  14
ATOM     14  C   UNL     1       5.300   4.195  17.381  0.00  0.00    +0.000 A 
ATOM     15  C   UNL     1       6.272   5.147  17.738  0.00  0.00    +0.000 A 
ATOM     16  C   UNL     1       7.128   5.693  16.779  0.00  0.00    +0.000 A 
ATOM     17  C   UNL     1       7.027   5.289  15.451  0.00  0.00    +0.000 A 
ATOM     18  C   UNL     1       6.075   4.338  15.092  0.00  0.00    +0.000 A 
ATOM     19 CL   UNL     1       5.948   3.844  13.447  0.00  0.00    +0.000 Cl
ATOM     20  C   UNL     1       5.213   3.791  16.045  0.00  0.00    +0.000 A 
ENDBRANCH  11  14
ENDBRANCH   2   5
BRANCH   3  21
ATOM     21  C   UNL     1       0.447   9.189  21.493  0.00  0.00    +0.000 A 
ATOM     22  C   UNL     1       0.640  10.283  20.652  0.00  0.00    +0.000 A 
ATOM     23  C   UNL     1       0.169  11.556  20.994  0.00  0.00    +0.000 A 
ATOM     24  C   UNL     1      -0.517  11.795  22.187  0.00  0.00    +0.000 A 
ATOM     25  C   UNL     1      -0.738  10.677  23.006  0.00  0.00    +0.000 A 
ATOM     26  C   UNL     1      -0.277   9.390  22.666  0.00  0.00    +0.000 A 
BRANCH  24  27
ATOM     27  N   UNL     1      -0.925  13.061  22.540  0.00  0.00    +0.000 N 
ATOM     28  C   UNL     1      -0.127  14.266  22.279  0.00  0.00    +0.000 C 
ATOM     29  C   UNL     1      -0.998  15.322  21.567  0.00  0.00    +0.000 C 
ATOM     30  N   UNL     1      -2.230  15.660  22.310  0.00  0.00    +0.000 NA
ATOM     31  C   UNL     1      -2.987  14.422  22.589  0.00  0.00    +0.000 C 
ATOM     32  C   UNL     1      -2.160  13.322  23.299  0.00  0.00    +0.000 C 
ATOM     33  H   UNL     1      -2.805  16.275  21.735  0.00  0.00    +0.000 HD
ENDBRANCH  24  27
ENDBRANCH   3  21
TORSDOF 4
ENDMDL
MODEL 5
REMARK VINA RESULT:      -8.7      1.229      1.709
REMARK  Name = 
REMARK  4 active torsions:
REMARK  status: ('A' for Active; 'I' for Inactive)
REMARK    1  A    between atoms: C_2  and  C_16
REMARK    2  A    between atoms: N_3  and  C_4
REMARK    3  A    between atoms: C_7  and  N_8
REMARK    4  A    between atoms: C_22  and  C_23
REMARK                            x       y       z     vdW  Elec       q    Type
REMARK                         _______ _______ _______ _____ _____    ______ ____
ROOT
ATOM      1  O   UNL     1       2.048   8.438  19.549  0.00  0.00    +0.000 OA
ATOM      2  C   UNL     1       1.522   7.574  20.241  0.00  0.00    +0.000 C 
ATOM      3  N   UNL     1       0.591   7.763  21.245  0.00  0.00    +0.000 N 
ATOM      4  H   UNL     1       0.360   6.952  21.807  0.00  0.00    +0.000 HD
ENDROOT
BRANCH   2   5
ATOM      5  C   UNL     1       1.963   6.131  20.000  0.00  0.00    +0.000 A 
ATOM      6  C   UNL     1       1.228   5.125  20.837  0.00  0.00    +0.000 A 
ATOM      7  C   UNL     1       1.614   3.856  20.695  0.00  0.00    +0.000 A 
ATOM      8  N   UNL     1       2.631   3.530  19.813  0.00  0.00    +0.000 N 
ATOM      9  N   UNL     1       3.124   2.295  19.584  0.00  0.00    +0.000 NA
ATOM     10  C   UNL     1       4.094   2.491  18.700  0.00  0.00    +0.000 A 
ATOM     11  C   UNL     1       4.239   3.844  18.315  0.00  0.00    +0.000 A 
ATOM     12  C   UNL     1       3.276   4.523  19.050  0.00  0.00    +0.000 A 
ATOM     13  N   UNL     1       2.916   5.856  19.146  0.00  0.00    +0.000 NA
BRANCH  11  14
ATOM     14  C   UNL     1       5.203   4.410  17.384  0.00  0.00    +0.000 A 
ATOM     15  C   UNL     1       5.465   3.747  16.172  0.00  0.00    +0.000 A 
ATOM     16  C   UNL     1       6.443   4.218  15.293  0.00  0.00    +0.000 A 
ATOM     17  C   UNL     1       7.167   5.363  15.613  0.00  0.00    +0.000 A 
ATOM     18  C   UNL     1       6.905   6.032  16.807  0.00  0.00    +0.000 A 
ATOM     19 CL   UNL     1       7.807   7.445  17.203  0.00  0.00    +0.000 Cl
ATOM     20  C   UNL     1       5.931   5.564  17.691  0.00  0.00    +0.000 A 
ENDBRANCH  11  14
ENDBRANCH   2   5
BRANCH   3  21
ATOM     21  C   UNL     1       0.047   9.021  21.597  0.00  0.00    +0.000 A 
ATOM     22  C   UNL     1      -0.190   9.401  22.916  0.00  0.00    +0.000 A 
ATOM     23  C   UNL     1      -0.782  10.632  23.224  0.00  0.00    +0.000 A 
ATOM     24  C   UNL     1      -1.161  11.538  22.231  0.00  0.00    +0.000 A 
ATOM     25  C   UNL     1      -0.882  11.158  20.909  0.00  0.00    +0.000 A 
ATOM     26  C   UNL     1      -0.277   9.926  20.589  0.00  0.00    +0.000 A 
BRANCH  24  27
ATOM     27  N   UNL     1      -1.795  12.720  22.541  0.00  0.00    +0.000 N 
ATOM     28  C   UNL     1      -3.245  12.914  22.409  0.00  0.00    +0.000 C 
ATOM     29  C   UNL     1      -3.815  13.483  23.725  0.00  0.00    +0.000 C 
ATOM     30  N   UNL     1      -3.155  14.733  24.155  0.00  0.00    +0.000 NA
ATOM     31  C   UNL     1      -1.696  14.512  24.239  0.00  0.00    +0.000 C 
ATOM     32  C   UNL     1      -1.069  13.936  22.945  0.00  0.00    +0.000 C 
ATOM     33  H   UNL     1      -3.502  14.990  25.078  0.00  0.00    +0.000 HD
ENDBRANCH  24  27
ENDBRANCH   3  21
TORSDOF 4
ENDMDL
MODEL 6
REMARK VINA RESULT:      -8.6      1.786      2.300
REMARK  Name = 
REMARK  4 active torsions:
REMARK  status: ('A' for Active; 'I' for Inactive)
REMARK    1  A    between atoms: C_2  and  C_16
REMARK    2  A    between atoms: N_3  and  C_4
REMARK    3  A    between atoms: C_7  and  N_8
REMARK    4  A    between atoms: C_22  and  C_23
REMARK                            x       y       z     vdW  Elec       q    Type
REMARK                         _______ _______ _______ _____ _____    ______ ____
ROOT
ATOM      1  O   UNL     1       2.295   8.728  18.272  0.00  0.00    +0.000 OA
ATOM      2  C   UNL     1       1.853   8.181  19.276  0.00  0.00    +0.000 C 
ATOM      3  N   UNL     1       1.036   8.742  20.239  0.00  0.00    +0.000 N 
ATOM      4  H   UNL     1       0.873   8.189  21.072  0.00  0.00    +0.000 HD
ENDROOT
BRANCH   2   5
ATOM      5  C   UNL     1       2.276   6.732  19.517  0.00  0.00    +0.000 A 
ATOM      6  C   UNL     1       1.591   6.089  20.688  0.00  0.00    +0.000 A 
ATOM      7  C   UNL     1       1.964   4.838  20.966  0.00  0.00    +0.000 A 
ATOM      8  N   UNL     1       2.924   4.209  20.191  0.00  0.00    +0.000 N 
ATOM      9  N   UNL     1       3.399   2.958  20.369  0.00  0.00    +0.000 NA
ATOM     10  C   UNL     1       4.312   2.818  19.416  0.00  0.00    +0.000 A 
ATOM     11  C   UNL     1       4.436   3.955  18.585  0.00  0.00    +0.000 A 
ATOM     12  C   UNL     1       3.522   4.866  19.099  0.00  0.00    +0.000 A 
ATOM     13  N   UNL     1       3.172   6.160  18.754  0.00  0.00    +0.000 NA
BRANCH  11  14
ATOM     14  C   UNL     1       5.342   4.148  17.463  0.00  0.00    +0.000 A 
ATOM     15  C   UNL     1       6.642   4.629  17.699  0.00  0.00    +0.000 A 
ATOM     16  C   UNL     1       7.510   4.902  16.639  0.00  0.00    +0.000 A 
ATOM     17  C   UNL     1       7.089   4.692  15.329  0.00  0.00    +0.000 A 
ATOM     18  C   UNL     1       5.806   4.205  15.088  0.00  0.00    +0.000 A 
ATOM     19 CL   UNL     1       5.286   3.952  13.466  0.00  0.00    +0.000 Cl
ATOM     20  C   UNL     1       4.933   3.933  16.143  0.00  0.00    +0.000 A 
ENDBRANCH  11  14
ENDBRANCH   2   5
BRANCH   3  21
ATOM     21  C   UNL     1       0.525  10.060  20.177  0.00  0.00    +0.000 A 
ATOM     22  C   UNL     1      -0.565  10.413  19.385  0.00  0.00    +0.000 A 
ATOM     23  C   UNL     1      -1.009  11.738  19.305  0.00  0.00    +0.000 A 
ATOM     24  C   UNL     1      -0.388  12.769  20.014  0.00  0.00    +0.000 A 
ATOM     25  C   UNL     1       0.685  12.393  20.837  0.00  0.00    +0.000 A 
ATOM     26  C   UNL     1       1.133  11.061  20.932  0.00  0.00    +0.000 A 
BRANCH  24  27
ATOM     27  N   UNL     1      -0.795  14.077  19.884  0.00  0.00    +0.000 N 
ATOM     28  C   UNL     1      -1.912  14.651  20.646  0.00  0.00    +0.000 C 
ATOM     29  C   UNL     1      -1.459  15.961  21.324  0.00  0.00    +0.000 C 
ATOM     30  N   UNL     1      -0.908  16.950  20.374  0.00  0.00    +0.000 NA
ATOM     31  C   UNL     1       0.185  16.328  19.599  0.00  0.00    +0.000 C 
ATOM     32  C   UNL     1      -0.211  15.004  18.899  0.00  0.00    +0.000 C 
ATOM     33  H   UNL     1      -0.532  17.739  20.899  0.00  0.00    +0.000 HD
ENDBRANCH  24  27
ENDBRANCH   3  21
TORSDOF 4
ENDMDL
MODEL 7
REMARK VINA RESULT:      -8.6      0.999      1.149
REMARK  Name = 
REMARK  4 active torsions:
REMARK  status: ('A' for Active; 'I' for Inactive)
REMARK    1  A    between atoms: C_2  and  C_16
REMARK    2  A    between atoms: N_3  and  C_4
REMARK    3  A    between atoms: C_7  and  N_8
REMARK    4  A    between atoms: C_22  and  C_23
REMARK                            x       y       z     vdW  Elec       q    Type
REMARK                         _______ _______ _______ _____ _____    ______ ____
ROOT
ATOM      1  O   UNL     1       1.834   8.284  19.172  0.00  0.00    +0.000 OA
ATOM      2  C   UNL     1       1.719   7.600  20.183  0.00  0.00    +0.000 C 
ATOM      3  N   UNL     1       1.191   7.992  21.399  0.00  0.00    +0.000 N 
ATOM      4  H   UNL     1       1.294   7.341  22.168  0.00  0.00    +0.000 HD
ENDROOT
BRANCH   2   5
ATOM      5  C   UNL     1       2.247   6.167  20.112  0.00  0.00    +0.000 A 
ATOM      6  C   UNL     1       1.640   5.247  21.132  0.00  0.00    +0.000 A 
ATOM      7  C   UNL     1       2.106   3.997  21.139  0.00  0.00    +0.000 A 
ATOM      8  N   UNL     1       3.086   3.613  20.239  0.00  0.00    +0.000 N 
ATOM      9  N   UNL     1       3.651   2.391  20.147  0.00  0.00    +0.000 NA
ATOM     10  C   UNL     1       4.546   2.518  19.176  0.00  0.00    +0.000 A 
ATOM     11  C   UNL     1       4.569   3.809  18.598  0.00  0.00    +0.000 A 
ATOM     12  C   UNL     1       3.608   4.525  19.301  0.00  0.00    +0.000 A 
ATOM     13  N   UNL     1       3.160   5.833  19.237  0.00  0.00    +0.000 NA
BRANCH  11  14
ATOM     14  C   UNL     1       5.428   4.295  17.530  0.00  0.00    +0.000 A 
ATOM     15  C   UNL     1       6.392   5.279  17.813  0.00  0.00    +0.000 A 
ATOM     16  C   UNL     1       7.179   5.827  16.797  0.00  0.00    +0.000 A 
ATOM     17  C   UNL     1       7.015   5.391  15.485  0.00  0.00    +0.000 A 
ATOM     18  C   UNL     1       6.070   4.408  15.199  0.00  0.00    +0.000 A 
ATOM     19 CL   UNL     1       5.865   3.876  13.574  0.00  0.00    +0.000 Cl
ATOM     20  C   UNL     1       5.279   3.860  16.210  0.00  0.00    +0.000 A 
ENDBRANCH  11  14
ENDBRANCH   2   5
BRANCH   3  21
ATOM     21  C   UNL     1       0.635   9.268  21.648  0.00  0.00    +0.000 A 
ATOM     22  C   UNL     1      -0.278   9.509  22.672  0.00  0.00    +0.000 A 
ATOM     23  C   UNL     1      -0.852  10.773  22.855  0.00  0.00    +0.000 A 
ATOM     24  C   UNL     1      -0.538  11.853  22.027  0.00  0.00    +0.000 A 
ATOM     25  C   UNL     1       0.412  11.606  21.024  0.00  0.00    +0.000 A 
ATOM     26  C   UNL     1       1.002  10.340  20.839  0.00  0.00    +0.000 A 
BRANCH  24  27
ATOM     27  N   UNL     1      -1.150  13.077  22.179  0.00  0.00    +0.000 N 
ATOM     28  C   UNL     1      -1.186  13.805  23.453  0.00  0.00    +0.000 C 
ATOM     29  C   UNL     1      -0.698  15.254  23.238  0.00  0.00    +0.000 C 
ATOM     30  N   UNL     1      -1.460  15.977  22.198  0.00  0.00    +0.000 NA
ATOM     31  C   UNL     1      -1.435  15.197  20.943  0.00  0.00    +0.000 C 
ATOM     32  C   UNL     1      -1.910  13.731  21.100  0.00  0.00    +0.000 C 
ATOM     33  H   UNL     1      -1.018  16.880  22.033  0.00  0.00    +0.000 HD
ENDBRANCH  24  27
ENDBRANCH   3  21
TORSDOF 4
ENDMDL
MODEL 8
REMARK VINA RESULT:      -8.6      1.038      1.583
REMARK  Name = 
REMARK  4 active torsions:
REMARK  status: ('A' for Active; 'I' for Inactive)
REMARK    1  A    between atoms: C_2  and  C_16
REMARK    2  A    between atoms: N_3  and  C_4
REMARK    3  A    between atoms: C_7  and  N_8
REMARK    4  A    between atoms: C_22  and  C_23
REMARK                            x       y       z     vdW  Elec       q    Type
REMARK                         _______ _______ _______ _____ _____    ______ ____
ROOT
ATOM      1  O   UNL     1       2.302   8.361  19.852  0.00  0.00    +0.000 OA
ATOM      2  C   UNL     1       1.570   7.485  20.297  0.00  0.00    +0.000 C 
ATOM      3  N   UNL     1       0.451   7.656  21.090  0.00  0.00    +0.000 N 
ATOM      4  H   UNL     1       0.039   6.816  21.479  0.00  0.00    +0.000 HD
ENDROOT
BRANCH   2   5
ATOM      5  C   UNL     1       1.948   6.039  19.975  0.00  0.00    +0.000 A 
ATOM      6  C   UNL     1       1.164   5.021  20.751  0.00  0.00    +0.000 A 
ATOM      7  C   UNL     1       1.494   3.746  20.538  0.00  0.00    +0.000 A 
ATOM      8  N   UNL     1       2.501   3.426  19.642  0.00  0.00    +0.000 N 
ATOM      9  N   UNL     1       2.939   2.185  19.345  0.00  0.00    +0.000 NA
ATOM     10  C   UNL     1       3.922   2.387  18.475  0.00  0.00    +0.000 A 
ATOM     11  C   UNL     1       4.129   3.753  18.168  0.00  0.00    +0.000 A 
ATOM     12  C   UNL     1       3.193   4.430  18.939  0.00  0.00    +0.000 A 
ATOM     13  N   UNL     1       2.892   5.771  19.109  0.00  0.00    +0.000 NA
BRANCH  11  14
ATOM     14  C   UNL     1       5.122   4.327  17.275  0.00  0.00    +0.000 A 
ATOM     15  C   UNL     1       5.406   3.687  16.055  0.00  0.00    +0.000 A 
ATOM     16  C   UNL     1       6.411   4.165  15.211  0.00  0.00    +0.000 A 
ATOM     17  C   UNL     1       7.141   5.293  15.574  0.00  0.00    +0.000 A 
ATOM     18  C   UNL     1       6.857   5.940  16.775  0.00  0.00    +0.000 A 
ATOM     19 CL   UNL     1       7.765   7.332  17.224  0.00  0.00    +0.000 Cl
ATOM     20  C   UNL     1       5.856   5.464  17.625  0.00  0.00    +0.000 A 
ENDBRANCH  11  14
ENDBRANCH   2   5
BRANCH   3  21
ATOM     21  C   UNL     1      -0.066   8.916  21.472  0.00  0.00    +0.000 A 
ATOM     22  C   UNL     1      -0.311   9.942  20.562  0.00  0.00    +0.000 A 
ATOM     23  C   UNL     1      -0.770  11.195  20.983  0.00  0.00    +0.000 A 
ATOM     24  C   UNL     1      -1.008  11.481  22.330  0.00  0.00    +0.000 A 
ATOM     25  C   UNL     1      -0.794  10.426  23.231  0.00  0.00    +0.000 A 
ATOM     26  C   UNL     1      -0.342   9.158  22.816  0.00  0.00    +0.000 A 
BRANCH  24  27
ATOM     27  N   UNL     1      -1.404  12.733  22.740  0.00  0.00    +0.000 N 
ATOM     28  C   UNL     1      -0.571  13.933  22.581  0.00  0.00    +0.000 C 
ATOM     29  C   UNL     1      -1.390  15.047  21.897  0.00  0.00    +0.000 C 
ATOM     30  N   UNL     1      -2.644  15.370  22.610  0.00  0.00    +0.000 NA
ATOM     31  C   UNL     1      -3.437  14.136  22.786  0.00  0.00    +0.000 C 
ATOM     32  C   UNL     1      -2.663  12.978  23.463  0.00  0.00    +0.000 C 
ATOM     33  H   UNL     1      -3.182  16.030  22.050  0.00  0.00    +0.000 HD
ENDBRANCH  24  27
ENDBRANCH   3  21
TORSDOF 4
ENDMDL
MODEL 9
REMARK VINA RESULT:      -8.5      2.314      2.932
REMARK  Name = 
REMARK  4 active torsions:
REMARK  status: ('A' for Active; 'I' for Inactive)
REMARK    1  A    between atoms: C_2  and  C_16
REMARK    2  A    between atoms: N_3  and  C_4
REMARK    3  A    between atoms: C_7  and  N_8
REMARK    4  A    between atoms: C_22  and  C_23
REMARK                            x       y       z     vdW  Elec       q    Type
REMARK                         _______ _______ _______ _____ _____    ______ ____
ROOT
ATOM      1  O   UNL     1       1.838   8.207  21.075  0.00  0.00    +0.000 OA
ATOM      2  C   UNL     1       1.899   7.781  19.927  0.00  0.00    +0.000 C 
ATOM      3  N   UNL     1       1.727   8.503  18.761  0.00  0.00    +0.000 N 
ATOM      4  H   UNL     1       1.679   7.969  17.901  0.00  0.00    +0.000 HD
ENDROOT
BRANCH   2   5
ATOM      5  C   UNL     1       2.155   6.284  19.757  0.00  0.00    +0.000 A 
ATOM      6  C   UNL     1       1.299   5.420  20.636  0.00  0.00    +0.000 A 
ATOM      7  C   UNL     1       1.523   4.107  20.557  0.00  0.00    +0.000 A 
ATOM      8  N   UNL     1       2.491   3.615  19.698  0.00  0.00    +0.000 N 
ATOM      9  N   UNL     1       2.825   2.318  19.531  0.00  0.00    +0.000 NA
ATOM     10  C   UNL     1       3.812   2.348  18.644  0.00  0.00    +0.000 A 
ATOM     11  C   UNL     1       4.126   3.652  18.196  0.00  0.00    +0.000 A 
ATOM     12  C   UNL     1       3.256   4.481  18.893  0.00  0.00    +0.000 A 
ATOM     13  N   UNL     1       3.066   5.851  18.923  0.00  0.00    +0.000 NA
BRANCH  11  14
ATOM     14  C   UNL     1       5.154   4.047  17.246  0.00  0.00    +0.000 A 
ATOM     15  C   UNL     1       6.236   4.831  17.685  0.00  0.00    +0.000 A 
ATOM     16  C   UNL     1       7.197   5.296  16.784  0.00  0.00    +0.000 A 
ATOM     17  C   UNL     1       7.090   4.978  15.433  0.00  0.00    +0.000 A 
ATOM     18  C   UNL     1       6.027   4.192  14.993  0.00  0.00    +0.000 A 
ATOM     19 CL   UNL     1       5.894   3.805  13.320  0.00  0.00    +0.000 Cl
ATOM     20  C   UNL     1       5.062   3.727  15.888  0.00  0.00    +0.000 A 
ENDBRANCH  11  14
ENDBRANCH   2   5
BRANCH   3  21
ATOM     21  C   UNL     1       1.505   9.899  18.717  0.00  0.00    +0.000 A 
ATOM     22  C   UNL     1       2.439  10.800  18.210  0.00  0.00    +0.000 A 
ATOM     23  C   UNL     1       2.209  12.180  18.234  0.00  0.00    +0.000 A 
ATOM     24  C   UNL     1       1.034  12.724  18.760  0.00  0.00    +0.000 A 
ATOM     25  C   UNL     1       0.085  11.803  19.231  0.00  0.00    +0.000 A 
ATOM     26  C   UNL     1       0.304  10.412  19.202  0.00  0.00    +0.000 A 
BRANCH  24  27
ATOM     27  N   UNL     1       0.841  14.085  18.831  0.00  0.00    +0.000 N 
ATOM     28  C   UNL     1      -0.477  14.701  19.030  0.00  0.00    +0.000 C 
ATOM     29  C   UNL     1      -0.409  15.708  20.197  0.00  0.00    +0.000 C 
ATOM     30  N   UNL     1       0.632  16.742  20.015  0.00  0.00    +0.000 NA
ATOM     31  C   UNL     1       1.935  16.087  19.780  0.00  0.00    +0.000 C 
ATOM     32  C   UNL     1       1.925  15.059  18.621  0.00  0.00    +0.000 C 
ATOM     33  H   UNL     1       0.693  17.301  20.865  0.00  0.00    +0.000 HD
ENDBRANCH  24  27
ENDBRANCH   3  21
TORSDOF 4
ENDMDL
