MODEL 1
REMARK VINA RESULT:      -8.1      0.000      0.000
REMARK  Name = 
REMARK  4 active torsions:
REMARK  status: ('A' for Active; 'I' for Inactive)
REMARK    1  A    between atoms: C_1  and  C_2
REMARK    2  A    between atoms: C_3  and  C_4
REMARK    3  A    between atoms: C_9  and  C_10
REMARK    4  A    between atoms: C_20  and  O_21
REMARK                            x       y       z     vdW  Elec       q    Type
REMARK                         _______ _______ _______ _____ _____    ______ ____
ROOT
ATOM      1  C   UNL     1       1.761   8.978  17.601  0.00  0.00    +0.000 C 
ATOM      2  C   UNL     1       1.569   8.665  19.043  0.00  0.00    +0.000 A 
ATOM      3  C   UNL     1       2.077   7.562  19.718  0.00  0.00    +0.000 A 
ATOM      4  O   UNL     1       1.704   7.613  21.033  0.00  0.00    +0.000 OA
ATOM      5  C   UNL     1       0.967   8.738  21.211  0.00  0.00    +0.000 A 
ATOM      6  C   UNL     1       0.410   9.134  22.422  0.00  0.00    +0.000 A 
ATOM      7  C   UNL     1      -0.278  10.350  22.417  0.00  0.00    +0.000 A 
ATOM      8  C   UNL     1      -0.383  11.114  21.251  0.00  0.00    +0.000 A 
ATOM      9  C   UNL     1       0.156  10.680  20.021  0.00  0.00    +0.000 A 
ATOM     10  C   UNL     1       0.857   9.445  20.020  0.00  0.00    +0.000 A 
ATOM     11  C   UNL     1      -0.006  11.531  18.789  0.00  0.00    +0.000 C 
ATOM     12  C   UNL     1      -0.955  12.695  19.009  0.00  0.00    +0.000 C 
ATOM     13  C   UNL     1      -0.769  13.311  20.403  0.00  0.00    +0.000 C 
ATOM     14  C   UNL     1       0.631  13.927  20.646  0.00  0.00    +0.000 C 
ATOM     15  C   UNL     1       0.730  14.634  21.999  0.00  0.00    +0.000 C 
ATOM     16  C   UNL     1      -0.337  15.709  22.148  0.00  0.00    +0.000 C 
ATOM     17  C   UNL     1      -1.734  15.151  21.907  0.00  0.00    +0.000 C 
ATOM     18  C   UNL     1      -1.832  14.423  20.568  0.00  0.00    +0.000 C 
ATOM     19  O   UNL     1      -1.042  12.310  21.404  0.00  0.00    +0.000 OA
ENDROOT
BRANCH   3  20
ATOM     20  C   UNL     1       2.981   6.516  19.266  0.00  0.00    +0.000 C 
ATOM     21  O   UNL     1       4.078   6.799  18.777  0.00  0.00    +0.000 OA
ATOM     22  N   UNL     1       2.603   5.176  19.423  0.00  0.00    +0.000 N 
ATOM     23  C   UNL     1       3.595   4.149  19.121  0.00  0.00    +0.000 C 
ATOM     24  C   UNL     1       3.481   2.989  20.106  0.00  0.00    +0.000 C 
ATOM     25  C   UNL     1       2.058   2.419  20.184  0.00  0.00    +0.000 C 
ATOM     26  C   UNL     1       1.710   1.604  18.936  0.00  0.00    +0.000 C 
ATOM     27  C   UNL     1       1.047   3.552  20.427  0.00  0.00    +0.000 C 
ATOM     28  C   UNL     1       1.217   4.712  19.448  0.00  0.00    +0.000 C 
ENDBRANCH   3  20
BRANCH  11  29
ATOM     29  O   UNL     1       1.247  12.049  18.343  0.00  0.00    +0.000 OA
ATOM     30  H   UNL     1       1.933  11.783  18.981  0.00  0.00    +0.000 HD
ENDBRANCH  11  29
TORSDOF 2
ENDMDL
MODEL 2
REMARK VINA RESULT:      -7.8      1.391      1.615
REMARK  Name = 
REMARK  4 active torsions:
REMARK  status: ('A' for Active; 'I' for Inactive)
REMARK    1  A    between atoms: C_1  and  C_2
REMARK    2  A    between atoms: C_3  and  C_4
REMARK    3  A    between atoms: C_9  and  C_10
REMARK    4  A    between atoms: C_20  and  O_21
REMARK                            x       y       z     vdW  Elec       q    Type
REMARK                         _______ _______ _______ _____ _____    ______ ____
ROOT
ATOM      1  C   UNL     1       0.373   9.784  17.865  0.00  0.00    +0.000 C 
ATOM      2  C   UNL     1       0.679   9.331  19.249  0.00  0.00    +0.000 A 
ATOM      3  C   UNL     1       1.598   8.351  19.607  0.00  0.00    +0.000 A 
ATOM      4  O   UNL     1       1.616   8.210  20.967  0.00  0.00    +0.000 OA
ATOM      5  C   UNL     1       0.723   9.090  21.487  0.00  0.00    +0.000 A 
ATOM      6  C   UNL     1       0.462   9.241  22.844  0.00  0.00    +0.000 A 
ATOM      7  C   UNL     1      -0.458  10.235  23.188  0.00  0.00    +0.000 A 
ATOM      8  C   UNL     1      -1.065  11.027  22.210  0.00  0.00    +0.000 A 
ATOM      9  C   UNL     1      -0.816  10.836  20.833  0.00  0.00    +0.000 A 
ATOM     10  C   UNL     1       0.118   9.828  20.476  0.00  0.00    +0.000 A 
ATOM     11  C   UNL     1      -1.515  11.701  19.818  0.00  0.00    +0.000 C 
ATOM     12  C   UNL     1      -2.601  12.561  20.439  0.00  0.00    +0.000 C 
ATOM     13  C   UNL     1      -2.170  13.104  21.808  0.00  0.00    +0.000 C 
ATOM     14  C   UNL     1      -0.939  14.042  21.764  0.00  0.00    +0.000 C 
ATOM     15  C   UNL     1      -0.621  14.652  23.130  0.00  0.00    +0.000 C 
ATOM     16  C   UNL     1      -1.817  15.401  23.701  0.00  0.00    +0.000 C 
ATOM     17  C   UNL     1      -3.058  14.518  23.755  0.00  0.00    +0.000 C 
ATOM     18  C   UNL     1      -3.366  13.887  22.398  0.00  0.00    +0.000 C 
ATOM     19  O   UNL     1      -1.908  11.997  22.695  0.00  0.00    +0.000 OA
ENDROOT
BRANCH   3  20
ATOM     20  C   UNL     1       2.549   7.610  18.793  0.00  0.00    +0.000 C 
ATOM     21  O   UNL     1       3.177   8.171  17.891  0.00  0.00    +0.000 OA
ATOM     22  N   UNL     1       2.767   6.254  19.068  0.00  0.00    +0.000 N 
ATOM     23  C   UNL     1       3.846   5.579  18.353  0.00  0.00    +0.000 C 
ATOM     24  C   UNL     1       4.557   4.587  19.270  0.00  0.00    +0.000 C 
ATOM     25  C   UNL     1       3.588   3.597  19.932  0.00  0.00    +0.000 C 
ATOM     26  C   UNL     1       3.081   2.556  18.932  0.00  0.00    +0.000 C 
ATOM     27  C   UNL     1       2.432   4.357  20.604  0.00  0.00    +0.000 C 
ATOM     28  C   UNL     1       1.771   5.368  19.668  0.00  0.00    +0.000 C 
ENDBRANCH   3  20
BRANCH  11  29
ATOM     29  O   UNL     1      -0.596  12.557  19.140  0.00  0.00    +0.000 OA
ATOM     30  H   UNL     1       0.034  12.001  18.648  0.00  0.00    +0.000 HD
ENDBRANCH  11  29
TORSDOF 2
ENDMDL
MODEL 3
REMARK VINA RESULT:      -7.8      2.250      3.822
REMARK  Name = 
REMARK  4 active torsions:
REMARK  status: ('A' for Active; 'I' for Inactive)
REMARK    1  A    between atoms: C_1  and  C_2
REMARK    2  A    between atoms: C_3  and  C_4
REMARK    3  A    between atoms: C_9  and  C_10
REMARK    4  A    between atoms: C_20  and  O_21
REMARK                            x       y       z     vdW  Elec       q    Type
REMARK                         _______ _______ _______ _____ _____    ______ ____
ROOT
ATOM      1  C   UNL     1       1.531   6.519  20.742  0.00  0.00    +0.000 C 
ATOM      2  C   UNL     1       1.863   7.460  19.639  0.00  0.00    +0.000 A 
ATOM      3  C   UNL     1       2.470   7.129  18.433  0.00  0.00    +0.000 A 
ATOM      4  O   UNL     1       2.607   8.251  17.662  0.00  0.00    +0.000 OA
ATOM      5  C   UNL     1       2.091   9.297  18.357  0.00  0.00    +0.000 A 
ATOM      6  C   UNL     1       2.050  10.607  17.895  0.00  0.00    +0.000 A 
ATOM      7  C   UNL     1       1.435  11.539  18.737  0.00  0.00    +0.000 A 
ATOM      8  C   UNL     1       0.892  11.153  19.966  0.00  0.00    +0.000 A 
ATOM      9  C   UNL     1       0.975   9.824  20.436  0.00  0.00    +0.000 A 
ATOM     10  C   UNL     1       1.598   8.872  19.585  0.00  0.00    +0.000 A 
ATOM     11  C   UNL     1       0.395   9.466  21.778  0.00  0.00    +0.000 C 
ATOM     12  C   UNL     1      -0.035  10.689  22.569  0.00  0.00    +0.000 C 
ATOM     13  C   UNL     1      -0.682  11.743  21.659  0.00  0.00    +0.000 C 
ATOM     14  C   UNL     1      -1.986  11.275  20.968  0.00  0.00    +0.000 C 
ATOM     15  C   UNL     1      -2.658  12.395  20.171  0.00  0.00    +0.000 C 
ATOM     16  C   UNL     1      -2.945  13.608  21.043  0.00  0.00    +0.000 C 
ATOM     17  C   UNL     1      -1.690  14.100  21.754  0.00  0.00    +0.000 C 
ATOM     18  C   UNL     1      -1.002  12.980  22.532  0.00  0.00    +0.000 C 
ATOM     19  O   UNL     1       0.275  12.161  20.665  0.00  0.00    +0.000 OA
ENDROOT
BRANCH   3  20
ATOM     20  C   UNL     1       2.833   5.831  17.886  0.00  0.00    +0.000 C 
ATOM     21  O   UNL     1       1.988   4.939  17.768  0.00  0.00    +0.000 OA
ATOM     22  N   UNL     1       4.151   5.615  17.465  0.00  0.00    +0.000 N 
ATOM     23  C   UNL     1       4.447   4.369  16.766  0.00  0.00    +0.000 C 
ATOM     24  C   UNL     1       5.458   4.609  15.648  0.00  0.00    +0.000 C 
ATOM     25  C   UNL     1       6.729   5.315  16.144  0.00  0.00    +0.000 C 
ATOM     26  C   UNL     1       7.614   4.370  16.959  0.00  0.00    +0.000 C 
ATOM     27  C   UNL     1       6.357   6.579  16.938  0.00  0.00    +0.000 C 
ATOM     28  C   UNL     1       5.314   6.307  18.021  0.00  0.00    +0.000 C 
ENDBRANCH   3  20
BRANCH  11  29
ATOM     29  O   UNL     1      -0.730   8.597  21.646  0.00  0.00    +0.000 OA
ATOM     30  H   UNL     1      -1.436   9.079  21.179  0.00  0.00    +0.000 HD
ENDBRANCH  11  29
TORSDOF 2
ENDMDL
MODEL 4
REMARK VINA RESULT:      -7.3      1.893      2.753
REMARK  Name = 
REMARK  4 active torsions:
REMARK  status: ('A' for Active; 'I' for Inactive)
REMARK    1  A    between atoms: C_1  and  C_2
REMARK    2  A    between atoms: C_3  and  C_4
REMARK    3  A    between atoms: C_9  and  C_10
REMARK    4  A    between atoms: C_20  and  O_21
REMARK                            x       y       z     vdW  Elec       q    Type
REMARK                         _______ _______ _______ _____ _____    ______ ____
ROOT
ATOM      1  C   UNL     1       2.042   7.648  17.394  0.00  0.00    +0.000 C 
ATOM      2  C   UNL     1       1.879   7.582  18.872  0.00  0.00    +0.000 A 
ATOM      3  C   UNL     1       2.164   6.487  19.680  0.00  0.00    +0.000 A 
ATOM      4  O   UNL     1       1.901   6.797  20.986  0.00  0.00    +0.000 OA
ATOM      5  C   UNL     1       1.457   8.078  21.026  0.00  0.00    +0.000 A 
ATOM      6  C   UNL     1       1.089   8.750  22.186  0.00  0.00    +0.000 A 
ATOM      7  C   UNL     1       0.700  10.083  22.031  0.00  0.00    +0.000 A 
ATOM      8  C   UNL     1       0.696  10.691  20.772  0.00  0.00    +0.000 A 
ATOM      9  C   UNL     1       1.038   9.985  19.599  0.00  0.00    +0.000 A 
ATOM     10  C   UNL     1       1.433   8.629  19.750  0.00  0.00    +0.000 A 
ATOM     11  C   UNL     1       0.993  10.680  18.265  0.00  0.00    +0.000 C 
ATOM     12  C   UNL     1       0.355  12.055  18.349  0.00  0.00    +0.000 C 
ATOM     13  C   UNL     1       0.771  12.787  19.633  0.00  0.00    +0.000 C 
ATOM     14  C   UNL     1       2.288  13.079  19.738  0.00  0.00    +0.000 C 
ATOM     15  C   UNL     1       2.637  13.913  20.971  0.00  0.00    +0.000 C 
ATOM     16  C   UNL     1       1.859  15.221  21.002  0.00  0.00    +0.000 C 
ATOM     17  C   UNL     1       0.358  14.983  20.891  0.00  0.00    +0.000 C 
ATOM     18  C   UNL     1       0.006  14.131  19.674  0.00  0.00    +0.000 C 
ATOM     19  O   UNL     1       0.341  12.018  20.775  0.00  0.00    +0.000 OA
ENDROOT
BRANCH   3  20
ATOM     20  C   UNL     1       2.771   5.206  19.351  0.00  0.00    +0.000 C 
ATOM     21  O   UNL     1       2.198   4.149  19.626  0.00  0.00    +0.000 OA
ATOM     22  N   UNL     1       4.004   5.189  18.687  0.00  0.00    +0.000 N 
ATOM     23  C   UNL     1       4.507   3.902  18.218  0.00  0.00    +0.000 C 
ATOM     24  C   UNL     1       5.203   4.059  16.869  0.00  0.00    +0.000 C 
ATOM     25  C   UNL     1       6.295   5.138  16.891  0.00  0.00    +0.000 C 
ATOM     26  C   UNL     1       7.534   4.667  17.656  0.00  0.00    +0.000 C 
ATOM     27  C   UNL     1       5.732   6.450  17.464  0.00  0.00    +0.000 C 
ATOM     28  C   UNL     1       5.009   6.247  18.794  0.00  0.00    +0.000 C 
ENDBRANCH   3  20
BRANCH  11  29
ATOM     29  O   UNL     1       2.299  10.824  17.707  0.00  0.00    +0.000 OA
ATOM     30  H   UNL     1       2.257  11.487  16.996  0.00  0.00    +0.000 HD
ENDBRANCH  11  29
TORSDOF 2
ENDMDL
MODEL 5
REMARK VINA RESULT:      -7.3      6.604      9.556
REMARK  Name = 
REMARK  4 active torsions:
REMARK  status: ('A' for Active; 'I' for Inactive)
REMARK    1  A    between atoms: C_1  and  C_2
REMARK    2  A    between atoms: C_3  and  C_4
REMARK    3  A    between atoms: C_9  and  C_10
REMARK    4  A    between atoms: C_20  and  O_21
REMARK                            x       y       z     vdW  Elec       q    Type
REMARK                         _______ _______ _______ _____ _____    ______ ____
ROOT
ATOM      1  C   UNL     1       4.422  15.454  17.644  0.00  0.00    +0.000 C 
ATOM      2  C   UNL     1       4.605  15.248  19.107  0.00  0.00    +0.000 A 
ATOM      3  C   UNL     1       3.601  15.251  20.068  0.00  0.00    +0.000 A 
ATOM      4  O   UNL     1       4.143  15.021  21.302  0.00  0.00    +0.000 OA
ATOM      5  C   UNL     1       5.481  14.864  21.144  0.00  0.00    +0.000 A 
ATOM      6  C   UNL     1       6.374  14.612  22.179  0.00  0.00    +0.000 A 
ATOM      7  C   UNL     1       7.711  14.435  21.812  0.00  0.00    +0.000 A 
ATOM      8  C   UNL     1       8.107  14.505  20.474  0.00  0.00    +0.000 A 
ATOM      9  C   UNL     1       7.193  14.798  19.438  0.00  0.00    +0.000 A 
ATOM     10  C   UNL     1       5.833  14.979  19.805  0.00  0.00    +0.000 A 
ATOM     11  C   UNL     1       7.676  14.885  18.015  0.00  0.00    +0.000 C 
ATOM     12  C   UNL     1       9.190  14.849  17.913  0.00  0.00    +0.000 C 
ATOM     13  C   UNL     1       9.794  13.855  18.916  0.00  0.00    +0.000 C 
ATOM     14  C   UNL     1       9.374  12.382  18.686  0.00  0.00    +0.000 C 
ATOM     15  C   UNL     1      10.093  11.417  19.630  0.00  0.00    +0.000 C 
ATOM     16  C   UNL     1      11.605  11.544  19.516  0.00  0.00    +0.000 C 
ATOM     17  C   UNL     1      12.065  12.982  19.726  0.00  0.00    +0.000 C 
ATOM     18  C   UNL     1      11.333  13.953  18.801  0.00  0.00    +0.000 C 
ATOM     19  O   UNL     1       9.440  14.260  20.254  0.00  0.00    +0.000 OA
ENDROOT
BRANCH   3  20
ATOM     20  C   UNL     1       2.156  15.338  19.920  0.00  0.00    +0.000 C 
ATOM     21  O   UNL     1       1.582  16.429  19.972  0.00  0.00    +0.000 OA
ATOM     22  N   UNL     1       1.425  14.167  19.685  0.00  0.00    +0.000 N 
ATOM     23  C   UNL     1       0.006  14.301  19.371  0.00  0.00    +0.000 C 
ATOM     24  C   UNL     1      -0.408  13.275  18.320  0.00  0.00    +0.000 C 
ATOM     25  C   UNL     1      -0.033  11.840  18.716  0.00  0.00    +0.000 C 
ATOM     26  C   UNL     1      -0.942  11.308  19.826  0.00  0.00    +0.000 C 
ATOM     27  C   UNL     1       1.452  11.771  19.110  0.00  0.00    +0.000 C 
ATOM     28  C   UNL     1       1.839  12.837  20.133  0.00  0.00    +0.000 C 
ENDBRANCH   3  20
BRANCH  11  29
ATOM     29  O   UNL     1       7.145  13.827  17.217  0.00  0.00    +0.000 OA
ATOM     30  H   UNL     1       6.179  13.814  17.329  0.00  0.00    +0.000 HD
ENDBRANCH  11  29
TORSDOF 2
ENDMDL
MODEL 6
REMARK VINA RESULT:      -7.2      2.194      8.754
REMARK  Name = 
REMARK  4 active torsions:
REMARK  status: ('A' for Active; 'I' for Inactive)
REMARK    1  A    between atoms: C_1  and  C_2
REMARK    2  A    between atoms: C_3  and  C_4
REMARK    3  A    between atoms: C_9  and  C_10
REMARK    4  A    between atoms: C_20  and  O_21
REMARK                            x       y       z     vdW  Elec       q    Type
REMARK                         _______ _______ _______ _____ _____    ______ ____
ROOT
ATOM      1  C   UNL     1      -0.016   7.922  22.103  0.00  0.00    +0.000 C 
ATOM      2  C   UNL     1       0.511   8.833  21.050  0.00  0.00    +0.000 A 
ATOM      3  C   UNL     1       0.380  10.216  21.022  0.00  0.00    +0.000 A 
ATOM      4  O   UNL     1       0.998  10.716  19.909  0.00  0.00    +0.000 OA
ATOM      5  C   UNL     1       1.528   9.670  19.225  0.00  0.00    +0.000 A 
ATOM      6  C   UNL     1       2.236   9.783  18.035  0.00  0.00    +0.000 A 
ATOM      7  C   UNL     1       2.746   8.595  17.504  0.00  0.00    +0.000 A 
ATOM      8  C   UNL     1       2.549   7.373  18.153  0.00  0.00    +0.000 A 
ATOM      9  C   UNL     1       1.795   7.270  19.342  0.00  0.00    +0.000 A 
ATOM     10  C   UNL     1       1.275   8.474  19.887  0.00  0.00    +0.000 A 
ATOM     11  C   UNL     1       1.593   5.925  19.988  0.00  0.00    +0.000 C 
ATOM     12  C   UNL     1       2.077   4.783  19.112  0.00  0.00    +0.000 C 
ATOM     13  C   UNL     1       3.380   5.148  18.388  0.00  0.00    +0.000 C 
ATOM     14  C   UNL     1       4.579   5.423  19.330  0.00  0.00    +0.000 C 
ATOM     15  C   UNL     1       5.880   5.662  18.562  0.00  0.00    +0.000 C 
ATOM     16  C   UNL     1       6.208   4.498  17.639  0.00  0.00    +0.000 C 
ATOM     17  C   UNL     1       5.052   4.184  16.698  0.00  0.00    +0.000 C 
ATOM     18  C   UNL     1       3.744   3.967  17.458  0.00  0.00    +0.000 C 
ATOM     19  O   UNL     1       3.148   6.296  17.546  0.00  0.00    +0.000 OA
ENDROOT
BRANCH   3  20
ATOM     20  C   UNL     1      -0.177  11.130  22.008  0.00  0.00    +0.000 C 
ATOM     21  O   UNL     1      -0.160  10.847  23.209  0.00  0.00    +0.000 OA
ATOM     22  N   UNL     1      -0.706  12.353  21.578  0.00  0.00    +0.000 N 
ATOM     23  C   UNL     1      -1.100  13.321  22.597  0.00  0.00    +0.000 C 
ATOM     24  C   UNL     1      -0.764  14.740  22.147  0.00  0.00    +0.000 C 
ATOM     25  C   UNL     1      -1.349  15.076  20.768  0.00  0.00    +0.000 C 
ATOM     26  C   UNL     1      -2.864  15.285  20.838  0.00  0.00    +0.000 C 
ATOM     27  C   UNL     1      -0.968  13.987  19.752  0.00  0.00    +0.000 C 
ATOM     28  C   UNL     1      -1.283  12.578  20.253  0.00  0.00    +0.000 C 
ENDBRANCH   3  20
BRANCH  11  29
ATOM     29  O   UNL     1       2.263   5.844  21.246  0.00  0.00    +0.000 OA
ATOM     30  H   UNL     1       2.697   6.698  21.417  0.00  0.00    +0.000 HD
ENDBRANCH  11  29
TORSDOF 2
ENDMDL
MODEL 7
REMARK VINA RESULT:      -7.1      6.940     10.113
REMARK  Name = 
REMARK  4 active torsions:
REMARK  status: ('A' for Active; 'I' for Inactive)
REMARK    1  A    between atoms: C_1  and  C_2
REMARK    2  A    between atoms: C_3  and  C_4
REMARK    3  A    between atoms: C_9  and  C_10
REMARK    4  A    between atoms: C_20  and  O_21
REMARK                            x       y       z     vdW  Elec       q    Type
REMARK                         _______ _______ _______ _____ _____    ______ ____
ROOT
ATOM      1  C   UNL     1       4.803  16.468  18.593  0.00  0.00    +0.000 C 
ATOM      2  C   UNL     1       5.092  15.729  19.851  0.00  0.00    +0.000 A 
ATOM      3  C   UNL     1       4.185  15.453  20.868  0.00  0.00    +0.000 A 
ATOM      4  O   UNL     1       4.805  14.747  21.862  0.00  0.00    +0.000 OA
ATOM      5  C   UNL     1       6.098  14.562  21.493  0.00  0.00    +0.000 A 
ATOM      6  C   UNL     1       7.045  13.883  22.250  0.00  0.00    +0.000 A 
ATOM      7  C   UNL     1       8.315  13.754  21.681  0.00  0.00    +0.000 A 
ATOM      8  C   UNL     1       8.594  14.280  20.416  0.00  0.00    +0.000 A 
ATOM      9  C   UNL     1       7.631  14.998  19.675  0.00  0.00    +0.000 A 
ATOM     10  C   UNL     1       6.339  15.132  20.249  0.00  0.00    +0.000 A 
ATOM     11  C   UNL     1       7.991  15.565  18.327  0.00  0.00    +0.000 C 
ATOM     12  C   UNL     1       9.477  15.456  18.031  0.00  0.00    +0.000 C 
ATOM     13  C   UNL     1      10.050  14.123  18.531  0.00  0.00    +0.000 C 
ATOM     14  C   UNL     1       9.446  12.872  17.847  0.00  0.00    +0.000 C 
ATOM     15  C   UNL     1      10.132  11.578  18.288  0.00  0.00    +0.000 C 
ATOM     16  C   UNL     1      11.632  11.626  18.039  0.00  0.00    +0.000 C 
ATOM     17  C   UNL     1      12.270  12.848  18.687  0.00  0.00    +0.000 C 
ATOM     18  C   UNL     1      11.574  14.142  18.268  0.00  0.00    +0.000 C 
ATOM     19  O   UNL     1       9.866  14.035  19.959  0.00  0.00    +0.000 OA
ENDROOT
BRANCH   3  20
ATOM     20  C   UNL     1       2.752  15.695  20.942  0.00  0.00    +0.000 C 
ATOM     21  O   UNL     1       2.307  16.642  21.596  0.00  0.00    +0.000 OA
ATOM     22  N   UNL     1       1.884  14.855  20.234  0.00  0.00    +0.000 N 
ATOM     23  C   UNL     1       0.472  15.219  20.186  0.00  0.00    +0.000 C 
ATOM     24  C   UNL     1      -0.118  14.900  18.815  0.00  0.00    +0.000 C 
ATOM     25  C   UNL     1       0.122  13.443  18.396  0.00  0.00    +0.000 C 
ATOM     26  C   UNL     1      -0.770  12.479  19.182  0.00  0.00    +0.000 C 
ATOM     27  C   UNL     1       1.612  13.089  18.538  0.00  0.00    +0.000 C 
ATOM     28  C   UNL     1       2.176  13.459  19.908  0.00  0.00    +0.000 C 
ENDBRANCH   3  20
BRANCH  11  29
ATOM     29  O   UNL     1       7.274  14.914  17.279  0.00  0.00    +0.000 OA
ATOM     30  H   UNL     1       7.898  14.719  16.557  0.00  0.00    +0.000 HD
ENDBRANCH  11  29
TORSDOF 2
ENDMDL
MODEL 8
REMARK VINA RESULT:      -7.0      6.105      9.293
REMARK  Name = 
REMARK  4 active torsions:
REMARK  status: ('A' for Active; 'I' for Inactive)
REMARK    1  A    between atoms: C_1  and  C_2
REMARK    2  A    between atoms: C_3  and  C_4
REMARK    3  A    between atoms: C_9  and  C_10
REMARK    4  A    between atoms: C_20  and  O_21
REMARK                            x       y       z     vdW  Elec       q    Type
REMARK                         _______ _______ _______ _____ _____    ______ ____
ROOT
ATOM      1  C   UNL     1       3.238  15.746  19.168  0.00  0.00    +0.000 C 
ATOM      2  C   UNL     1       3.874  15.173  20.385  0.00  0.00    +0.000 A 
ATOM      3  C   UNL     1       3.222  14.808  21.557  0.00  0.00    +0.000 A 
ATOM      4  O   UNL     1       4.127  14.312  22.454  0.00  0.00    +0.000 OA
ATOM      5  C   UNL     1       5.352  14.349  21.871  0.00  0.00    +0.000 A 
ATOM      6  C   UNL     1       6.528  13.924  22.477  0.00  0.00    +0.000 A 
ATOM      7  C   UNL     1       7.685  13.998  21.697  0.00  0.00    +0.000 A 
ATOM      8  C   UNL     1       7.641  14.469  20.382  0.00  0.00    +0.000 A 
ATOM      9  C   UNL     1       6.444  14.932  19.793  0.00  0.00    +0.000 A 
ATOM     10  C   UNL     1       5.264  14.859  20.580  0.00  0.00    +0.000 A 
ATOM     11  C   UNL     1       6.455  15.452  18.381  0.00  0.00    +0.000 C 
ATOM     12  C   UNL     1       7.862  15.608  17.832  0.00  0.00    +0.000 C 
ATOM     13  C   UNL     1       8.767  14.451  18.278  0.00  0.00    +0.000 C 
ATOM     14  C   UNL     1       8.324  13.059  17.764  0.00  0.00    +0.000 C 
ATOM     15  C   UNL     1       9.320  11.958  18.132  0.00  0.00    +0.000 C 
ATOM     16  C   UNL     1      10.718  12.273  17.620  0.00  0.00    +0.000 C 
ATOM     17  C   UNL     1      11.194  13.641  18.092  0.00  0.00    +0.000 C 
ATOM     18  C   UNL     1      10.191  14.741  17.749  0.00  0.00    +0.000 C 
ATOM     19  O   UNL     1       8.843  14.439  19.718  0.00  0.00    +0.000 OA
ENDROOT
BRANCH   3  20
ATOM     20  C   UNL     1       1.802  14.776  21.873  0.00  0.00    +0.000 C 
ATOM     21  O   UNL     1       1.344  15.469  22.785  0.00  0.00    +0.000 OA
ATOM     22  N   UNL     1       0.953  13.969  21.105  0.00  0.00    +0.000 N 
ATOM     23  C   UNL     1      -0.484  14.084  21.330  0.00  0.00    +0.000 C 
ATOM     24  C   UNL     1      -1.244  13.968  20.012  0.00  0.00    +0.000 C 
ATOM     25  C   UNL     1      -0.878  12.698  19.230  0.00  0.00    +0.000 C 
ATOM     26  C   UNL     1      -1.482  11.449  19.874  0.00  0.00    +0.000 C 
ATOM     27  C   UNL     1       0.650  12.586  19.088  0.00  0.00    +0.000 C 
ATOM     28  C   UNL     1       1.378  12.747  20.421  0.00  0.00    +0.000 C 
ENDBRANCH   3  20
BRANCH  11  29
ATOM     29  O   UNL     1       5.721  14.598  17.504  0.00  0.00    +0.000 OA
ATOM     30  H   UNL     1       4.973  15.103  17.139  0.00  0.00    +0.000 HD
ENDBRANCH  11  29
TORSDOF 2
ENDMDL
MODEL 9
REMARK VINA RESULT:      -6.9      2.248      8.706
REMARK  Name = 
REMARK  4 active torsions:
REMARK  status: ('A' for Active; 'I' for Inactive)
REMARK    1  A    between atoms: C_1  and  C_2
REMARK    2  A    between atoms: C_3  and  C_4
REMARK    3  A    between atoms: C_9  and  C_10
REMARK    4  A    between atoms: C_20  and  O_21
REMARK                            x       y       z     vdW  Elec       q    Type
REMARK                         _______ _______ _______ _____ _____    ______ ____
ROOT
ATOM      1  C   UNL     1       2.209  10.789  17.593  0.00  0.00    +0.000 C 
ATOM      2  C   UNL     1       1.430  10.336  18.777  0.00  0.00    +0.000 A 
ATOM      3  C   UNL     1       0.447  11.064  19.439  0.00  0.00    +0.000 A 
ATOM      4  O   UNL     1      -0.055  10.324  20.474  0.00  0.00    +0.000 OA
ATOM      5  C   UNL     1       0.589   9.130  20.482  0.00  0.00    +0.000 A 
ATOM      6  C   UNL     1       0.348   8.108  21.393  0.00  0.00    +0.000 A 
ATOM      7  C   UNL     1       1.080   6.932  21.210  0.00  0.00    +0.000 A 
ATOM      8  C   UNL     1       1.994   6.808  20.160  0.00  0.00    +0.000 A 
ATOM      9  C   UNL     1       2.254   7.868  19.265  0.00  0.00    +0.000 A 
ATOM     10  C   UNL     1       1.513   9.066  19.445  0.00  0.00    +0.000 A 
ATOM     11  C   UNL     1       3.267   7.690  18.165  0.00  0.00    +0.000 C 
ATOM     12  C   UNL     1       4.056   6.401  18.307  0.00  0.00    +0.000 C 
ATOM     13  C   UNL     1       3.162   5.248  18.782  0.00  0.00    +0.000 C 
ATOM     14  C   UNL     1       2.025   4.875  17.799  0.00  0.00    +0.000 C 
ATOM     15  C   UNL     1       1.237   3.646  18.257  0.00  0.00    +0.000 C 
ATOM     16  C   UNL     1       2.147   2.445  18.468  0.00  0.00    +0.000 C 
ATOM     17  C   UNL     1       3.290   2.767  19.423  0.00  0.00    +0.000 C 
ATOM     18  C   UNL     1       4.065   4.008  18.983  0.00  0.00    +0.000 C 
ATOM     19  O   UNL     1       2.605   5.580  20.070  0.00  0.00    +0.000 OA
ENDROOT
BRANCH   3  20
ATOM     20  C   UNL     1      -0.148  12.352  19.118  0.00  0.00    +0.000 C 
ATOM     21  O   UNL     1      -1.146  12.423  18.397  0.00  0.00    +0.000 OA
ATOM     22  N   UNL     1       0.411  13.514  19.666  0.00  0.00    +0.000 N 
ATOM     23  C   UNL     1      -0.302  14.771  19.470  0.00  0.00    +0.000 C 
ATOM     24  C   UNL     1      -0.205  15.643  20.718  0.00  0.00    +0.000 C 
ATOM     25  C   UNL     1       1.244  15.862  21.174  0.00  0.00    +0.000 C 
ATOM     26  C   UNL     1       1.984  16.828  20.246  0.00  0.00    +0.000 C 
ATOM     27  C   UNL     1       1.972  14.511  21.291  0.00  0.00    +0.000 C 
ATOM     28  C   UNL     1       1.819  13.651  20.039  0.00  0.00    +0.000 C 
ENDBRANCH   3  20
BRANCH  11  29
ATOM     29  O   UNL     1       2.648   7.699  16.879  0.00  0.00    +0.000 OA
ATOM     30  H   UNL     1       2.943   6.910  16.392  0.00  0.00    +0.000 HD
ENDBRANCH  11  29
TORSDOF 2
ENDMDL
