MODEL 1
REMARK VINA RESULT:      -6.9      0.000      0.000
REMARK  Name = 
REMARK  3 active torsions:
REMARK  status: ('A' for Active; 'I' for Inactive)
REMARK    1  A    between atoms: C_1  and  C_2
REMARK    2  A    between atoms: N_4  and  C_5
REMARK    3  A    between atoms: C_9  and  C_10
REMARK                            x       y       z     vdW  Elec       q    Type
REMARK                         _______ _______ _______ _____ _____    ______ ____
ROOT
ATOM      1  C   UNL     1       2.354   2.604  21.645  0.00  0.00    +0.000 C 
ATOM      2  C   UNL     1       2.346   3.154  20.262  0.00  0.00    +0.000 C 
ATOM      3  N   UNL     1       3.379   3.680  19.683  0.00  0.00    +0.000 NA
ATOM      4  N   UNL     1       2.945   4.124  18.446  0.00  0.00    +0.000 N 
ATOM      5  C   UNL     1       1.582   3.878  18.207  0.00  0.00    +0.000 C 
ATOM      6  O   UNL     1       0.869   4.149  17.253  0.00  0.00    +0.000 OA
ATOM      7  C   UNL     1       1.118   3.127  19.416  0.00  0.00    +0.000 C 
ENDROOT
BRANCH   4   8
ATOM      8  C   UNL     1       3.869   4.777  17.591  0.00  0.00    +0.000 A 
ATOM      9  C   UNL     1       4.114   6.152  17.686  0.00  0.00    +0.000 A 
ATOM     10  C   UNL     1       5.024   6.781  16.830  0.00  0.00    +0.000 A 
ATOM     11  C   UNL     1       5.683   6.047  15.846  0.00  0.00    +0.000 A 
ATOM     12  C   UNL     1       5.451   4.676  15.721  0.00  0.00    +0.000 A 
ATOM     13  C   UNL     1       6.106   3.880  14.629  0.00  0.00    +0.000 C 
ATOM     14  C   UNL     1       4.558   4.049  16.606  0.00  0.00    +0.000 A 
ENDBRANCH   4   8
TORSDOF 1
ENDMDL
MODEL 2
REMARK VINA RESULT:      -6.7      2.255      5.394
REMARK  Name = 
REMARK  3 active torsions:
REMARK  status: ('A' for Active; 'I' for Inactive)
REMARK    1  A    between atoms: C_1  and  C_2
REMARK    2  A    between atoms: N_4  and  C_5
REMARK    3  A    between atoms: C_9  and  C_10
REMARK                            x       y       z     vdW  Elec       q    Type
REMARK                         _______ _______ _______ _____ _____    ______ ____
ROOT
ATOM      1  C   UNL     1       7.037   4.603  14.863  0.00  0.00    +0.000 C 
ATOM      2  C   UNL     1       6.429   4.535  16.219  0.00  0.00    +0.000 C 
ATOM      3  N   UNL     1       5.208   4.167  16.451  0.00  0.00    +0.000 NA
ATOM      4  N   UNL     1       5.015   4.303  17.815  0.00  0.00    +0.000 N 
ATOM      5  C   UNL     1       6.149   4.772  18.499  0.00  0.00    +0.000 C 
ATOM      6  O   UNL     1       6.330   5.028  19.680  0.00  0.00    +0.000 OA
ATOM      7  C   UNL     1       7.206   4.882  17.444  0.00  0.00    +0.000 C 
ENDROOT
BRANCH   4   8
ATOM      8  C   UNL     1       3.742   3.993  18.359  0.00  0.00    +0.000 A 
ATOM      9  C   UNL     1       2.563   4.189  17.631  0.00  0.00    +0.000 A 
ATOM     10  C   UNL     1       1.316   3.885  18.186  0.00  0.00    +0.000 A 
ATOM     11  C   UNL     1       1.228   3.405  19.491  0.00  0.00    +0.000 A 
ATOM     12  C   UNL     1       2.386   3.211  20.246  0.00  0.00    +0.000 A 
ATOM     13  C   UNL     1       2.308   2.753  21.674  0.00  0.00    +0.000 C 
ATOM     14  C   UNL     1       3.636   3.490  19.667  0.00  0.00    +0.000 A 
ENDBRANCH   4   8
TORSDOF 1
ENDMDL
MODEL 3
REMARK VINA RESULT:      -6.6      1.503      2.105
REMARK  Name = 
REMARK  3 active torsions:
REMARK  status: ('A' for Active; 'I' for Inactive)
REMARK    1  A    between atoms: C_1  and  C_2
REMARK    2  A    between atoms: N_4  and  C_5
REMARK    3  A    between atoms: C_9  and  C_10
REMARK                            x       y       z     vdW  Elec       q    Type
REMARK                         _______ _______ _______ _____ _____    ______ ____
ROOT
ATOM      1  C   UNL     1       1.606   2.573  21.801  0.00  0.00    +0.000 C 
ATOM      2  C   UNL     1       2.016   3.014  20.440  0.00  0.00    +0.000 C 
ATOM      3  N   UNL     1       3.241   3.251  20.090  0.00  0.00    +0.000 NA
ATOM      4  N   UNL     1       3.190   3.696  18.781  0.00  0.00    +0.000 N 
ATOM      5  C   UNL     1       1.888   3.748  18.255  0.00  0.00    +0.000 C 
ATOM      6  O   UNL     1       1.474   4.107  17.163  0.00  0.00    +0.000 OA
ATOM      7  C   UNL     1       1.019   3.206  19.347  0.00  0.00    +0.000 C 
ENDROOT
BRANCH   4   8
ATOM      8  C   UNL     1       4.399   4.063  18.136  0.00  0.00    +0.000 A 
ATOM      9  C   UNL     1       4.645   3.745  16.796  0.00  0.00    +0.000 A 
ATOM     10  C   UNL     1       5.846   4.109  16.178  0.00  0.00    +0.000 A 
ATOM     11  C   UNL     1       6.832   4.774  16.902  0.00  0.00    +0.000 A 
ATOM     12  C   UNL     1       6.620   5.096  18.244  0.00  0.00    +0.000 A 
ATOM     13  C   UNL     1       7.695   5.758  19.057  0.00  0.00    +0.000 C 
ATOM     14  C   UNL     1       5.398   4.752  18.846  0.00  0.00    +0.000 A 
ENDBRANCH   4   8
TORSDOF 1
ENDMDL
MODEL 4
REMARK VINA RESULT:      -6.6      2.645      5.380
REMARK  Name = 
REMARK  3 active torsions:
REMARK  status: ('A' for Active; 'I' for Inactive)
REMARK    1  A    between atoms: C_1  and  C_2
REMARK    2  A    between atoms: N_4  and  C_5
REMARK    3  A    between atoms: C_9  and  C_10
REMARK                            x       y       z     vdW  Elec       q    Type
REMARK                         _______ _______ _______ _____ _____    ______ ____
ROOT
ATOM      1  C   UNL     1       6.434   4.683  15.013  0.00  0.00    +0.000 C 
ATOM      2  C   UNL     1       6.132   4.806  16.465  0.00  0.00    +0.000 C 
ATOM      3  N   UNL     1       4.934   4.884  16.953  0.00  0.00    +0.000 NA
ATOM      4  N   UNL     1       5.083   5.052  18.319  0.00  0.00    +0.000 N 
ATOM      5  C   UNL     1       6.424   5.082  18.738  0.00  0.00    +0.000 C 
ATOM      6  O   UNL     1       6.920   5.236  19.844  0.00  0.00    +0.000 OA
ATOM      7  C   UNL     1       7.214   4.836  17.491  0.00  0.00    +0.000 C 
ENDROOT
BRANCH   4   8
ATOM      8  C   UNL     1       3.923   5.198  19.121  0.00  0.00    +0.000 A 
ATOM      9  C   UNL     1       3.230   6.411  19.200  0.00  0.00    +0.000 A 
ATOM     10  C   UNL     1       2.091   6.538  20.002  0.00  0.00    +0.000 A 
ATOM     11  C   UNL     1       1.643   5.459  20.759  0.00  0.00    +0.000 A 
ATOM     12  C   UNL     1       2.319   4.239  20.709  0.00  0.00    +0.000 A 
ATOM     13  C   UNL     1       1.887   3.082  21.564  0.00  0.00    +0.000 C 
ATOM     14  C   UNL     1       3.444   4.113  19.876  0.00  0.00    +0.000 A 
ENDBRANCH   4   8
TORSDOF 1
ENDMDL
MODEL 5
REMARK VINA RESULT:      -6.6      2.117      2.417
REMARK  Name = 
REMARK  3 active torsions:
REMARK  status: ('A' for Active; 'I' for Inactive)
REMARK    1  A    between atoms: C_1  and  C_2
REMARK    2  A    between atoms: N_4  and  C_5
REMARK    3  A    between atoms: C_9  and  C_10
REMARK                            x       y       z     vdW  Elec       q    Type
REMARK                         _______ _______ _______ _____ _____    ______ ____
ROOT
ATOM      1  C   UNL     1       0.932   4.364  20.470  0.00  0.00    +0.000 C 
ATOM      2  C   UNL     1       2.308   3.928  20.110  0.00  0.00    +0.000 C 
ATOM      3  N   UNL     1       3.058   4.531  19.243  0.00  0.00    +0.000 NA
ATOM      4  N   UNL     1       4.219   3.783  19.150  0.00  0.00    +0.000 N 
ATOM      5  C   UNL     1       4.230   2.655  19.986  0.00  0.00    +0.000 C 
ATOM      6  O   UNL     1       5.064   1.775  20.143  0.00  0.00    +0.000 OA
ATOM      7  C   UNL     1       2.945   2.740  20.749  0.00  0.00    +0.000 C 
ENDROOT
BRANCH   4   8
ATOM      8  C   UNL     1       5.227   4.197  18.241  0.00  0.00    +0.000 A 
ATOM      9  C   UNL     1       6.342   4.930  18.662  0.00  0.00    +0.000 A 
ATOM     10  C   UNL     1       7.323   5.335  17.751  0.00  0.00    +0.000 A 
ATOM     11  C   UNL     1       7.188   5.036  16.398  0.00  0.00    +0.000 A 
ATOM     12  C   UNL     1       6.081   4.316  15.946  0.00  0.00    +0.000 A 
ATOM     13  C   UNL     1       5.888   4.036  14.483  0.00  0.00    +0.000 C 
ATOM     14  C   UNL     1       5.118   3.887  16.874  0.00  0.00    +0.000 A 
ENDBRANCH   4   8
TORSDOF 1
ENDMDL
MODEL 6
REMARK VINA RESULT:      -6.6      2.398      5.205
REMARK  Name = 
REMARK  3 active torsions:
REMARK  status: ('A' for Active; 'I' for Inactive)
REMARK    1  A    between atoms: C_1  and  C_2
REMARK    2  A    between atoms: N_4  and  C_5
REMARK    3  A    between atoms: C_9  and  C_10
REMARK                            x       y       z     vdW  Elec       q    Type
REMARK                         _______ _______ _______ _____ _____    ______ ____
ROOT
ATOM      1  C   UNL     1       6.492   4.729  14.795  0.00  0.00    +0.000 C 
ATOM      2  C   UNL     1       6.082   4.699  16.225  0.00  0.00    +0.000 C 
ATOM      3  N   UNL     1       4.857   4.567  16.628  0.00  0.00    +0.000 NA
ATOM      4  N   UNL     1       4.893   4.653  18.009  0.00  0.00    +0.000 N 
ATOM      5  C   UNL     1       6.184   4.846  18.527  0.00  0.00    +0.000 C 
ATOM      6  O   UNL     1       6.580   4.988  19.674  0.00  0.00    +0.000 OA
ATOM      7  C   UNL     1       7.080   4.810  17.328  0.00  0.00    +0.000 C 
ENDROOT
BRANCH   4   8
ATOM      8  C   UNL     1       3.675   4.569  18.731  0.00  0.00    +0.000 A 
ATOM      9  C   UNL     1       3.357   5.477  19.748  0.00  0.00    +0.000 A 
ATOM     10  C   UNL     1       2.154   5.374  20.454  0.00  0.00    +0.000 A 
ATOM     11  C   UNL     1       1.261   4.344  20.170  0.00  0.00    +0.000 A 
ATOM     12  C   UNL     1       1.555   3.417  19.169  0.00  0.00    +0.000 A 
ATOM     13  C   UNL     1       0.634   2.264  18.891  0.00  0.00    +0.000 C 
ATOM     14  C   UNL     1       2.753   3.547  18.445  0.00  0.00    +0.000 A 
ENDBRANCH   4   8
TORSDOF 1
ENDMDL
MODEL 7
REMARK VINA RESULT:      -6.5      2.410      5.481
REMARK  Name = 
REMARK  3 active torsions:
REMARK  status: ('A' for Active; 'I' for Inactive)
REMARK    1  A    between atoms: C_1  and  C_2
REMARK    2  A    between atoms: N_4  and  C_5
REMARK    3  A    between atoms: C_9  and  C_10
REMARK                            x       y       z     vdW  Elec       q    Type
REMARK                         _______ _______ _______ _____ _____    ______ ____
ROOT
ATOM      1  C   UNL     1       6.726   4.398  14.398  0.00  0.00    +0.000 C 
ATOM      2  C   UNL     1       6.238   4.289  15.799  0.00  0.00    +0.000 C 
ATOM      3  N   UNL     1       5.040   3.919  16.125  0.00  0.00    +0.000 NA
ATOM      4  N   UNL     1       4.968   4.011  17.504  0.00  0.00    +0.000 N 
ATOM      5  C   UNL     1       6.161   4.452  18.101  0.00  0.00    +0.000 C 
ATOM      6  O   UNL     1       6.446   4.668  19.269  0.00  0.00    +0.000 OA
ATOM      7  C   UNL     1       7.122   4.592  16.962  0.00  0.00    +0.000 C 
ENDROOT
BRANCH   4   8
ATOM      8  C   UNL     1       3.745   3.690  18.147  0.00  0.00    +0.000 A 
ATOM      9  C   UNL     1       3.036   2.523  17.841  0.00  0.00    +0.000 A 
ATOM     10  C   UNL     1       1.828   2.226  18.480  0.00  0.00    +0.000 A 
ATOM     11  C   UNL     1       1.297   3.108  19.418  0.00  0.00    +0.000 A 
ATOM     12  C   UNL     1       1.976   4.285  19.737  0.00  0.00    +0.000 A 
ATOM     13  C   UNL     1       1.389   5.277  20.700  0.00  0.00    +0.000 C 
ATOM     14  C   UNL     1       3.204   4.558  19.111  0.00  0.00    +0.000 A 
ENDBRANCH   4   8
TORSDOF 1
ENDMDL
MODEL 8
REMARK VINA RESULT:      -6.5      1.686      1.825
REMARK  Name = 
REMARK  3 active torsions:
REMARK  status: ('A' for Active; 'I' for Inactive)
REMARK    1  A    between atoms: C_1  and  C_2
REMARK    2  A    between atoms: N_4  and  C_5
REMARK    3  A    between atoms: C_9  and  C_10
REMARK                            x       y       z     vdW  Elec       q    Type
REMARK                         _______ _______ _______ _____ _____    ______ ____
ROOT
ATOM      1  C   UNL     1       1.907   2.808  21.553  0.00  0.00    +0.000 C 
ATOM      2  C   UNL     1       2.460   3.694  20.494  0.00  0.00    +0.000 C 
ATOM      3  N   UNL     1       3.523   3.426  19.803  0.00  0.00    +0.000 NA
ATOM      4  N   UNL     1       3.736   4.518  18.980  0.00  0.00    +0.000 N 
ATOM      5  C   UNL     1       2.779   5.534  19.136  0.00  0.00    +0.000 C 
ATOM      6  O   UNL     1       2.670   6.628  18.602  0.00  0.00    +0.000 OA
ATOM      7  C   UNL     1       1.806   4.985  20.132  0.00  0.00    +0.000 C 
ENDROOT
BRANCH   4   8
ATOM      8  C   UNL     1       4.863   4.515  18.119  0.00  0.00    +0.000 A 
ATOM      9  C   UNL     1       6.164   4.679  18.608  0.00  0.00    +0.000 A 
ATOM     10  C   UNL     1       7.263   4.681  17.744  0.00  0.00    +0.000 A 
ATOM     11  C   UNL     1       7.075   4.546  16.370  0.00  0.00    +0.000 A 
ATOM     12  C   UNL     1       5.788   4.392  15.851  0.00  0.00    +0.000 A 
ATOM     13  C   UNL     1       5.560   4.307  14.370  0.00  0.00    +0.000 C 
ATOM     14  C   UNL     1       4.694   4.361  16.732  0.00  0.00    +0.000 A 
ENDBRANCH   4   8
TORSDOF 1
ENDMDL
MODEL 9
REMARK VINA RESULT:      -6.5      1.254      1.309
REMARK  Name = 
REMARK  3 active torsions:
REMARK  status: ('A' for Active; 'I' for Inactive)
REMARK    1  A    between atoms: C_1  and  C_2
REMARK    2  A    between atoms: N_4  and  C_5
REMARK    3  A    between atoms: C_9  and  C_10
REMARK                            x       y       z     vdW  Elec       q    Type
REMARK                         _______ _______ _______ _____ _____    ______ ____
ROOT
ATOM      1  C   UNL     1       1.809   2.770  21.787  0.00  0.00    +0.000 C 
ATOM      2  C   UNL     1       2.234   3.084  20.397  0.00  0.00    +0.000 C 
ATOM      3  N   UNL     1       3.458   3.327  20.047  0.00  0.00    +0.000 NA
ATOM      4  N   UNL     1       3.423   3.634  18.698  0.00  0.00    +0.000 N 
ATOM      5  C   UNL     1       2.132   3.588  18.145  0.00  0.00    +0.000 C 
ATOM      6  O   UNL     1       1.730   3.819  17.015  0.00  0.00    +0.000 OA
ATOM      7  C   UNL     1       1.257   3.130  19.271  0.00  0.00    +0.000 C 
ENDROOT
BRANCH   4   8
ATOM      8  C   UNL     1       4.633   3.975  18.043  0.00  0.00    +0.000 A 
ATOM      9  C   UNL     1       5.711   4.540  18.734  0.00  0.00    +0.000 A 
ATOM     10  C   UNL     1       6.895   4.877  18.070  0.00  0.00    +0.000 A 
ATOM     11  C   UNL     1       7.008   4.678  16.696  0.00  0.00    +0.000 A 
ATOM     12  C   UNL     1       5.946   4.127  15.978  0.00  0.00    +0.000 A 
ATOM     13  C   UNL     1       6.027   3.962  14.487  0.00  0.00    +0.000 C 
ATOM     14  C   UNL     1       4.773   3.764  16.660  0.00  0.00    +0.000 A 
ENDBRANCH   4   8
TORSDOF 1
ENDMDL
