MODEL 1
REMARK VINA RESULT:      -8.2      0.000      0.000
REMARK  Name = 
REMARK  4 active torsions:
REMARK  status: ('A' for Active; 'I' for Inactive)
REMARK    1  A    between atoms: N_7  and  C_8
REMARK    2  A    between atoms: C_8  and  C_9
REMARK    3  A    between atoms: C_15  and  N_16
REMARK    4  A    between atoms: N_16  and  C_17
REMARK                            x       y       z     vdW  Elec       q    Type
REMARK                         _______ _______ _______ _____ _____    ______ ____
ROOT
ATOM      1  C   UNL     1       1.708   5.151  20.020  0.00  0.00    +0.000 C 
ATOM      2  O   UNL     1       0.786   4.801  20.763  0.00  0.00    +0.000 OA
ATOM      3  N   UNL     1       2.105   4.370  18.944  0.00  0.00    +0.000 N 
ATOM      4  C   UNL     1       1.267   3.249  18.532  0.00  0.00    +0.000 C 
ATOM      5  C   UNL     1       2.049   1.949  18.620  0.00  0.00    +0.000 C 
ATOM      6  C   UNL     1       3.310   2.025  17.759  0.00  0.00    +0.000 C 
ATOM      7  C   UNL     1       4.195   3.219  18.162  0.00  0.00    +0.000 C 
ATOM      8  C   UNL     1       3.348   4.524  18.184  0.00  0.00    +0.000 C 
ENDROOT
BRANCH   7   9
ATOM      9  N   UNL     1       5.307   3.380  17.209  0.00  0.00    +0.000 N 
ATOM     10  H   UNL     1       5.084   3.049  16.272  0.00  0.00    +0.000 HD
BRANCH   9  11
ATOM     11  C   UNL     1       6.048   4.566  17.156  0.00  0.00    +0.000 A 
ATOM     12  C   UNL     1       5.910   5.525  16.141  0.00  0.00    +0.000 A 
ATOM     13  C   UNL     1       6.614   6.736  16.178  0.00  0.00    +0.000 A 
ATOM     14  C   UNL     1       7.463   7.001  17.239  0.00  0.00    +0.000 A 
ATOM     15  F   UNL     1       8.144   8.154  17.268  0.00  0.00    +0.000 F 
ATOM     16  C   UNL     1       7.598   6.078  18.266  0.00  0.00    +0.000 A 
ATOM     17  F   UNL     1       8.413   6.335  19.299  0.00  0.00    +0.000 F 
ATOM     18  C   UNL     1       6.885   4.882  18.238  0.00  0.00    +0.000 A 
ENDBRANCH   9  11
ENDBRANCH   7   9
BRANCH   1  19
ATOM     19  C   UNL     1       2.458   6.479  20.249  0.00  0.00    +0.000 C 
BRANCH  19  26
ATOM     20  O   UNL     1       1.149   8.382  21.714  0.00  0.00    +0.000 OA
ATOM     21  C   UNL     1       1.221   8.571  20.499  0.00  0.00    +0.000 C 
ATOM     22  C   UNL     1       0.651   9.850  19.907  0.00  0.00    +0.000 C 
ATOM     23  C   UNL     1       0.713   9.969  18.394  0.00  0.00    +0.000 C 
ATOM     24  C   UNL     1       2.029   9.418  17.885  0.00  0.00    +0.000 C 
ATOM     25  C   UNL     1       2.100   7.946  18.240  0.00  0.00    +0.000 C 
ATOM     26  N   UNL     1       1.869   7.686  19.657  0.00  0.00    +0.000 N 
ENDBRANCH  19  26
ENDBRANCH   1  19
TORSDOF 4
ENDMDL
MODEL 2
REMARK VINA RESULT:      -8.0      3.388      6.132
REMARK  Name = 
REMARK  4 active torsions:
REMARK  status: ('A' for Active; 'I' for Inactive)
REMARK    1  A    between atoms: N_7  and  C_8
REMARK    2  A    between atoms: C_8  and  C_9
REMARK    3  A    between atoms: C_15  and  N_16
REMARK    4  A    between atoms: N_16  and  C_17
REMARK                            x       y       z     vdW  Elec       q    Type
REMARK                         _______ _______ _______ _____ _____    ______ ____
ROOT
ATOM      1  C   UNL     1       3.967   3.390  17.807  0.00  0.00    +0.000 C 
ATOM      2  O   UNL     1       3.760   2.207  17.518  0.00  0.00    +0.000 OA
ATOM      3  N   UNL     1       3.677   3.886  19.071  0.00  0.00    +0.000 N 
ATOM      4  C   UNL     1       3.363   2.951  20.145  0.00  0.00    +0.000 C 
ATOM      5  C   UNL     1       1.971   3.228  20.692  0.00  0.00    +0.000 C 
ATOM      6  C   UNL     1       1.870   4.672  21.186  0.00  0.00    +0.000 C 
ATOM      7  C   UNL     1       2.225   5.674  20.071  0.00  0.00    +0.000 C 
ATOM      8  C   UNL     1       3.598   5.302  19.440  0.00  0.00    +0.000 C 
ENDROOT
BRANCH   7   9
ATOM      9  N   UNL     1       2.297   7.042  20.613  0.00  0.00    +0.000 N 
ATOM     10  H   UNL     1       3.230   7.301  20.928  0.00  0.00    +0.000 HD
BRANCH   9  11
ATOM     11  C   UNL     1       1.676   8.112  19.958  0.00  0.00    +0.000 A 
ATOM     12  C   UNL     1       1.880   8.421  18.605  0.00  0.00    +0.000 A 
ATOM     13  C   UNL     1       1.171   9.451  17.974  0.00  0.00    +0.000 A 
ATOM     14  C   UNL     1       0.242  10.182  18.695  0.00  0.00    +0.000 A 
ATOM     15  F   UNL     1      -0.429  11.173  18.094  0.00  0.00    +0.000 F 
ATOM     16  C   UNL     1       0.004   9.880  20.028  0.00  0.00    +0.000 A 
ATOM     17  F   UNL     1      -0.901  10.579  20.727  0.00  0.00    +0.000 F 
ATOM     18  C   UNL     1       0.698   8.844  20.650  0.00  0.00    +0.000 A 
ENDBRANCH   9  11
ENDBRANCH   7   9
BRANCH   1  19
ATOM     19  C   UNL     1       4.563   4.373  16.778  0.00  0.00    +0.000 C 
BRANCH  19  26
ATOM     20  O   UNL     1       4.656   7.078  16.387  0.00  0.00    +0.000 OA
ATOM     21  C   UNL     1       5.617   6.569  16.966  0.00  0.00    +0.000 C 
ATOM     22  C   UNL     1       6.740   7.458  17.475  0.00  0.00    +0.000 C 
ATOM     23  C   UNL     1       7.920   6.744  18.109  0.00  0.00    +0.000 C 
ATOM     24  C   UNL     1       7.432   5.583  18.950  0.00  0.00    +0.000 C 
ATOM     25  C   UNL     1       6.726   4.598  18.039  0.00  0.00    +0.000 C 
ATOM     26  N   UNL     1       5.678   5.214  17.232  0.00  0.00    +0.000 N 
ENDBRANCH  19  26
ENDBRANCH   1  19
TORSDOF 4
ENDMDL
MODEL 3
REMARK VINA RESULT:      -8.0      2.920      5.877
REMARK  Name = 
REMARK  4 active torsions:
REMARK  status: ('A' for Active; 'I' for Inactive)
REMARK    1  A    between atoms: N_7  and  C_8
REMARK    2  A    between atoms: C_8  and  C_9
REMARK    3  A    between atoms: C_15  and  N_16
REMARK    4  A    between atoms: N_16  and  C_17
REMARK                            x       y       z     vdW  Elec       q    Type
REMARK                         _______ _______ _______ _____ _____    ______ ____
ROOT
ATOM      1  C   UNL     1       3.973   3.298  17.840  0.00  0.00    +0.000 C 
ATOM      2  O   UNL     1       3.868   2.126  17.464  0.00  0.00    +0.000 OA
ATOM      3  N   UNL     1       3.728   3.658  19.158  0.00  0.00    +0.000 N 
ATOM      4  C   UNL     1       3.592   2.613  20.166  0.00  0.00    +0.000 C 
ATOM      5  C   UNL     1       2.224   2.693  20.825  0.00  0.00    +0.000 C 
ATOM      6  C   UNL     1       2.011   4.073  21.446  0.00  0.00    +0.000 C 
ATOM      7  C   UNL     1       2.178   5.192  20.401  0.00  0.00    +0.000 C 
ATOM      8  C   UNL     1       3.530   5.023  19.652  0.00  0.00    +0.000 C 
ENDROOT
BRANCH   7   9
ATOM      9  N   UNL     1       2.148   6.514  21.053  0.00  0.00    +0.000 N 
ATOM     10  H   UNL     1       3.028   6.761  21.500  0.00  0.00    +0.000 HD
BRANCH   9  11
ATOM     11  C   UNL     1       1.584   7.623  20.413  0.00  0.00    +0.000 A 
ATOM     12  C   UNL     1       0.654   8.482  21.018  0.00  0.00    +0.000 A 
ATOM     13  C   UNL     1       0.183   9.628  20.365  0.00  0.00    +0.000 A 
ATOM     14  C   UNL     1       0.644   9.929  19.095  0.00  0.00    +0.000 A 
ATOM     15  F   UNL     1       0.185  11.020  18.466  0.00  0.00    +0.000 F 
ATOM     16  C   UNL     1       1.581   9.108  18.485  0.00  0.00    +0.000 A 
ATOM     17  F   UNL     1       2.037   9.401  17.258  0.00  0.00    +0.000 F 
ATOM     18  C   UNL     1       2.063   7.978  19.141  0.00  0.00    +0.000 A 
ENDBRANCH   9  11
ENDBRANCH   7   9
BRANCH   1  19
ATOM     19  C   UNL     1       4.386   4.418  16.863  0.00  0.00    +0.000 C 
BRANCH  19  26
ATOM     20  O   UNL     1       4.436   7.143  16.641  0.00  0.00    +0.000 OA
ATOM     21  C   UNL     1       5.456   6.604  17.073  0.00  0.00    +0.000 C 
ATOM     22  C   UNL     1       6.629   7.466  17.510  0.00  0.00    +0.000 C 
ATOM     23  C   UNL     1       7.873   6.720  17.959  0.00  0.00    +0.000 C 
ATOM     24  C   UNL     1       7.483   5.503  18.772  0.00  0.00    +0.000 C 
ATOM     25  C   UNL     1       6.678   4.575  17.884  0.00  0.00    +0.000 C 
ATOM     26  N   UNL     1       5.545   5.235  17.242  0.00  0.00    +0.000 N 
ENDBRANCH  19  26
ENDBRANCH   1  19
TORSDOF 4
ENDMDL
MODEL 4
REMARK VINA RESULT:      -8.0      2.873      5.777
REMARK  Name = 
REMARK  4 active torsions:
REMARK  status: ('A' for Active; 'I' for Inactive)
REMARK    1  A    between atoms: N_7  and  C_8
REMARK    2  A    between atoms: C_8  and  C_9
REMARK    3  A    between atoms: C_15  and  N_16
REMARK    4  A    between atoms: N_16  and  C_17
REMARK                            x       y       z     vdW  Elec       q    Type
REMARK                         _______ _______ _______ _____ _____    ______ ____
ROOT
ATOM      1  C   UNL     1       3.961   2.567  18.592  0.00  0.00    +0.000 C 
ATOM      2  O   UNL     1       3.633   1.571  17.939  0.00  0.00    +0.000 OA
ATOM      3  N   UNL     1       3.130   3.095  19.569  0.00  0.00    +0.000 N 
ATOM      4  C   UNL     1       1.971   2.326  20.008  0.00  0.00    +0.000 C 
ATOM      5  C   UNL     1       0.694   3.111  19.758  0.00  0.00    +0.000 C 
ATOM      6  C   UNL     1       0.748   4.460  20.473  0.00  0.00    +0.000 C 
ATOM      7  C   UNL     1       1.981   5.277  20.042  0.00  0.00    +0.000 C 
ATOM      8  C   UNL     1       3.267   4.415  20.191  0.00  0.00    +0.000 C 
ENDROOT
BRANCH   7   9
ATOM      9  N   UNL     1       2.111   6.488  20.871  0.00  0.00    +0.000 N 
ATOM     10  H   UNL     1       3.031   6.587  21.297  0.00  0.00    +0.000 HD
BRANCH   9  11
ATOM     11  C   UNL     1       1.633   7.724  20.425  0.00  0.00    +0.000 A 
ATOM     12  C   UNL     1       0.950   8.637  21.244  0.00  0.00    +0.000 A 
ATOM     13  C   UNL     1       0.565   9.898  20.771  0.00  0.00    +0.000 A 
ATOM     14  C   UNL     1       0.865  10.262  19.470  0.00  0.00    +0.000 A 
ATOM     15  F   UNL     1       0.488  11.465  19.016  0.00  0.00    +0.000 F 
ATOM     16  C   UNL     1       1.561   9.387  18.648  0.00  0.00    +0.000 A 
ATOM     17  F   UNL     1       1.861   9.739  17.390  0.00  0.00    +0.000 F 
ATOM     18  C   UNL     1       1.959   8.139  19.123  0.00  0.00    +0.000 A 
ENDBRANCH   9  11
ENDBRANCH   7   9
BRANCH   1  19
ATOM     19  C   UNL     1       5.315   3.268  18.356  0.00  0.00    +0.000 C 
BRANCH  19  26
ATOM     20  O   UNL     1       6.315   5.704  19.093  0.00  0.00    +0.000 OA
ATOM     21  C   UNL     1       5.835   5.622  17.961  0.00  0.00    +0.000 C 
ATOM     22  C   UNL     1       5.883   6.830  17.039  0.00  0.00    +0.000 C 
ATOM     23  C   UNL     1       5.201   6.667  15.692  0.00  0.00    +0.000 C 
ATOM     24  C   UNL     1       5.467   5.281  15.141  0.00  0.00    +0.000 C 
ATOM     25  C   UNL     1       4.866   4.266  16.093  0.00  0.00    +0.000 C 
ATOM     26  N   UNL     1       5.311   4.440  17.472  0.00  0.00    +0.000 N 
ENDBRANCH  19  26
ENDBRANCH   1  19
TORSDOF 4
ENDMDL
MODEL 5
REMARK VINA RESULT:      -8.0      3.177      5.768
REMARK  Name = 
REMARK  4 active torsions:
REMARK  status: ('A' for Active; 'I' for Inactive)
REMARK    1  A    between atoms: N_7  and  C_8
REMARK    2  A    between atoms: C_8  and  C_9
REMARK    3  A    between atoms: C_15  and  N_16
REMARK    4  A    between atoms: N_16  and  C_17
REMARK                            x       y       z     vdW  Elec       q    Type
REMARK                         _______ _______ _______ _____ _____    ______ ____
ROOT
ATOM      1  C   UNL     1       3.991   2.545  18.785  0.00  0.00    +0.000 C 
ATOM      2  O   UNL     1       3.689   1.501  18.197  0.00  0.00    +0.000 OA
ATOM      3  N   UNL     1       3.135   3.128  19.708  0.00  0.00    +0.000 N 
ATOM      4  C   UNL     1       1.979   2.374  20.180  0.00  0.00    +0.000 C 
ATOM      5  C   UNL     1       0.696   3.121  19.853  0.00  0.00    +0.000 C 
ATOM      6  C   UNL     1       0.719   4.519  20.473  0.00  0.00    +0.000 C 
ATOM      7  C   UNL     1       1.949   5.321  20.007  0.00  0.00    +0.000 C 
ATOM      8  C   UNL     1       3.244   4.490  20.238  0.00  0.00    +0.000 C 
ENDROOT
BRANCH   7   9
ATOM      9  N   UNL     1       2.048   6.589  20.751  0.00  0.00    +0.000 N 
ATOM     10  H   UNL     1       2.879   6.646  21.338  0.00  0.00    +0.000 HD
BRANCH   9  11
ATOM     11  C   UNL     1       1.792   7.814  20.128  0.00  0.00    +0.000 A 
ATOM     12  C   UNL     1       2.133   8.098  18.797  0.00  0.00    +0.000 A 
ATOM     13  C   UNL     1       1.779   9.311  18.193  0.00  0.00    +0.000 A 
ATOM     14  C   UNL     1       1.072  10.255  18.917  0.00  0.00    +0.000 A 
ATOM     15  F   UNL     1       0.742  11.419  18.342  0.00  0.00    +0.000 F 
ATOM     16  C   UNL     1       0.701   9.989  20.227  0.00  0.00    +0.000 A 
ATOM     17  F   UNL     1       0.009  10.896  20.929  0.00  0.00    +0.000 F 
ATOM     18  C   UNL     1       1.039   8.775  20.823  0.00  0.00    +0.000 A 
ENDBRANCH   9  11
ENDBRANCH   7   9
BRANCH   1  19
ATOM     19  C   UNL     1       5.340   3.247  18.523  0.00  0.00    +0.000 C 
BRANCH  19  26
ATOM     20  O   UNL     1       6.386   5.692  19.163  0.00  0.00    +0.000 OA
ATOM     21  C   UNL     1       5.875   5.583  18.047  0.00  0.00    +0.000 C 
ATOM     22  C   UNL     1       5.911   6.763  17.089  0.00  0.00    +0.000 C 
ATOM     23  C   UNL     1       5.192   6.570  15.766  0.00  0.00    +0.000 C 
ATOM     24  C   UNL     1       5.428   5.166  15.249  0.00  0.00    +0.000 C 
ATOM     25  C   UNL     1       4.841   4.185  16.245  0.00  0.00    +0.000 C 
ATOM     26  N   UNL     1       5.325   4.394  17.607  0.00  0.00    +0.000 N 
ENDBRANCH  19  26
ENDBRANCH   1  19
TORSDOF 4
ENDMDL
MODEL 6
REMARK VINA RESULT:      -7.9      0.904      1.382
REMARK  Name = 
REMARK  4 active torsions:
REMARK  status: ('A' for Active; 'I' for Inactive)
REMARK    1  A    between atoms: N_7  and  C_8
REMARK    2  A    between atoms: C_8  and  C_9
REMARK    3  A    between atoms: C_15  and  N_16
REMARK    4  A    between atoms: N_16  and  C_17
REMARK                            x       y       z     vdW  Elec       q    Type
REMARK                         _______ _______ _______ _____ _____    ______ ____
ROOT
ATOM      1  C   UNL     1       1.700   5.208  20.013  0.00  0.00    +0.000 C 
ATOM      2  O   UNL     1       0.748   4.884  20.731  0.00  0.00    +0.000 OA
ATOM      3  N   UNL     1       2.071   4.443  18.916  0.00  0.00    +0.000 N 
ATOM      4  C   UNL     1       1.179   3.386  18.453  0.00  0.00    +0.000 C 
ATOM      5  C   UNL     1       1.886   2.042  18.507  0.00  0.00    +0.000 C 
ATOM      6  C   UNL     1       3.163   2.077  17.667  0.00  0.00    +0.000 C 
ATOM      7  C   UNL     1       4.106   3.205  18.125  0.00  0.00    +0.000 C 
ATOM      8  C   UNL     1       3.333   4.554  18.180  0.00  0.00    +0.000 C 
ENDROOT
BRANCH   7   9
ATOM      9  N   UNL     1       5.241   3.336  17.193  0.00  0.00    +0.000 N 
ATOM     10  H   UNL     1       5.035   2.991  16.258  0.00  0.00    +0.000 HD
BRANCH   9  11
ATOM     11  C   UNL     1       5.997   4.512  17.136  0.00  0.00    +0.000 A 
ATOM     12  C   UNL     1       5.863   5.475  16.124  0.00  0.00    +0.000 A 
ATOM     13  C   UNL     1       6.583   6.676  16.156  0.00  0.00    +0.000 A 
ATOM     14  C   UNL     1       7.444   6.929  17.210  0.00  0.00    +0.000 A 
ATOM     15  F   UNL     1       8.140   8.073  17.236  0.00  0.00    +0.000 F 
ATOM     16  C   UNL     1       7.575   6.004  18.235  0.00  0.00    +0.000 A 
ATOM     17  F   UNL     1       8.401   6.248  19.263  0.00  0.00    +0.000 F 
ATOM     18  C   UNL     1       6.846   4.816  18.212  0.00  0.00    +0.000 A 
ENDBRANCH   9  11
ENDBRANCH   7   9
BRANCH   1  19
ATOM     19  C   UNL     1       2.520   6.484  20.300  0.00  0.00    +0.000 C 
BRANCH  19  26
ATOM     20  O   UNL     1       2.389   7.861  17.941  0.00  0.00    +0.000 OA
ATOM     21  C   UNL     1       1.834   8.375  18.913  0.00  0.00    +0.000 C 
ATOM     22  C   UNL     1       1.073   9.679  18.737  0.00  0.00    +0.000 C 
ATOM     23  C   UNL     1       0.484  10.282  20.000  0.00  0.00    +0.000 C 
ATOM     24  C   UNL     1      -0.080   9.188  20.883  0.00  0.00    +0.000 C 
ATOM     25  C   UNL     1       1.057   8.271  21.291  0.00  0.00    +0.000 C 
ATOM     26  N   UNL     1       1.822   7.767  20.155  0.00  0.00    +0.000 N 
ENDBRANCH  19  26
ENDBRANCH   1  19
TORSDOF 4
ENDMDL
MODEL 7
REMARK VINA RESULT:      -7.8      3.390      6.369
REMARK  Name = 
REMARK  4 active torsions:
REMARK  status: ('A' for Active; 'I' for Inactive)
REMARK    1  A    between atoms: N_7  and  C_8
REMARK    2  A    between atoms: C_8  and  C_9
REMARK    3  A    between atoms: C_15  and  N_16
REMARK    4  A    between atoms: N_16  and  C_17
REMARK                            x       y       z     vdW  Elec       q    Type
REMARK                         _______ _______ _______ _____ _____    ______ ____
ROOT
ATOM      1  C   UNL     1       4.304   3.139  18.742  0.00  0.00    +0.000 C 
ATOM      2  O   UNL     1       4.150   2.077  18.131  0.00  0.00    +0.000 OA
ATOM      3  N   UNL     1       3.385   3.567  19.689  0.00  0.00    +0.000 N 
ATOM      4  C   UNL     1       2.359   2.640  20.153  0.00  0.00    +0.000 C 
ATOM      5  C   UNL     1       0.975   3.198  19.859  0.00  0.00    +0.000 C 
ATOM      6  C   UNL     1       0.801   4.568  20.514  0.00  0.00    +0.000 C 
ATOM      7  C   UNL     1       1.893   5.553  20.057  0.00  0.00    +0.000 C 
ATOM      8  C   UNL     1       3.299   4.918  20.253  0.00  0.00    +0.000 C 
ENDROOT
BRANCH   7   9
ATOM      9  N   UNL     1       1.815   6.804  20.833  0.00  0.00    +0.000 N 
ATOM     10  H   UNL     1       2.524   6.870  21.561  0.00  0.00    +0.000 HD
BRANCH   9  11
ATOM     11  C   UNL     1       1.634   8.038  20.199  0.00  0.00    +0.000 A 
ATOM     12  C   UNL     1       1.964   8.279  18.856  0.00  0.00    +0.000 A 
ATOM     13  C   UNL     1       1.685   9.507  18.243  0.00  0.00    +0.000 A 
ATOM     14  C   UNL     1       1.067  10.510  18.971  0.00  0.00    +0.000 A 
ATOM     15  F   UNL     1       0.810  11.688  18.387  0.00  0.00    +0.000 F 
ATOM     16  C   UNL     1       0.709  10.287  20.292  0.00  0.00    +0.000 A 
ATOM     17  F   UNL     1       0.102  11.252  20.998  0.00  0.00    +0.000 F 
ATOM     18  C   UNL     1       0.971   9.060  20.897  0.00  0.00    +0.000 A 
ENDBRANCH   9  11
ENDBRANCH   7   9
BRANCH   1  19
ATOM     19  C   UNL     1       5.531   4.039  18.485  0.00  0.00    +0.000 C 
BRANCH  19  26
ATOM     20  O   UNL     1       8.062   4.248  17.472  0.00  0.00    +0.000 OA
ATOM     21  C   UNL     1       7.134   4.481  16.696  0.00  0.00    +0.000 C 
ATOM     22  C   UNL     1       7.438   4.799  15.241  0.00  0.00    +0.000 C 
ATOM     23  C   UNL     1       6.243   5.149  14.372  0.00  0.00    +0.000 C 
ATOM     24  C   UNL     1       5.068   4.259  14.724  0.00  0.00    +0.000 C 
ATOM     25  C   UNL     1       4.687   4.522  16.168  0.00  0.00    +0.000 C 
ATOM     26  N   UNL     1       5.812   4.396  17.089  0.00  0.00    +0.000 N 
ENDBRANCH  19  26
ENDBRANCH   1  19
TORSDOF 4
ENDMDL
MODEL 8
REMARK VINA RESULT:      -7.7      3.101      5.959
REMARK  Name = 
REMARK  4 active torsions:
REMARK  status: ('A' for Active; 'I' for Inactive)
REMARK    1  A    between atoms: N_7  and  C_8
REMARK    2  A    between atoms: C_8  and  C_9
REMARK    3  A    between atoms: C_15  and  N_16
REMARK    4  A    between atoms: N_16  and  C_17
REMARK                            x       y       z     vdW  Elec       q    Type
REMARK                         _______ _______ _______ _____ _____    ______ ____
ROOT
ATOM      1  C   UNL     1       4.081   2.762  18.557  0.00  0.00    +0.000 C 
ATOM      2  O   UNL     1       3.813   1.770  17.872  0.00  0.00    +0.000 OA
ATOM      3  N   UNL     1       3.223   3.206  19.553  0.00  0.00    +0.000 N 
ATOM      4  C   UNL     1       2.115   2.354  19.968  0.00  0.00    +0.000 C 
ATOM      5  C   UNL     1       0.791   3.067  19.745  0.00  0.00    +0.000 C 
ATOM      6  C   UNL     1       0.765   4.394  20.504  0.00  0.00    +0.000 C 
ATOM      7  C   UNL     1       1.944   5.297  20.098  0.00  0.00    +0.000 C 
ATOM      8  C   UNL     1       3.281   4.511  20.217  0.00  0.00    +0.000 C 
ENDROOT
BRANCH   7   9
ATOM      9  N   UNL     1       2.004   6.486  20.967  0.00  0.00    +0.000 N 
ATOM     10  H   UNL     1       2.882   6.569  21.476  0.00  0.00    +0.000 HD
BRANCH   9  11
ATOM     11  C   UNL     1       1.571   7.736  20.511  0.00  0.00    +0.000 A 
ATOM     12  C   UNL     1       0.956   8.694  21.331  0.00  0.00    +0.000 A 
ATOM     13  C   UNL     1       0.617   9.964  20.847  0.00  0.00    +0.000 A 
ATOM     14  C   UNL     1       0.897  10.291  19.531  0.00  0.00    +0.000 A 
ATOM     15  F   UNL     1       0.564  11.502  19.065  0.00  0.00    +0.000 F 
ATOM     16  C   UNL     1       1.527   9.370  18.707  0.00  0.00    +0.000 A 
ATOM     17  F   UNL     1       1.807   9.685  17.434  0.00  0.00    +0.000 F 
ATOM     18  C   UNL     1       1.879   8.112  19.193  0.00  0.00    +0.000 A 
ENDBRANCH   9  11
ENDBRANCH   7   9
BRANCH   1  19
ATOM     19  C   UNL     1       5.389   3.552  18.342  0.00  0.00    +0.000 C 
BRANCH  19  26
ATOM     20  O   UNL     1       5.851   3.205  15.669  0.00  0.00    +0.000 OA
ATOM     21  C   UNL     1       5.611   4.353  16.045  0.00  0.00    +0.000 C 
ATOM     22  C   UNL     1       5.522   5.472  15.020  0.00  0.00    +0.000 C 
ATOM     23  C   UNL     1       5.298   6.868  15.575  0.00  0.00    +0.000 C 
ATOM     24  C   UNL     1       4.317   6.816  16.728  0.00  0.00    +0.000 C 
ATOM     25  C   UNL     1       4.920   5.967  17.830  0.00  0.00    +0.000 C 
ATOM     26  N   UNL     1       5.349   4.650  17.369  0.00  0.00    +0.000 N 
ENDBRANCH  19  26
ENDBRANCH   1  19
TORSDOF 4
ENDMDL
MODEL 9
REMARK VINA RESULT:      -7.5      3.423      6.012
REMARK  Name = 
REMARK  4 active torsions:
REMARK  status: ('A' for Active; 'I' for Inactive)
REMARK    1  A    between atoms: N_7  and  C_8
REMARK    2  A    between atoms: C_8  and  C_9
REMARK    3  A    between atoms: C_15  and  N_16
REMARK    4  A    between atoms: N_16  and  C_17
REMARK                            x       y       z     vdW  Elec       q    Type
REMARK                         _______ _______ _______ _____ _____    ______ ____
ROOT
ATOM      1  C   UNL     1       4.144   2.886  18.698  0.00  0.00    +0.000 C 
ATOM      2  O   UNL     1       3.913   1.850  18.067  0.00  0.00    +0.000 OA
ATOM      3  N   UNL     1       3.262   3.357  19.660  0.00  0.00    +0.000 N 
ATOM      4  C   UNL     1       2.178   2.494  20.113  0.00  0.00    +0.000 C 
ATOM      5  C   UNL     1       0.834   3.151  19.840  0.00  0.00    +0.000 C 
ATOM      6  C   UNL     1       0.759   4.516  20.525  0.00  0.00    +0.000 C 
ATOM      7  C   UNL     1       1.913   5.433  20.079  0.00  0.00    +0.000 C 
ATOM      8  C   UNL     1       3.273   4.698  20.252  0.00  0.00    +0.000 C 
ENDROOT
BRANCH   7   9
ATOM      9  N   UNL     1       1.927   6.670  20.880  0.00  0.00    +0.000 N 
ATOM     10  H   UNL     1       2.714   6.724  21.523  0.00  0.00    +0.000 HD
BRANCH   9  11
ATOM     11  C   UNL     1       1.677   7.914  20.292  0.00  0.00    +0.000 A 
ATOM     12  C   UNL     1       1.949   8.209  18.947  0.00  0.00    +0.000 A 
ATOM     13  C   UNL     1       1.603   9.444  18.384  0.00  0.00    +0.000 A 
ATOM     14  C   UNL     1       0.973  10.399  19.164  0.00  0.00    +0.000 A 
ATOM     15  F   UNL     1       0.651  11.583  18.627  0.00  0.00    +0.000 F 
ATOM     16  C   UNL     1       0.671  10.122  20.489  0.00  0.00    +0.000 A 
ATOM     17  F   UNL     1       0.053  11.041  21.246  0.00  0.00    +0.000 F 
ATOM     18  C   UNL     1       1.000   8.888  21.045  0.00  0.00    +0.000 A 
ENDBRANCH   9  11
ENDBRANCH   7   9
BRANCH   1  19
ATOM     19  C   UNL     1       5.428   3.704  18.449  0.00  0.00    +0.000 C 
BRANCH  19  26
ATOM     20  O   UNL     1       5.794   3.129  15.801  0.00  0.00    +0.000 OA
ATOM     21  C   UNL     1       5.586   4.309  16.087  0.00  0.00    +0.000 C 
ATOM     22  C   UNL     1       5.482   5.342  14.977  0.00  0.00    +0.000 C 
ATOM     23  C   UNL     1       5.301   6.782  15.421  0.00  0.00    +0.000 C 
ATOM     24  C   UNL     1       4.359   6.845  16.605  0.00  0.00    +0.000 C 
ATOM     25  C   UNL     1       4.984   6.078  17.754  0.00  0.00    +0.000 C 
ATOM     26  N   UNL     1       5.375   4.719  17.390  0.00  0.00    +0.000 N 
ENDBRANCH  19  26
ENDBRANCH   1  19
TORSDOF 4
ENDMDL
