MODEL 1
REMARK VINA RESULT:      -8.0      0.000      0.000
REMARK  Name = 
REMARK  5 active torsions:
REMARK  status: ('A' for Active; 'I' for Inactive)
REMARK    1  A    between atoms: C_1  and  C_2
REMARK    2  A    between atoms: C_5  and  C_6
REMARK    3  A    between atoms: C_7  and  C_8
REMARK    4  A    between atoms: N_13  and  C_14
REMARK    5  A    between atoms: C_20  and  C_21
REMARK                            x       y       z     vdW  Elec       q    Type
REMARK                         _______ _______ _______ _____ _____    ______ ____
ROOT
ATOM      1  C   UNL     1      -1.076  13.530  21.006  0.00  0.00    +0.000 A 
ATOM      2  C   UNL     1      -1.912  12.541  20.608  0.00  0.00    +0.000 A 
ATOM      3  O   UNL     1      -2.954  12.064  21.446  0.00  0.00    +0.000 OA
ATOM      4  C   UNL     1      -3.303  12.615  22.630  0.00  0.00    +0.000 A 
ATOM      5  O   UNL     1      -4.298  12.258  23.245  0.00  0.00    +0.000 OA
ATOM      6  C   UNL     1      -2.399  13.658  23.136  0.00  0.00    +0.000 A 
ATOM      7  C   UNL     1      -2.631  14.177  24.420  0.00  0.00    +0.000 A 
ATOM      8  C   UNL     1      -1.782  15.149  24.947  0.00  0.00    +0.000 A 
ATOM      9  C   UNL     1      -0.714  15.609  24.185  0.00  0.00    +0.000 A 
ATOM     10  C   UNL     1      -0.491  15.097  22.900  0.00  0.00    +0.000 A 
ATOM     11  C   UNL     1      -1.329  14.104  22.356  0.00  0.00    +0.000 A 
ENDROOT
BRANCH   2  12
ATOM     12  C   UNL     1      -1.757  11.770  19.310  0.00  0.00    +0.000 C 
ATOM     13  O   UNL     1      -2.258  12.188  18.267  0.00  0.00    +0.000 OA
ATOM     14  N   UNL     1      -0.948  10.644  19.300  0.00  0.00    +0.000 N 
ATOM     15  C   UNL     1      -0.524  10.094  18.005  0.00  0.00    +0.000 C 
ATOM     16  C   UNL     1       1.008   9.900  17.938  0.00  0.00    +0.000 C 
ATOM     17  N   UNL     1       1.478   9.134  19.118  0.00  0.00    +0.000 N 
ATOM     18  C   UNL     1       1.084   9.753  20.397  0.00  0.00    +0.000 C 
ATOM     19  C   UNL     1      -0.454   9.861  20.449  0.00  0.00    +0.000 C 
BRANCH  17  20
ATOM     20  C   UNL     1       2.231   7.980  18.977  0.00  0.00    +0.000 A 
ATOM     21  C   UNL     1       3.114   7.873  17.878  0.00  0.00    +0.000 A 
ATOM     22  C   UNL     1       3.871   6.726  17.626  0.00  0.00    +0.000 A 
ATOM     23 CL   UNL     1       4.887   6.656  16.239  0.00  0.00    +0.000 Cl
ATOM     24  C   UNL     1       3.805   5.643  18.483  0.00  0.00    +0.000 A 
ATOM     25  C   UNL     1       2.968   5.717  19.589  0.00  0.00    +0.000 A 
ATOM     26  C   UNL     1       2.167   6.857  19.840  0.00  0.00    +0.000 A 
ATOM     27  C   UNL     1       1.245   6.743  21.028  0.00  0.00    +0.000 C 
ENDBRANCH  17  20
ENDBRANCH   2  12
BRANCH   1  32
ATOM     28  C   UNL     1       3.520  15.159  17.866  0.00  0.00    +0.000 C 
ATOM     29  C   UNL     1       2.313  14.748  18.658  0.00  0.00    +0.000 A 
ATOM     30  C   UNL     1       1.086  15.410  18.514  0.00  0.00    +0.000 A 
ATOM     31  C   UNL     1      -0.028  15.012  19.262  0.00  0.00    +0.000 A 
ATOM     32  C   UNL     1       0.075  13.950  20.169  0.00  0.00    +0.000 A 
ATOM     33  C   UNL     1       1.305  13.298  20.319  0.00  0.00    +0.000 A 
ATOM     34  C   UNL     1       2.414  13.689  19.567  0.00  0.00    +0.000 A 
ENDBRANCH   1  32
TORSDOF 3
ENDMDL
MODEL 2
REMARK VINA RESULT:      -7.7      1.300      1.925
REMARK  Name = 
REMARK  5 active torsions:
REMARK  status: ('A' for Active; 'I' for Inactive)
REMARK    1  A    between atoms: C_1  and  C_2
REMARK    2  A    between atoms: C_5  and  C_6
REMARK    3  A    between atoms: C_7  and  C_8
REMARK    4  A    between atoms: N_13  and  C_14
REMARK    5  A    between atoms: C_20  and  C_21
REMARK                            x       y       z     vdW  Elec       q    Type
REMARK                         _______ _______ _______ _____ _____    ______ ____
ROOT
ATOM      1  C   UNL     1      -0.623  13.486  20.800  0.00  0.00    +0.000 A 
ATOM      2  C   UNL     1      -1.428  12.503  20.327  0.00  0.00    +0.000 A 
ATOM      3  O   UNL     1      -2.549  12.041  21.065  0.00  0.00    +0.000 OA
ATOM      4  C   UNL     1      -3.002  12.600  22.209  0.00  0.00    +0.000 A 
ATOM      5  O   UNL     1      -4.054  12.256  22.728  0.00  0.00    +0.000 OA
ATOM      6  C   UNL     1      -2.138  13.636  22.795  0.00  0.00    +0.000 A 
ATOM      7  C   UNL     1      -2.484  14.162  24.050  0.00  0.00    +0.000 A 
ATOM      8  C   UNL     1      -1.679  15.128  24.651  0.00  0.00    +0.000 A 
ATOM      9  C   UNL     1      -0.539  15.574  23.991  0.00  0.00    +0.000 A 
ATOM     10  C   UNL     1      -0.202  15.054  22.735  0.00  0.00    +0.000 A 
ATOM     11  C   UNL     1      -0.995  14.067  22.118  0.00  0.00    +0.000 A 
ENDROOT
BRANCH   2  12
ATOM     12  C   UNL     1      -1.160  11.726  19.052  0.00  0.00    +0.000 C 
ATOM     13  O   UNL     1      -1.389  12.225  17.951  0.00  0.00    +0.000 OA
ATOM     14  N   UNL     1      -0.548  10.485  19.148  0.00  0.00    +0.000 N 
ATOM     15  C   UNL     1       0.015   9.882  17.932  0.00  0.00    +0.000 C 
ATOM     16  C   UNL     1       1.483   9.446  18.135  0.00  0.00    +0.000 C 
ATOM     17  N   UNL     1       1.604   8.607  19.352  0.00  0.00    +0.000 N 
ATOM     18  C   UNL     1       1.083   9.273  20.561  0.00  0.00    +0.000 C 
ATOM     19  C   UNL     1      -0.402   9.626  20.339  0.00  0.00    +0.000 C 
BRANCH  17  20
ATOM     20  C   UNL     1       2.180   7.348  19.309  0.00  0.00    +0.000 A 
ATOM     21  C   UNL     1       1.792   6.389  20.273  0.00  0.00    +0.000 A 
ATOM     22  C   UNL     1       2.358   5.114  20.341  0.00  0.00    +0.000 A 
ATOM     23 CL   UNL     1       1.866   4.020  21.575  0.00  0.00    +0.000 Cl
ATOM     24  C   UNL     1       3.317   4.727  19.424  0.00  0.00    +0.000 A 
ATOM     25  C   UNL     1       3.709   5.630  18.444  0.00  0.00    +0.000 A 
ATOM     26  C   UNL     1       3.171   6.939  18.383  0.00  0.00    +0.000 A 
ATOM     27  C   UNL     1       3.768   7.827  17.320  0.00  0.00    +0.000 C 
ENDBRANCH  17  20
ENDBRANCH   2  12
BRANCH   1  32
ATOM     28  C   UNL     1       4.088  15.098  17.825  0.00  0.00    +0.000 C 
ATOM     29  C   UNL     1       2.886  14.668  18.613  0.00  0.00    +0.000 A 
ATOM     30  C   UNL     1       2.918  13.528  19.428  0.00  0.00    +0.000 A 
ATOM     31  C   UNL     1       1.786  13.142  20.156  0.00  0.00    +0.000 A 
ATOM     32  C   UNL     1       0.606  13.890  20.073  0.00  0.00    +0.000 A 
ATOM     33  C   UNL     1       0.573  15.024  19.249  0.00  0.00    +0.000 A 
ATOM     34  C   UNL     1       1.705  15.412  18.531  0.00  0.00    +0.000 A 
ENDBRANCH   1  32
TORSDOF 3
ENDMDL
MODEL 3
REMARK VINA RESULT:      -7.3      2.452      4.331
REMARK  Name = 
REMARK  5 active torsions:
REMARK  status: ('A' for Active; 'I' for Inactive)
REMARK    1  A    between atoms: C_1  and  C_2
REMARK    2  A    between atoms: C_5  and  C_6
REMARK    3  A    between atoms: C_7  and  C_8
REMARK    4  A    between atoms: N_13  and  C_14
REMARK    5  A    between atoms: C_20  and  C_21
REMARK                            x       y       z     vdW  Elec       q    Type
REMARK                         _______ _______ _______ _____ _____    ______ ____
ROOT
ATOM      1  C   UNL     1      -0.823  13.669  20.600  0.00  0.00    +0.000 A 
ATOM      2  C   UNL     1      -0.364  13.233  21.798  0.00  0.00    +0.000 A 
ATOM      3  O   UNL     1       0.530  14.011  22.580  0.00  0.00    +0.000 OA
ATOM      4  C   UNL     1       0.898  15.280  22.295  0.00  0.00    +0.000 A 
ATOM      5  O   UNL     1       1.553  15.957  23.074  0.00  0.00    +0.000 OA
ATOM      6  C   UNL     1       0.469  15.786  20.982  0.00  0.00    +0.000 A 
ATOM      7  C   UNL     1       0.929  17.047  20.571  0.00  0.00    +0.000 A 
ATOM      8  C   UNL     1       0.567  17.553  19.323  0.00  0.00    +0.000 A 
ATOM      9  C   UNL     1      -0.263  16.803  18.498  0.00  0.00    +0.000 A 
ATOM     10  C   UNL     1      -0.728  15.549  18.915  0.00  0.00    +0.000 A 
ATOM     11  C   UNL     1      -0.362  15.016  20.166  0.00  0.00    +0.000 A 
ENDROOT
BRANCH   2  12
ATOM     12  C   UNL     1      -0.646  11.854  22.364  0.00  0.00    +0.000 C 
ATOM     13  O   UNL     1      -1.596  11.668  23.122  0.00  0.00    +0.000 OA
ATOM     14  N   UNL     1       0.123  10.787  21.924  0.00  0.00    +0.000 N 
ATOM     15  C   UNL     1      -0.347   9.421  22.198  0.00  0.00    +0.000 C 
ATOM     16  C   UNL     1      -0.381   8.558  20.917  0.00  0.00    +0.000 C 
ATOM     17  N   UNL     1       0.923   8.633  20.215  0.00  0.00    +0.000 N 
ATOM     18  C   UNL     1       1.328  10.016  19.904  0.00  0.00    +0.000 C 
ATOM     19  C   UNL     1       1.418  10.820  21.218  0.00  0.00    +0.000 C 
BRANCH  17  20
ATOM     20  C   UNL     1       1.632   7.490  19.884  0.00  0.00    +0.000 A 
ATOM     21  C   UNL     1       1.593   6.385  20.765  0.00  0.00    +0.000 A 
ATOM     22  C   UNL     1       2.320   5.214  20.541  0.00  0.00    +0.000 A 
ATOM     23 CL   UNL     1       2.257   3.931  21.687  0.00  0.00    +0.000 Cl
ATOM     24  C   UNL     1       3.095   5.079  19.405  0.00  0.00    +0.000 A 
ATOM     25  C   UNL     1       3.142   6.132  18.499  0.00  0.00    +0.000 A 
ATOM     26  C   UNL     1       2.440   7.340  18.728  0.00  0.00    +0.000 A 
ATOM     27  C   UNL     1       2.668   8.418  17.699  0.00  0.00    +0.000 C 
ENDBRANCH  17  20
ENDBRANCH   2  12
BRANCH   1  32
ATOM     28  C   UNL     1      -4.058  10.354  17.109  0.00  0.00    +0.000 C 
ATOM     29  C   UNL     1      -3.241  11.209  18.032  0.00  0.00    +0.000 A 
ATOM     30  C   UNL     1      -3.836  11.930  19.077  0.00  0.00    +0.000 A 
ATOM     31  C   UNL     1      -3.057  12.722  19.928  0.00  0.00    +0.000 A 
ATOM     32  C   UNL     1      -1.672  12.806  19.740  0.00  0.00    +0.000 A 
ATOM     33  C   UNL     1      -1.081  12.093  18.689  0.00  0.00    +0.000 A 
ATOM     34  C   UNL     1      -1.857  11.297  17.846  0.00  0.00    +0.000 A 
ENDBRANCH   1  32
TORSDOF 3
ENDMDL
MODEL 4
REMARK VINA RESULT:      -7.3      1.815      4.279
REMARK  Name = 
REMARK  5 active torsions:
REMARK  status: ('A' for Active; 'I' for Inactive)
REMARK    1  A    between atoms: C_1  and  C_2
REMARK    2  A    between atoms: C_5  and  C_6
REMARK    3  A    between atoms: C_7  and  C_8
REMARK    4  A    between atoms: N_13  and  C_14
REMARK    5  A    between atoms: C_20  and  C_21
REMARK                            x       y       z     vdW  Elec       q    Type
REMARK                         _______ _______ _______ _____ _____    ______ ____
ROOT
ATOM      1  C   UNL     1      -1.406  14.449  20.927  0.00  0.00    +0.000 A 
ATOM      2  C   UNL     1      -0.998  13.786  19.818  0.00  0.00    +0.000 A 
ATOM      3  O   UNL     1      -0.122  14.385  18.873  0.00  0.00    +0.000 OA
ATOM      4  C   UNL     1       0.487  15.580  19.038  0.00  0.00    +0.000 A 
ATOM      5  O   UNL     1       1.343  15.985  18.264  0.00  0.00    +0.000 OA
ATOM      6  C   UNL     1       0.042  16.365  20.199  0.00  0.00    +0.000 A 
ATOM      7  C   UNL     1       0.539  17.669  20.352  0.00  0.00    +0.000 A 
ATOM      8  C   UNL     1       0.123  18.457  21.425  0.00  0.00    +0.000 A 
ATOM      9  C   UNL     1      -0.776  17.934  22.347  0.00  0.00    +0.000 A 
ATOM     10  C   UNL     1      -1.263  16.628  22.197  0.00  0.00    +0.000 A 
ATOM     11  C   UNL     1      -0.865  15.823  21.112  0.00  0.00    +0.000 A 
ENDROOT
BRANCH   2  12
ATOM     12  C   UNL     1      -1.511  12.418  19.409  0.00  0.00    +0.000 C 
ATOM     13  O   UNL     1      -2.635  12.286  18.928  0.00  0.00    +0.000 OA
ATOM     14  N   UNL     1      -0.647  11.336  19.486  0.00  0.00    +0.000 N 
ATOM     15  C   UNL     1      -1.012  10.094  18.790  0.00  0.00    +0.000 C 
ATOM     16  C   UNL     1       0.130   9.592  17.877  0.00  0.00    +0.000 C 
ATOM     17  N   UNL     1       1.400   9.522  18.639  0.00  0.00    +0.000 N 
ATOM     18  C   UNL     1       1.761  10.805  19.271  0.00  0.00    +0.000 C 
ATOM     19  C   UNL     1       0.625  11.230  20.225  0.00  0.00    +0.000 C 
BRANCH  17  20
ATOM     20  C   UNL     1       2.147   8.357  18.695  0.00  0.00    +0.000 A 
ATOM     21  C   UNL     1       3.032   8.064  17.632  0.00  0.00    +0.000 A 
ATOM     22  C   UNL     1       3.783   6.887  17.576  0.00  0.00    +0.000 A 
ATOM     23 CL   UNL     1       4.802   6.582  16.224  0.00  0.00    +0.000 Cl
ATOM     24  C   UNL     1       3.708   5.962  18.601  0.00  0.00    +0.000 A 
ATOM     25  C   UNL     1       2.869   6.223  19.677  0.00  0.00    +0.000 A 
ATOM     26  C   UNL     1       2.074   7.393  19.733  0.00  0.00    +0.000 A 
ATOM     27  C   UNL     1       1.149   7.483  20.919  0.00  0.00    +0.000 C 
ENDBRANCH  17  20
ENDBRANCH   2  12
BRANCH   1  32
ATOM     28  C   UNL     1      -5.373  12.287  24.565  0.00  0.00    +0.000 C 
ATOM     29  C   UNL     1      -4.330  12.823  23.628  0.00  0.00    +0.000 A 
ATOM     30  C   UNL     1      -2.983  12.458  23.750  0.00  0.00    +0.000 A 
ATOM     31  C   UNL     1      -2.025  12.969  22.867  0.00  0.00    +0.000 A 
ATOM     32  C   UNL     1      -2.404  13.857  21.854  0.00  0.00    +0.000 A 
ATOM     33  C   UNL     1      -3.749  14.231  21.741  0.00  0.00    +0.000 A 
ATOM     34  C   UNL     1      -4.705  13.714  22.617  0.00  0.00    +0.000 A 
ENDBRANCH   1  32
TORSDOF 3
ENDMDL
MODEL 5
REMARK VINA RESULT:      -7.2      2.469      4.425
REMARK  Name = 
REMARK  5 active torsions:
REMARK  status: ('A' for Active; 'I' for Inactive)
REMARK    1  A    between atoms: C_1  and  C_2
REMARK    2  A    between atoms: C_5  and  C_6
REMARK    3  A    between atoms: C_7  and  C_8
REMARK    4  A    between atoms: N_13  and  C_14
REMARK    5  A    between atoms: C_20  and  C_21
REMARK                            x       y       z     vdW  Elec       q    Type
REMARK                         _______ _______ _______ _____ _____    ______ ____
ROOT
ATOM      1  C   UNL     1      -1.128  14.050  20.906  0.00  0.00    +0.000 A 
ATOM      2  C   UNL     1      -0.521  13.544  22.007  0.00  0.00    +0.000 A 
ATOM      3  O   UNL     1       0.486  14.266  22.700  0.00  0.00    +0.000 OA
ATOM      4  C   UNL     1       0.838  15.544  22.434  0.00  0.00    +0.000 A 
ATOM      5  O   UNL     1       1.607  16.168  23.152  0.00  0.00    +0.000 OA
ATOM      6  C   UNL     1       0.249  16.125  21.220  0.00  0.00    +0.000 A 
ATOM      7  C   UNL     1       0.676  17.401  20.816  0.00  0.00    +0.000 A 
ATOM      8  C   UNL     1       0.161  17.978  19.656  0.00  0.00    +0.000 A 
ATOM      9  C   UNL     1      -0.788  17.286  18.913  0.00  0.00    +0.000 A 
ATOM     10  C   UNL     1      -1.220  16.018  19.324  0.00  0.00    +0.000 A 
ATOM     11  C   UNL     1      -0.700  15.412  20.484  0.00  0.00    +0.000 A 
ENDROOT
BRANCH   2  12
ATOM     12  C   UNL     1      -0.753  12.140  22.534  0.00  0.00    +0.000 C 
ATOM     13  O   UNL     1      -1.670  11.907  23.320  0.00  0.00    +0.000 OA
ATOM     14  N   UNL     1       0.019  11.106  22.027  0.00  0.00    +0.000 N 
ATOM     15  C   UNL     1      -0.413   9.722  22.271  0.00  0.00    +0.000 C 
ATOM     16  C   UNL     1      -0.478   8.903  20.961  0.00  0.00    +0.000 C 
ATOM     17  N   UNL     1       0.797   9.030  20.215  0.00  0.00    +0.000 N 
ATOM     18  C   UNL     1       1.162  10.432  19.938  0.00  0.00    +0.000 C 
ATOM     19  C   UNL     1       1.286  11.191  21.275  0.00  0.00    +0.000 C 
BRANCH  17  20
ATOM     20  C   UNL     1       1.516   7.915  19.817  0.00  0.00    +0.000 A 
ATOM     21  C   UNL     1       1.546   6.786  20.667  0.00  0.00    +0.000 A 
ATOM     22  C   UNL     1       2.288   5.639  20.375  0.00  0.00    +0.000 A 
ATOM     23 CL   UNL     1       2.311   4.324  21.485  0.00  0.00    +0.000 Cl
ATOM     24  C   UNL     1       3.010   5.556  19.199  0.00  0.00    +0.000 A 
ATOM     25  C   UNL     1       2.988   6.634  18.323  0.00  0.00    +0.000 A 
ATOM     26  C   UNL     1       2.270   7.818  18.620  0.00  0.00    +0.000 A 
ATOM     27  C   UNL     1       2.422   8.929  17.613  0.00  0.00    +0.000 C 
ENDBRANCH  17  20
ENDBRANCH   2  12
BRANCH   1  32
ATOM     28  C   UNL     1      -5.008  10.868  17.998  0.00  0.00    +0.000 C 
ATOM     29  C   UNL     1      -3.987  11.691  18.727  0.00  0.00    +0.000 A 
ATOM     30  C   UNL     1      -2.631  11.653  18.374  0.00  0.00    +0.000 A 
ATOM     31  C   UNL     1      -1.694  12.429  19.066  0.00  0.00    +0.000 A 
ATOM     32  C   UNL     1      -2.102  13.247  20.125  0.00  0.00    +0.000 A 
ATOM     33  C   UNL     1      -3.456  13.275  20.484  0.00  0.00    +0.000 A 
ATOM     34  C   UNL     1      -4.391  12.509  19.788  0.00  0.00    +0.000 A 
ENDBRANCH   1  32
TORSDOF 3
ENDMDL
MODEL 6
REMARK VINA RESULT:      -7.1      6.891     10.699
REMARK  Name = 
REMARK  5 active torsions:
REMARK  status: ('A' for Active; 'I' for Inactive)
REMARK    1  A    between atoms: C_1  and  C_2
REMARK    2  A    between atoms: C_5  and  C_6
REMARK    3  A    between atoms: C_7  and  C_8
REMARK    4  A    between atoms: N_13  and  C_14
REMARK    5  A    between atoms: C_20  and  C_21
REMARK                            x       y       z     vdW  Elec       q    Type
REMARK                         _______ _______ _______ _____ _____    ______ ____
ROOT
ATOM      1  C   UNL     1       8.602  13.959  21.249  0.00  0.00    +0.000 A 
ATOM      2  C   UNL     1       8.081  15.125  20.795  0.00  0.00    +0.000 A 
ATOM      3  O   UNL     1       8.527  15.719  19.584  0.00  0.00    +0.000 OA
ATOM      4  C   UNL     1       9.386  15.141  18.715  0.00  0.00    +0.000 A 
ATOM      5  O   UNL     1       9.626  15.629  17.619  0.00  0.00    +0.000 OA
ATOM      6  C   UNL     1      10.021  13.899  19.179  0.00  0.00    +0.000 A 
ATOM      7  C   UNL     1      11.019  13.321  18.379  0.00  0.00    +0.000 A 
ATOM      8  C   UNL     1      11.665  12.157  18.795  0.00  0.00    +0.000 A 
ATOM      9  C   UNL     1      11.300  11.568  20.000  0.00  0.00    +0.000 A 
ATOM     10  C   UNL     1      10.296  12.142  20.792  0.00  0.00    +0.000 A 
ATOM     11  C   UNL     1       9.643  13.325  20.395  0.00  0.00    +0.000 A 
ENDROOT
BRANCH   2  12
ATOM     12  C   UNL     1       7.081  15.966  21.567  0.00  0.00    +0.000 C 
ATOM     13  O   UNL     1       7.458  16.756  22.431  0.00  0.00    +0.000 OA
ATOM     14  N   UNL     1       5.744  15.906  21.203  0.00  0.00    +0.000 N 
ATOM     15  C   UNL     1       4.832  16.945  21.704  0.00  0.00    +0.000 C 
ATOM     16  C   UNL     1       4.023  17.597  20.560  0.00  0.00    +0.000 C 
ATOM     17  N   UNL     1       3.373  16.552  19.732  0.00  0.00    +0.000 N 
ATOM     18  C   UNL     1       4.332  15.566  19.199  0.00  0.00    +0.000 C 
ATOM     19  C   UNL     1       5.064  14.890  20.378  0.00  0.00    +0.000 C 
BRANCH  17  20
ATOM     20  C   UNL     1       2.010  16.564  19.492  0.00  0.00    +0.000 A 
ATOM     21  C   UNL     1       1.141  16.037  20.475  0.00  0.00    +0.000 A 
ATOM     22  C   UNL     1      -0.242  15.957  20.297  0.00  0.00    +0.000 A 
ATOM     23 CL   UNL     1      -1.228  15.259  21.523  0.00  0.00    +0.000 Cl
ATOM     24  C   UNL     1      -0.826  16.433  19.138  0.00  0.00    +0.000 A 
ATOM     25  C   UNL     1      -0.010  16.982  18.156  0.00  0.00    +0.000 A 
ATOM     26  C   UNL     1       1.397  17.038  18.305  0.00  0.00    +0.000 A 
ATOM     27  C   UNL     1       2.146  17.576  17.112  0.00  0.00    +0.000 C 
ENDBRANCH  17  20
ENDBRANCH   2  12
BRANCH   1  32
ATOM     28  C   UNL     1       6.898  11.785  26.349  0.00  0.00    +0.000 C 
ATOM     29  C   UNL     1       7.364  12.353  25.041  0.00  0.00    +0.000 A 
ATOM     30  C   UNL     1       8.375  13.323  24.985  0.00  0.00    +0.000 A 
ATOM     31  C   UNL     1       8.796  13.842  23.755  0.00  0.00    +0.000 A 
ATOM     32  C   UNL     1       8.206  13.400  22.565  0.00  0.00    +0.000 A 
ATOM     33  C   UNL     1       7.189  12.439  22.624  0.00  0.00    +0.000 A 
ATOM     34  C   UNL     1       6.775  11.916  23.850  0.00  0.00    +0.000 A 
ENDBRANCH   1  32
TORSDOF 3
ENDMDL
MODEL 7
REMARK VINA RESULT:      -7.0      3.588      6.725
REMARK  Name = 
REMARK  5 active torsions:
REMARK  status: ('A' for Active; 'I' for Inactive)
REMARK    1  A    between atoms: C_1  and  C_2
REMARK    2  A    between atoms: C_5  and  C_6
REMARK    3  A    between atoms: C_7  and  C_8
REMARK    4  A    between atoms: N_13  and  C_14
REMARK    5  A    between atoms: C_20  and  C_21
REMARK                            x       y       z     vdW  Elec       q    Type
REMARK                         _______ _______ _______ _____ _____    ______ ____
ROOT
ATOM      1  C   UNL     1      -3.533  12.643  20.354  0.00  0.00    +0.000 A 
ATOM      2  C   UNL     1      -2.492  11.984  19.789  0.00  0.00    +0.000 A 
ATOM      3  O   UNL     1      -2.617  11.332  18.534  0.00  0.00    +0.000 OA
ATOM      4  C   UNL     1      -3.700  11.411  17.730  0.00  0.00    +0.000 A 
ATOM      5  O   UNL     1      -3.702  10.952  16.596  0.00  0.00    +0.000 OA
ATOM      6  C   UNL     1      -4.877  12.070  18.313  0.00  0.00    +0.000 A 
ATOM      7  C   UNL     1      -6.075  12.069  17.579  0.00  0.00    +0.000 A 
ATOM      8  C   UNL     1      -7.221  12.661  18.107  0.00  0.00    +0.000 A 
ATOM      9  C   UNL     1      -7.163  13.265  19.358  0.00  0.00    +0.000 A 
ATOM     10  C   UNL     1      -5.965  13.274  20.083  0.00  0.00    +0.000 A 
ATOM     11  C   UNL     1      -4.800  12.668  19.573  0.00  0.00    +0.000 A 
ENDROOT
BRANCH   2  12
ATOM     12  C   UNL     1      -1.154  11.769  20.471  0.00  0.00    +0.000 C 
ATOM     13  O   UNL     1      -0.920  10.728  21.084  0.00  0.00    +0.000 OA
ATOM     14  N   UNL     1      -0.161  12.721  20.297  0.00  0.00    +0.000 N 
ATOM     15  C   UNL     1       1.220  12.372  20.661  0.00  0.00    +0.000 C 
ATOM     16  C   UNL     1       2.207  12.664  19.509  0.00  0.00    +0.000 C 
ATOM     17  N   UNL     1       2.030  14.054  19.022  0.00  0.00    +0.000 N 
ATOM     18  C   UNL     1       0.643  14.343  18.609  0.00  0.00    +0.000 C 
ATOM     19  C   UNL     1      -0.296  14.107  19.810  0.00  0.00    +0.000 C 
BRANCH  17  20
ATOM     20  C   UNL     1       3.093  14.938  18.955  0.00  0.00    +0.000 A 
ATOM     21  C   UNL     1       4.279  14.528  18.302  0.00  0.00    +0.000 A 
ATOM     22  C   UNL     1       5.420  15.331  18.233  0.00  0.00    +0.000 A 
ATOM     23 CL   UNL     1       6.840  14.740  17.461  0.00  0.00    +0.000 Cl
ATOM     24  C   UNL     1       5.417  16.598  18.786  0.00  0.00    +0.000 A 
ATOM     25  C   UNL     1       4.264  17.049  19.416  0.00  0.00    +0.000 A 
ATOM     26  C   UNL     1       3.110  16.236  19.525  0.00  0.00    +0.000 A 
ATOM     27  C   UNL     1       1.976  16.836  20.318  0.00  0.00    +0.000 C 
ENDBRANCH  17  20
ENDBRANCH   2  12
BRANCH   1  32
ATOM     28  C   UNL     1      -2.982  15.019  25.616  0.00  0.00    +0.000 C 
ATOM     29  C   UNL     1      -3.142  14.384  24.266  0.00  0.00    +0.000 A 
ATOM     30  C   UNL     1      -3.476  13.030  24.131  0.00  0.00    +0.000 A 
ATOM     31  C   UNL     1      -3.621  12.456  22.862  0.00  0.00    +0.000 A 
ATOM     32  C   UNL     1      -3.427  13.230  21.713  0.00  0.00    +0.000 A 
ATOM     33  C   UNL     1      -3.083  14.581  21.850  0.00  0.00    +0.000 A 
ATOM     34  C   UNL     1      -2.947  15.155  23.115  0.00  0.00    +0.000 A 
ENDBRANCH   1  32
TORSDOF 3
ENDMDL
MODEL 8
REMARK VINA RESULT:      -6.9      3.616      6.858
REMARK  Name = 
REMARK  5 active torsions:
REMARK  status: ('A' for Active; 'I' for Inactive)
REMARK    1  A    between atoms: C_1  and  C_2
REMARK    2  A    between atoms: C_5  and  C_6
REMARK    3  A    between atoms: C_7  and  C_8
REMARK    4  A    between atoms: N_13  and  C_14
REMARK    5  A    between atoms: C_20  and  C_21
REMARK                            x       y       z     vdW  Elec       q    Type
REMARK                         _______ _______ _______ _____ _____    ______ ____
ROOT
ATOM      1  C   UNL     1      -3.436  13.836  23.102  0.00  0.00    +0.000 A 
ATOM      2  C   UNL     1      -2.916  14.972  23.626  0.00  0.00    +0.000 A 
ATOM      3  O   UNL     1      -3.744  16.050  24.037  0.00  0.00    +0.000 OA
ATOM      4  C   UNL     1      -5.094  16.010  24.080  0.00  0.00    +0.000 A 
ATOM      5  O   UNL     1      -5.755  16.911  24.578  0.00  0.00    +0.000 OA
ATOM      6  C   UNL     1      -5.714  14.822  23.476  0.00  0.00    +0.000 A 
ATOM      7  C   UNL     1      -7.114  14.781  23.370  0.00  0.00    +0.000 A 
ATOM      8  C   UNL     1      -7.740  13.684  22.781  0.00  0.00    +0.000 A 
ATOM      9  C   UNL     1      -6.968  12.626  22.313  0.00  0.00    +0.000 A 
ATOM     10  C   UNL     1      -5.572  12.666  22.430  0.00  0.00    +0.000 A 
ATOM     11  C   UNL     1      -4.921  13.772  23.008  0.00  0.00    +0.000 A 
ENDROOT
BRANCH   2  12
ATOM     12  C   UNL     1      -1.429  15.262  23.716  0.00  0.00    +0.000 C 
ATOM     13  O   UNL     1      -0.799  15.006  24.741  0.00  0.00    +0.000 OA
ATOM     14  N   UNL     1      -0.773  15.716  22.582  0.00  0.00    +0.000 N 
ATOM     15  C   UNL     1       0.697  15.678  22.557  0.00  0.00    +0.000 C 
ATOM     16  C   UNL     1       1.230  14.966  21.294  0.00  0.00    +0.000 C 
ATOM     17  N   UNL     1       0.607  15.545  20.079  0.00  0.00    +0.000 N 
ATOM     18  C   UNL     1      -0.867  15.508  20.118  0.00  0.00    +0.000 C 
ATOM     19  C   UNL     1      -1.356  16.290  21.354  0.00  0.00    +0.000 C 
BRANCH  17  20
ATOM     20  C   UNL     1       1.375  16.029  19.033  0.00  0.00    +0.000 A 
ATOM     21  C   UNL     1       2.629  15.430  18.775  0.00  0.00    +0.000 A 
ATOM     22  C   UNL     1       3.494  15.887  17.778  0.00  0.00    +0.000 A 
ATOM     23 CL   UNL     1       5.026  15.133  17.558  0.00  0.00    +0.000 Cl
ATOM     24  C   UNL     1       3.130  16.946  16.969  0.00  0.00    +0.000 A 
ATOM     25  C   UNL     1       1.894  17.548  17.172  0.00  0.00    +0.000 A 
ATOM     26  C   UNL     1       1.020  17.121  18.201  0.00  0.00    +0.000 A 
ATOM     27  C   UNL     1      -0.239  17.936  18.351  0.00  0.00    +0.000 C 
ENDBRANCH  17  20
ENDBRANCH   2  12
BRANCH   1  32
ATOM     28  C   UNL     1       0.084   9.645  21.182  0.00  0.00    +0.000 C 
ATOM     29  C   UNL     1      -0.838  10.731  21.653  0.00  0.00    +0.000 A 
ATOM     30  C   UNL     1      -1.358  11.682  20.765  0.00  0.00    +0.000 A 
ATOM     31  C   UNL     1      -2.217  12.689  21.223  0.00  0.00    +0.000 A 
ATOM     32  C   UNL     1      -2.561  12.758  22.578  0.00  0.00    +0.000 A 
ATOM     33  C   UNL     1      -2.031  11.813  23.466  0.00  0.00    +0.000 A 
ATOM     34  C   UNL     1      -1.182  10.805  23.007  0.00  0.00    +0.000 A 
ENDBRANCH   1  32
TORSDOF 3
ENDMDL
MODEL 9
REMARK VINA RESULT:      -6.9      6.059      8.287
REMARK  Name = 
REMARK  5 active torsions:
REMARK  status: ('A' for Active; 'I' for Inactive)
REMARK    1  A    between atoms: C_1  and  C_2
REMARK    2  A    between atoms: C_5  and  C_6
REMARK    3  A    between atoms: C_7  and  C_8
REMARK    4  A    between atoms: N_13  and  C_14
REMARK    5  A    between atoms: C_20  and  C_21
REMARK                            x       y       z     vdW  Elec       q    Type
REMARK                         _______ _______ _______ _____ _____    ______ ____
ROOT
ATOM      1  C   UNL     1       3.664  16.349  20.496  0.00  0.00    +0.000 A 
ATOM      2  C   UNL     1       4.348  17.062  19.568  0.00  0.00    +0.000 A 
ATOM      3  O   UNL     1       3.787  17.361  18.298  0.00  0.00    +0.000 OA
ATOM      4  C   UNL     1       2.511  17.100  17.940  0.00  0.00    +0.000 A 
ATOM      5  O   UNL     1       2.035  17.507  16.889  0.00  0.00    +0.000 OA
ATOM      6  C   UNL     1       1.739  16.283  18.888  0.00  0.00    +0.000 A 
ATOM      7  C   UNL     1       0.451  15.866  18.515  0.00  0.00    +0.000 A 
ATOM      8  C   UNL     1      -0.304  15.069  19.374  0.00  0.00    +0.000 A 
ATOM      9  C   UNL     1       0.224  14.704  20.607  0.00  0.00    +0.000 A 
ATOM     10  C   UNL     1       1.505  15.130  20.981  0.00  0.00    +0.000 A 
ATOM     11  C   UNL     1       2.289  15.923  20.120  0.00  0.00    +0.000 A 
ENDROOT
BRANCH   2  12
ATOM     12  C   UNL     1       5.791  17.501  19.730  0.00  0.00    +0.000 C 
ATOM     13  O   UNL     1       6.065  18.588  20.237  0.00  0.00    +0.000 OA
ATOM     14  N   UNL     1       6.798  16.607  19.396  0.00  0.00    +0.000 N 
ATOM     15  C   UNL     1       8.166  16.885  19.855  0.00  0.00    +0.000 C 
ATOM     16  C   UNL     1       8.782  15.672  20.588  0.00  0.00    +0.000 C 
ATOM     17  N   UNL     1       8.645  14.450  19.759  0.00  0.00    +0.000 N 
ATOM     18  C   UNL     1       7.249  14.174  19.371  0.00  0.00    +0.000 C 
ATOM     19  C   UNL     1       6.700  15.381  18.581  0.00  0.00    +0.000 C 
BRANCH  17  20
ATOM     20  C   UNL     1       9.742  13.669  19.435  0.00  0.00    +0.000 A 
ATOM     21  C   UNL     1      10.381  13.874  18.191  0.00  0.00    +0.000 A 
ATOM     22  C   UNL     1      11.458  13.098  17.757  0.00  0.00    +0.000 A 
ATOM     23 CL   UNL     1      12.151  13.380  16.206  0.00  0.00    +0.000 Cl
ATOM     24  C   UNL     1      11.970  12.100  18.565  0.00  0.00    +0.000 A 
ATOM     25  C   UNL     1      11.387  11.881  19.807  0.00  0.00    +0.000 A 
ATOM     26  C   UNL     1      10.272  12.635  20.247  0.00  0.00    +0.000 A 
ATOM     27  C   UNL     1       9.700  12.213  21.577  0.00  0.00    +0.000 C 
ENDBRANCH  17  20
ENDBRANCH   2  12
BRANCH   1  32
ATOM     28  C   UNL     1       6.194  14.940  25.522  0.00  0.00    +0.000 C 
ATOM     29  C   UNL     1       5.537  15.277  24.216  0.00  0.00    +0.000 A 
ATOM     30  C   UNL     1       5.569  14.388  23.132  0.00  0.00    +0.000 A 
ATOM     31  C   UNL     1       4.950  14.720  21.922  0.00  0.00    +0.000 A 
ATOM     32  C   UNL     1       4.295  15.949  21.779  0.00  0.00    +0.000 A 
ATOM     33  C   UNL     1       4.274  16.841  22.860  0.00  0.00    +0.000 A 
ATOM     34  C   UNL     1       4.884  16.505  24.069  0.00  0.00    +0.000 A 
ENDBRANCH   1  32
TORSDOF 3
ENDMDL
