MODEL 1
REMARK VINA RESULT:      -9.8      0.000      0.000
REMARK  Name = 
REMARK  4 active torsions:
REMARK  status: ('A' for Active; 'I' for Inactive)
REMARK    1  A    between atoms: C_1  and  C_2
REMARK    2  A    between atoms: C_2  and  C_3
REMARK    3  A    between atoms: C_12  and  C_13
REMARK    4  A    between atoms: C_13  and  C_14
REMARK                            x       y       z     vdW  Elec       q    Type
REMARK                         _______ _______ _______ _____ _____    ______ ____
ROOT
ATOM      1  C   UNL     1       4.966   4.001  17.721  0.00  0.00    +0.000 C 
ATOM      2  C   UNL     1       3.510   4.020  18.195  0.00  0.00    +0.000 C 
ATOM      3  C   UNL     1       2.630   3.279  17.180  0.00  0.00    +0.000 C 
ATOM      4  C   UNL     1       3.348   3.334  19.565  0.00  0.00    +0.000 C 
ATOM      5  O   UNL     1       3.685   2.202  19.871  0.00  0.00    +0.000 OA
ATOM      6  N   UNL     1       2.697   4.225  20.428  0.00  0.00    +0.000 N 
ATOM      7  C   UNL     1       2.521   5.471  19.841  0.00  0.00    +0.000 A 
ATOM      8  N   UNL     1       1.993   6.566  20.443  0.00  0.00    +0.000 NA
ATOM      9  C   UNL     1       1.977   7.662  19.635  0.00  0.00    +0.000 A 
ATOM     10  N   UNL     1       1.344   8.923  20.008  0.00  0.00    +0.000 N 
ATOM     11  N   UNL     1       1.283   9.901  19.046  0.00  0.00    +0.000 NA
ATOM     12  C   UNL     1       0.284  10.700  19.417  0.00  0.00    +0.000 A 
ATOM     13  C   UNL     1      -0.139  10.421  20.731  0.00  0.00    +0.000 A 
ATOM     14  C   UNL     1      -1.088  11.015  21.582  0.00  0.00    +0.000 A 
ATOM     15  C   UNL     1      -1.038  10.699  22.935  0.00  0.00    +0.000 A 
ATOM     16  F   UNL     1      -1.862  11.335  23.772  0.00  0.00    +0.000 F 
ATOM     17  C   UNL     1      -0.107   9.790  23.413  0.00  0.00    +0.000 A 
ATOM     18  C   UNL     1       0.746   9.066  22.547  0.00  0.00    +0.000 A 
ATOM     19  C   UNL     1       0.702   9.384  21.175  0.00  0.00    +0.000 A 
ATOM     20  N   UNL     1       2.476   7.630  18.352  0.00  0.00    +0.000 NA
ATOM     21  N   UNL     1       2.992   6.486  17.782  0.00  0.00    +0.000 NA
ATOM     22  C   UNL     1       2.998   5.402  18.543  0.00  0.00    +0.000 A 
ATOM     23  H   UNL     1       2.448   4.009  21.381  0.00  0.00    +0.000 HD
ENDROOT
BRANCH  12  24
ATOM     24  C   UNL     1      -0.198  11.789  18.515  0.00  0.00    +0.000 C 
BRANCH  24  25
ATOM     25  C   UNL     1      -1.572  11.344  18.098  0.00  0.00    +0.000 A 
ATOM     26  C   UNL     1      -1.725  10.227  17.262  0.00  0.00    +0.000 A 
ATOM     27  C   UNL     1      -2.992   9.710  17.005  0.00  0.00    +0.000 A 
ATOM     28  C   UNL     1      -4.118  10.306  17.572  0.00  0.00    +0.000 A 
ATOM     29  C   UNL     1      -3.980  11.434  18.381  0.00  0.00    +0.000 A 
ATOM     30  C   UNL     1      -2.713  11.946  18.633  0.00  0.00    +0.000 A 
ATOM     31  F   UNL     1      -2.591  13.011  19.439  0.00  0.00    +0.000 F 
ENDBRANCH  24  25
ENDBRANCH  12  24
TORSDOF 2
ENDMDL
MODEL 2
REMARK VINA RESULT:      -9.7      4.212      8.668
REMARK  Name = 
REMARK  4 active torsions:
REMARK  status: ('A' for Active; 'I' for Inactive)
REMARK    1  A    between atoms: C_1  and  C_2
REMARK    2  A    between atoms: C_2  and  C_3
REMARK    3  A    between atoms: C_12  and  C_13
REMARK    4  A    between atoms: C_13  and  C_14
REMARK                            x       y       z     vdW  Elec       q    Type
REMARK                         _______ _______ _______ _____ _____    ______ ____
ROOT
ATOM      1  C   UNL     1       0.879  10.835  21.193  0.00  0.00    +0.000 C 
ATOM      2  C   UNL     1       0.559  10.208  19.833  0.00  0.00    +0.000 C 
ATOM      3  C   UNL     1      -0.944   9.914  19.743  0.00  0.00    +0.000 C 
ATOM      4  C   UNL     1       0.937  11.146  18.671  0.00  0.00    +0.000 C 
ATOM      5  O   UNL     1       0.570  12.295  18.497  0.00  0.00    +0.000 OA
ATOM      6  N   UNL     1       1.769  10.440  17.790  0.00  0.00    +0.000 N 
ATOM      7  C   UNL     1       2.098   9.187  18.289  0.00  0.00    +0.000 A 
ATOM      8  N   UNL     1       2.944   8.298  17.710  0.00  0.00    +0.000 NA
ATOM      9  C   UNL     1       3.107   7.162  18.445  0.00  0.00    +0.000 A 
ATOM     10  N   UNL     1       3.863   6.007  17.975  0.00  0.00    +0.000 N 
ATOM     11  N   UNL     1       3.833   4.880  18.758  0.00  0.00    +0.000 NA
ATOM     12  C   UNL     1       4.138   3.873  17.941  0.00  0.00    +0.000 A 
ATOM     13  C   UNL     1       4.622   4.341  16.704  0.00  0.00    +0.000 A 
ATOM     14  C   UNL     1       5.128   3.694  15.563  0.00  0.00    +0.000 A 
ATOM     15  C   UNL     1       5.821   4.460  14.633  0.00  0.00    +0.000 A 
ATOM     16  F   UNL     1       6.400   3.845  13.598  0.00  0.00    +0.000 F 
ATOM     17  C   UNL     1       5.963   5.829  14.811  0.00  0.00    +0.000 A 
ATOM     18  C   UNL     1       5.324   6.516  15.869  0.00  0.00    +0.000 A 
ATOM     19  C   UNL     1       4.623   5.744  16.817  0.00  0.00    +0.000 A 
ATOM     20  N   UNL     1       2.479   6.982  19.657  0.00  0.00    +0.000 NA
ATOM     21  N   UNL     1       1.619   7.913  20.197  0.00  0.00    +0.000 NA
ATOM     22  C   UNL     1       1.428   9.017  19.489  0.00  0.00    +0.000 A 
ATOM     23  H   UNL     1       2.136  10.821  16.932  0.00  0.00    +0.000 HD
ENDROOT
BRANCH  12  24
ATOM     24  C   UNL     1       4.033   2.456  18.402  0.00  0.00    +0.000 C 
BRANCH  24  25
ATOM     25  C   UNL     1       2.988   2.494  19.482  0.00  0.00    +0.000 A 
ATOM     26  C   UNL     1       3.373   2.479  20.832  0.00  0.00    +0.000 A 
ATOM     27  C   UNL     1       2.427   2.679  21.834  0.00  0.00    +0.000 A 
ATOM     28  C   UNL     1       1.090   2.888  21.501  0.00  0.00    +0.000 A 
ATOM     29  C   UNL     1       0.692   2.876  20.164  0.00  0.00    +0.000 A 
ATOM     30  C   UNL     1       1.639   2.675  19.168  0.00  0.00    +0.000 A 
ATOM     31  F   UNL     1       1.250   2.698  17.885  0.00  0.00    +0.000 F 
ENDBRANCH  24  25
ENDBRANCH  12  24
TORSDOF 2
ENDMDL
MODEL 3
REMARK VINA RESULT:      -9.7      0.885      1.246
REMARK  Name = 
REMARK  4 active torsions:
REMARK  status: ('A' for Active; 'I' for Inactive)
REMARK    1  A    between atoms: C_1  and  C_2
REMARK    2  A    between atoms: C_2  and  C_3
REMARK    3  A    between atoms: C_12  and  C_13
REMARK    4  A    between atoms: C_13  and  C_14
REMARK                            x       y       z     vdW  Elec       q    Type
REMARK                         _______ _______ _______ _____ _____    ______ ____
ROOT
ATOM      1  C   UNL     1       5.153   4.048  17.588  0.00  0.00    +0.000 C 
ATOM      2  C   UNL     1       3.712   4.014  18.105  0.00  0.00    +0.000 C 
ATOM      3  C   UNL     1       2.834   3.225  17.125  0.00  0.00    +0.000 C 
ATOM      4  C   UNL     1       3.617   3.340  19.486  0.00  0.00    +0.000 C 
ATOM      5  O   UNL     1       4.009   2.227  19.796  0.00  0.00    +0.000 OA
ATOM      6  N   UNL     1       2.955   4.215  20.358  0.00  0.00    +0.000 N 
ATOM      7  C   UNL     1       2.712   5.445  19.762  0.00  0.00    +0.000 A 
ATOM      8  N   UNL     1       2.157   6.525  20.366  0.00  0.00    +0.000 NA
ATOM      9  C   UNL     1       2.073   7.610  19.545  0.00  0.00    +0.000 A 
ATOM     10  N   UNL     1       1.400   8.848  19.922  0.00  0.00    +0.000 N 
ATOM     11  N   UNL     1       1.272   9.810  18.951  0.00  0.00    +0.000 NA
ATOM     12  C   UNL     1       0.252  10.573  19.341  0.00  0.00    +0.000 A 
ATOM     13  C   UNL     1      -0.121  10.294  20.671  0.00  0.00    +0.000 A 
ATOM     14  C   UNL     1      -1.069  10.861  21.541  0.00  0.00    +0.000 A 
ATOM     15  C   UNL     1      -0.968  10.565  22.896  0.00  0.00    +0.000 A 
ATOM     16  F   UNL     1      -1.793  11.178  23.750  0.00  0.00    +0.000 F 
ATOM     17  C   UNL     1       0.013   9.700  23.358  0.00  0.00    +0.000 A 
ATOM     18  C   UNL     1       0.869   9.000  22.476  0.00  0.00    +0.000 A 
ATOM     19  C   UNL     1       0.774   9.298  21.102  0.00  0.00    +0.000 A 
ATOM     20  N   UNL     1       2.536   7.581  18.249  0.00  0.00    +0.000 NA
ATOM     21  N   UNL     1       3.082   6.452  17.678  0.00  0.00    +0.000 NA
ATOM     22  C   UNL     1       3.154   5.378  18.451  0.00  0.00    +0.000 A 
ATOM     23  H   UNL     1       2.742   4.002  21.320  0.00  0.00    +0.000 HD
ENDROOT
BRANCH  12  24
ATOM     24  C   UNL     1      -0.299  11.630  18.442  0.00  0.00    +0.000 C 
BRANCH  24  25
ATOM     25  C   UNL     1      -1.732  11.227  18.232  0.00  0.00    +0.000 A 
ATOM     26  C   UNL     1      -2.768  12.014  18.759  0.00  0.00    +0.000 A 
ATOM     27  C   UNL     1      -4.094  11.741  18.433  0.00  0.00    +0.000 A 
ATOM     28  C   UNL     1      -4.399  10.678  17.584  0.00  0.00    +0.000 A 
ATOM     29  C   UNL     1      -3.380   9.871  17.078  0.00  0.00    +0.000 A 
ATOM     30  C   UNL     1      -2.059  10.148  17.408  0.00  0.00    +0.000 A 
ATOM     31  F   UNL     1      -1.085   9.385  16.888  0.00  0.00    +0.000 F 
ENDBRANCH  24  25
ENDBRANCH  12  24
TORSDOF 2
ENDMDL
MODEL 4
REMARK VINA RESULT:      -9.4      4.387      8.345
REMARK  Name = 
REMARK  4 active torsions:
REMARK  status: ('A' for Active; 'I' for Inactive)
REMARK    1  A    between atoms: C_1  and  C_2
REMARK    2  A    between atoms: C_2  and  C_3
REMARK    3  A    between atoms: C_12  and  C_13
REMARK    4  A    between atoms: C_13  and  C_14
REMARK                            x       y       z     vdW  Elec       q    Type
REMARK                         _______ _______ _______ _____ _____    ______ ____
ROOT
ATOM      1  C   UNL     1       0.139  13.308  18.726  0.00  0.00    +0.000 C 
ATOM      2  C   UNL     1       1.023  12.571  19.737  0.00  0.00    +0.000 C 
ATOM      3  C   UNL     1       2.231  13.446  20.095  0.00  0.00    +0.000 C 
ATOM      4  C   UNL     1       0.258  12.250  21.035  0.00  0.00    +0.000 C 
ATOM      5  O   UNL     1      -0.333  13.032  21.760  0.00  0.00    +0.000 OA
ATOM      6  N   UNL     1       0.380  10.876  21.287  0.00  0.00    +0.000 N 
ATOM      7  C   UNL     1       1.023  10.219  20.247  0.00  0.00    +0.000 A 
ATOM      8  N   UNL     1       1.225   8.881  20.157  0.00  0.00    +0.000 NA
ATOM      9  C   UNL     1       1.852   8.513  19.004  0.00  0.00    +0.000 A 
ATOM     10  N   UNL     1       2.295   7.150  18.734  0.00  0.00    +0.000 N 
ATOM     11  N   UNL     1       3.033   6.947  17.594  0.00  0.00    +0.000 NA
ATOM     12  C   UNL     1       3.711   5.821  17.807  0.00  0.00    +0.000 A 
ATOM     13  C   UNL     1       3.238   5.143  18.948  0.00  0.00    +0.000 A 
ATOM     14  C   UNL     1       3.568   3.909  19.538  0.00  0.00    +0.000 A 
ATOM     15  C   UNL     1       2.691   3.383  20.479  0.00  0.00    +0.000 A 
ATOM     16  F   UNL     1       2.934   2.164  20.971  0.00  0.00    +0.000 F 
ATOM     17  C   UNL     1       1.552   4.081  20.852  0.00  0.00    +0.000 A 
ATOM     18  C   UNL     1       1.292   5.391  20.386  0.00  0.00    +0.000 A 
ATOM     19  C   UNL     1       2.176   5.929  19.429  0.00  0.00    +0.000 A 
ATOM     20  N   UNL     1       2.207   9.432  18.042  0.00  0.00    +0.000 NA
ATOM     21  N   UNL     1       1.989  10.785  18.188  0.00  0.00    +0.000 NA
ATOM     22  C   UNL     1       1.399  11.168  19.311  0.00  0.00    +0.000 A 
ATOM     23  H   UNL     1      -0.010  10.413  22.093  0.00  0.00    +0.000 HD
ENDROOT
BRANCH  12  24
ATOM     24  C   UNL     1       4.764   5.369  16.849  0.00  0.00    +0.000 C 
BRANCH  24  25
ATOM     25  C   UNL     1       6.031   5.985  17.372  0.00  0.00    +0.000 A 
ATOM     26  C   UNL     1       6.398   7.281  16.977  0.00  0.00    +0.000 A 
ATOM     27  C   UNL     1       7.477   7.920  17.581  0.00  0.00    +0.000 A 
ATOM     28  C   UNL     1       8.205   7.271  18.577  0.00  0.00    +0.000 A 
ATOM     29  C   UNL     1       7.869   5.972  18.956  0.00  0.00    +0.000 A 
ATOM     30  C   UNL     1       6.791   5.338  18.350  0.00  0.00    +0.000 A 
ATOM     31  F   UNL     1       6.456   4.102  18.747  0.00  0.00    +0.000 F 
ENDBRANCH  24  25
ENDBRANCH  12  24
TORSDOF 2
ENDMDL
MODEL 5
REMARK VINA RESULT:      -9.3      4.323      8.794
REMARK  Name = 
REMARK  4 active torsions:
REMARK  status: ('A' for Active; 'I' for Inactive)
REMARK    1  A    between atoms: C_1  and  C_2
REMARK    2  A    between atoms: C_2  and  C_3
REMARK    3  A    between atoms: C_12  and  C_13
REMARK    4  A    between atoms: C_13  and  C_14
REMARK                            x       y       z     vdW  Elec       q    Type
REMARK                         _______ _______ _______ _____ _____    ______ ____
ROOT
ATOM      1  C   UNL     1       0.817  11.103  20.987  0.00  0.00    +0.000 C 
ATOM      2  C   UNL     1       0.569  10.528  19.589  0.00  0.00    +0.000 C 
ATOM      3  C   UNL     1      -0.936  10.321  19.378  0.00  0.00    +0.000 C 
ATOM      4  C   UNL     1       1.085  11.472  18.486  0.00  0.00    +0.000 C 
ATOM      5  O   UNL     1       0.794  12.644  18.318  0.00  0.00    +0.000 OA
ATOM      6  N   UNL     1       1.942  10.744  17.650  0.00  0.00    +0.000 N 
ATOM      7  C   UNL     1       2.165   9.462  18.136  0.00  0.00    +0.000 A 
ATOM      8  N   UNL     1       3.003   8.542  17.596  0.00  0.00    +0.000 NA
ATOM      9  C   UNL     1       3.049   7.381  18.308  0.00  0.00    +0.000 A 
ATOM     10  N   UNL     1       3.776   6.197  17.862  0.00  0.00    +0.000 N 
ATOM     11  N   UNL     1       3.626   5.055  18.609  0.00  0.00    +0.000 NA
ATOM     12  C   UNL     1       3.938   4.053  17.788  0.00  0.00    +0.000 A 
ATOM     13  C   UNL     1       4.540   4.525  16.605  0.00  0.00    +0.000 A 
ATOM     14  C   UNL     1       5.096   3.878  15.486  0.00  0.00    +0.000 A 
ATOM     15  C   UNL     1       5.898   4.628  14.633  0.00  0.00    +0.000 A 
ATOM     16  F   UNL     1       6.520   4.007  13.627  0.00  0.00    +0.000 F 
ATOM     17  C   UNL     1       6.099   5.981  14.861  0.00  0.00    +0.000 A 
ATOM     18  C   UNL     1       5.419   6.676  15.888  0.00  0.00    +0.000 A 
ATOM     19  C   UNL     1       4.607   5.921  16.758  0.00  0.00    +0.000 A 
ATOM     20  N   UNL     1       2.322   7.206  19.464  0.00  0.00    +0.000 NA
ATOM     21  N   UNL     1       1.474   8.170  19.965  0.00  0.00    +0.000 NA
ATOM     22  C   UNL     1       1.397   9.300  19.277  0.00  0.00    +0.000 A 
ATOM     23  H   UNL     1       2.394  11.125  16.833  0.00  0.00    +0.000 HD
ENDROOT
BRANCH  12  24
ATOM     24  C   UNL     1       3.723   2.633  18.198  0.00  0.00    +0.000 C 
BRANCH  24  25
ATOM     25  C   UNL     1       2.876   2.730  19.437  0.00  0.00    +0.000 A 
ATOM     26  C   UNL     1       1.504   3.010  19.330  0.00  0.00    +0.000 A 
ATOM     27  C   UNL     1       0.684   2.939  20.452  0.00  0.00    +0.000 A 
ATOM     28  C   UNL     1       1.223   2.597  21.692  0.00  0.00    +0.000 A 
ATOM     29  C   UNL     1       2.589   2.346  21.815  0.00  0.00    +0.000 A 
ATOM     30  C   UNL     1       3.404   2.419  20.692  0.00  0.00    +0.000 A 
ATOM     31  F   UNL     1       4.711   2.143  20.816  0.00  0.00    +0.000 F 
ENDBRANCH  24  25
ENDBRANCH  12  24
TORSDOF 2
ENDMDL
MODEL 6
REMARK VINA RESULT:      -9.2      4.032      8.222
REMARK  Name = 
REMARK  4 active torsions:
REMARK  status: ('A' for Active; 'I' for Inactive)
REMARK    1  A    between atoms: C_1  and  C_2
REMARK    2  A    between atoms: C_2  and  C_3
REMARK    3  A    between atoms: C_12  and  C_13
REMARK    4  A    between atoms: C_13  and  C_14
REMARK                            x       y       z     vdW  Elec       q    Type
REMARK                         _______ _______ _______ _____ _____    ______ ____
ROOT
ATOM      1  C   UNL     1      -0.211  12.661  18.486  0.00  0.00    +0.000 C 
ATOM      2  C   UNL     1       0.616  12.027  19.609  0.00  0.00    +0.000 C 
ATOM      3  C   UNL     1       1.740  12.985  20.022  0.00  0.00    +0.000 C 
ATOM      4  C   UNL     1      -0.245  11.729  20.851  0.00  0.00    +0.000 C 
ATOM      5  O   UNL     1      -0.938  12.513  21.477  0.00  0.00    +0.000 OA
ATOM      6  N   UNL     1      -0.076  10.379  21.189  0.00  0.00    +0.000 N 
ATOM      7  C   UNL     1       0.691   9.707  20.246  0.00  0.00    +0.000 A 
ATOM      8  N   UNL     1       0.969   8.379  20.248  0.00  0.00    +0.000 NA
ATOM      9  C   UNL     1       1.715   7.990  19.177  0.00  0.00    +0.000 A 
ATOM     10  N   UNL     1       2.250   6.641  19.022  0.00  0.00    +0.000 N 
ATOM     11  N   UNL     1       3.096   6.423  17.963  0.00  0.00    +0.000 NA
ATOM     12  C   UNL     1       3.810   5.349  18.297  0.00  0.00    +0.000 A 
ATOM     13  C   UNL     1       3.272   4.704  19.428  0.00  0.00    +0.000 A 
ATOM     14  C   UNL     1       3.611   3.523  20.112  0.00  0.00    +0.000 A 
ATOM     15  C   UNL     1       2.681   2.996  21.001  0.00  0.00    +0.000 A 
ATOM     16  F   UNL     1       2.941   1.819  21.579  0.00  0.00    +0.000 F 
ATOM     17  C   UNL     1       1.479   3.647  21.234  0.00  0.00    +0.000 A 
ATOM     18  C   UNL     1       1.195   4.915  20.675  0.00  0.00    +0.000 A 
ATOM     19  C   UNL     1       2.132   5.453  19.770  0.00  0.00    +0.000 A 
ATOM     20  N   UNL     1       2.107   8.878  18.200  0.00  0.00    +0.000 NA
ATOM     21  N   UNL     1       1.807  10.222  18.251  0.00  0.00    +0.000 NA
ATOM     22  C   UNL     1       1.100  10.627  19.296  0.00  0.00    +0.000 A 
ATOM     23  H   UNL     1      -0.513   9.936  21.982  0.00  0.00    +0.000 HD
ENDROOT
BRANCH  12  24
ATOM     24  C   UNL     1       4.966   4.909  17.460  0.00  0.00    +0.000 C 
BRANCH  24  25
ATOM     25  C   UNL     1       6.092   5.813  17.878  0.00  0.00    +0.000 A 
ATOM     26  C   UNL     1       6.933   5.443  18.939  0.00  0.00    +0.000 A 
ATOM     27  C   UNL     1       8.072   6.191  19.226  0.00  0.00    +0.000 A 
ATOM     28  C   UNL     1       8.379   7.318  18.463  0.00  0.00    +0.000 A 
ATOM     29  C   UNL     1       7.534   7.711  17.426  0.00  0.00    +0.000 A 
ATOM     30  C   UNL     1       6.398   6.962  17.144  0.00  0.00    +0.000 A 
ATOM     31  F   UNL     1       5.611   7.331  16.123  0.00  0.00    +0.000 F 
ENDBRANCH  24  25
ENDBRANCH  12  24
TORSDOF 2
ENDMDL
MODEL 7
REMARK VINA RESULT:      -9.0      1.511      2.671
REMARK  Name = 
REMARK  4 active torsions:
REMARK  status: ('A' for Active; 'I' for Inactive)
REMARK    1  A    between atoms: C_1  and  C_2
REMARK    2  A    between atoms: C_2  and  C_3
REMARK    3  A    between atoms: C_12  and  C_13
REMARK    4  A    between atoms: C_13  and  C_14
REMARK                            x       y       z     vdW  Elec       q    Type
REMARK                         _______ _______ _______ _____ _____    ______ ____
ROOT
ATOM      1  C   UNL     1       4.932   4.006  17.914  0.00  0.00    +0.000 C 
ATOM      2  C   UNL     1       3.461   4.052  18.338  0.00  0.00    +0.000 C 
ATOM      3  C   UNL     1       2.607   3.297  17.311  0.00  0.00    +0.000 C 
ATOM      4  C   UNL     1       3.244   3.400  19.717  0.00  0.00    +0.000 C 
ATOM      5  O   UNL     1       3.558   2.273  20.060  0.00  0.00    +0.000 OA
ATOM      6  N   UNL     1       2.575   4.319  20.536  0.00  0.00    +0.000 N 
ATOM      7  C   UNL     1       2.433   5.552  19.914  0.00  0.00    +0.000 A 
ATOM      8  N   UNL     1       1.898   6.667  20.473  0.00  0.00    +0.000 NA
ATOM      9  C   UNL     1       1.922   7.744  19.638  0.00  0.00    +0.000 A 
ATOM     10  N   UNL     1       1.291   9.019  19.960  0.00  0.00    +0.000 N 
ATOM     11  N   UNL     1       1.275   9.975  18.975  0.00  0.00    +0.000 NA
ATOM     12  C   UNL     1       0.273  10.793  19.292  0.00  0.00    +0.000 A 
ATOM     13  C   UNL     1      -0.198  10.550  20.597  0.00  0.00    +0.000 A 
ATOM     14  C   UNL     1      -1.168  11.175  21.400  0.00  0.00    +0.000 A 
ATOM     15  C   UNL     1      -1.169  10.890  22.761  0.00  0.00    +0.000 A 
ATOM     16  F   UNL     1      -2.013  11.555  23.555  0.00  0.00    +0.000 F 
ATOM     17  C   UNL     1      -0.265   9.982  23.292  0.00  0.00    +0.000 A 
ATOM     18  C   UNL     1       0.608   9.229  22.474  0.00  0.00    +0.000 A 
ATOM     19  C   UNL     1       0.616   9.515  21.094  0.00  0.00    +0.000 A 
ATOM     20  N   UNL     1       2.464   7.675  18.375  0.00  0.00    +0.000 NA
ATOM     21  N   UNL     1       2.986   6.513  17.850  0.00  0.00    +0.000 NA
ATOM     22  C   UNL     1       2.953   5.447  18.636  0.00  0.00    +0.000 A 
ATOM     23  H   UNL     1       2.290   4.128  21.485  0.00  0.00    +0.000 HD
ENDROOT
BRANCH  12  24
ATOM     24  C   UNL     1      -0.165  11.866  18.349  0.00  0.00    +0.000 C 
BRANCH  24  25
ATOM     25  C   UNL     1       0.694  13.047  18.706  0.00  0.00    +0.000 A 
ATOM     26  C   UNL     1       2.027  13.104  18.267  0.00  0.00    +0.000 A 
ATOM     27  C   UNL     1       2.777  14.262  18.452  0.00  0.00    +0.000 A 
ATOM     28  C   UNL     1       2.211  15.369  19.082  0.00  0.00    +0.000 A 
ATOM     29  C   UNL     1       0.898  15.313  19.549  0.00  0.00    +0.000 A 
ATOM     30  C   UNL     1       0.153  14.154  19.362  0.00  0.00    +0.000 A 
ATOM     31  F   UNL     1      -1.119  14.124  19.786  0.00  0.00    +0.000 F 
ENDBRANCH  24  25
ENDBRANCH  12  24
TORSDOF 2
ENDMDL
MODEL 8
REMARK VINA RESULT:      -8.8      1.863      3.070
REMARK  Name = 
REMARK  4 active torsions:
REMARK  status: ('A' for Active; 'I' for Inactive)
REMARK    1  A    between atoms: C_1  and  C_2
REMARK    2  A    between atoms: C_2  and  C_3
REMARK    3  A    between atoms: C_12  and  C_13
REMARK    4  A    between atoms: C_13  and  C_14
REMARK                            x       y       z     vdW  Elec       q    Type
REMARK                         _______ _______ _______ _____ _____    ______ ____
ROOT
ATOM      1  C   UNL     1       4.884   4.013  17.936  0.00  0.00    +0.000 C 
ATOM      2  C   UNL     1       3.401   4.086  18.313  0.00  0.00    +0.000 C 
ATOM      3  C   UNL     1       2.562   3.390  17.233  0.00  0.00    +0.000 C 
ATOM      4  C   UNL     1       3.121   3.396  19.661  0.00  0.00    +0.000 C 
ATOM      5  O   UNL     1       3.392   2.249  19.976  0.00  0.00    +0.000 OA
ATOM      6  N   UNL     1       2.450   4.305  20.489  0.00  0.00    +0.000 N 
ATOM      7  C   UNL     1       2.362   5.562  19.906  0.00  0.00    +0.000 A 
ATOM      8  N   UNL     1       1.839   6.672  20.484  0.00  0.00    +0.000 NA
ATOM      9  C   UNL     1       1.920   7.775  19.688  0.00  0.00    +0.000 A 
ATOM     10  N   UNL     1       1.313   9.057  20.033  0.00  0.00    +0.000 N 
ATOM     11  N   UNL     1       1.356  10.044  19.081  0.00  0.00    +0.000 NA
ATOM     12  C   UNL     1       0.367  10.880  19.393  0.00  0.00    +0.000 A 
ATOM     13  C   UNL     1      -0.154  10.606  20.673  0.00  0.00    +0.000 A 
ATOM     14  C   UNL     1      -1.134  11.231  21.465  0.00  0.00    +0.000 A 
ATOM     15  C   UNL     1      -1.187  10.902  22.815  0.00  0.00    +0.000 A 
ATOM     16  F   UNL     1      -2.039  11.563  23.603  0.00  0.00    +0.000 F 
ATOM     17  C   UNL     1      -0.327   9.951  23.344  0.00  0.00    +0.000 A 
ATOM     18  C   UNL     1       0.553   9.202  22.529  0.00  0.00    +0.000 A 
ATOM     19  C   UNL     1       0.614   9.533  21.160  0.00  0.00    +0.000 A 
ATOM     20  N   UNL     1       2.502   7.733  18.441  0.00  0.00    +0.000 NA
ATOM     21  N   UNL     1       3.009   6.575  17.894  0.00  0.00    +0.000 NA
ATOM     22  C   UNL     1       2.922   5.485  18.642  0.00  0.00    +0.000 A 
ATOM     23  H   UNL     1       2.129   4.091  21.421  0.00  0.00    +0.000 HD
ENDROOT
BRANCH  12  24
ATOM     24  C   UNL     1      -0.011  11.995  18.474  0.00  0.00    +0.000 C 
BRANCH  24  25
ATOM     25  C   UNL     1       0.869  13.138  18.897  0.00  0.00    +0.000 A 
ATOM     26  C   UNL     1       0.400  14.079  19.827  0.00  0.00    +0.000 A 
ATOM     27  C   UNL     1       1.261  15.042  20.348  0.00  0.00    +0.000 A 
ATOM     28  C   UNL     1       2.594  15.080  19.941  0.00  0.00    +0.000 A 
ATOM     29  C   UNL     1       3.063  14.169  18.995  0.00  0.00    +0.000 A 
ATOM     30  C   UNL     1       2.200  13.211  18.478  0.00  0.00    +0.000 A 
ATOM     31  F   UNL     1       2.671  12.319  17.594  0.00  0.00    +0.000 F 
ENDBRANCH  24  25
ENDBRANCH  12  24
TORSDOF 2
ENDMDL
MODEL 9
REMARK VINA RESULT:      -8.7      4.400      8.705
REMARK  Name = 
REMARK  4 active torsions:
REMARK  status: ('A' for Active; 'I' for Inactive)
REMARK    1  A    between atoms: C_1  and  C_2
REMARK    2  A    between atoms: C_2  and  C_3
REMARK    3  A    between atoms: C_12  and  C_13
REMARK    4  A    between atoms: C_13  and  C_14
REMARK                            x       y       z     vdW  Elec       q    Type
REMARK                         _______ _______ _______ _____ _____    ______ ____
ROOT
ATOM      1  C   UNL     1       0.131  12.525  20.363  0.00  0.00    +0.000 C 
ATOM      2  C   UNL     1       0.409  12.090  18.921  0.00  0.00    +0.000 C 
ATOM      3  C   UNL     1      -0.856  12.281  18.074  0.00  0.00    +0.000 C 
ATOM      4  C   UNL     1       1.544  12.916  18.286  0.00  0.00    +0.000 C 
ATOM      5  O   UNL     1       1.610  14.130  18.187  0.00  0.00    +0.000 OA
ATOM      6  N   UNL     1       2.507  12.028  17.786  0.00  0.00    +0.000 N 
ATOM      7  C   UNL     1       2.217  10.714  18.126  0.00  0.00    +0.000 A 
ATOM      8  N   UNL     1       2.992   9.634  17.856  0.00  0.00    +0.000 NA
ATOM      9  C   UNL     1       2.474   8.472  18.343  0.00  0.00    +0.000 A 
ATOM     10  N   UNL     1       3.055   7.161  18.071  0.00  0.00    +0.000 N 
ATOM     11  N   UNL     1       2.355   6.064  18.510  0.00  0.00    +0.000 NA
ATOM     12  C   UNL     1       2.778   5.051  17.756  0.00  0.00    +0.000 A 
ATOM     13  C   UNL     1       3.923   5.401  17.016  0.00  0.00    +0.000 A 
ATOM     14  C   UNL     1       4.765   4.681  16.149  0.00  0.00    +0.000 A 
ATOM     15  C   UNL     1       5.999   5.237  15.829  0.00  0.00    +0.000 A 
ATOM     16  F   UNL     1       6.854   4.520  15.095  0.00  0.00    +0.000 F 
ATOM     17  C   UNL     1       6.359   6.484  16.317  0.00  0.00    +0.000 A 
ATOM     18  C   UNL     1       5.459   7.287  17.056  0.00  0.00    +0.000 A 
ATOM     19  C   UNL     1       4.209   6.728  17.387  0.00  0.00    +0.000 A 
ATOM     20  N   UNL     1       1.294   8.440  19.051  0.00  0.00    +0.000 NA
ATOM     21  N   UNL     1       0.536   9.566  19.288  0.00  0.00    +0.000 NA
ATOM     22  C   UNL     1       1.010  10.705  18.805  0.00  0.00    +0.000 A 
ATOM     23  H   UNL     1       3.341  12.315  17.298  0.00  0.00    +0.000 HD
ENDROOT
BRANCH  12  24
ATOM     24  C   UNL     1       2.110   3.716  17.825  0.00  0.00    +0.000 C 
BRANCH  24  25
ATOM     25  C   UNL     1       2.182   3.341  19.279  0.00  0.00    +0.000 A 
ATOM     26  C   UNL     1       1.027   3.387  20.075  0.00  0.00    +0.000 A 
ATOM     27  C   UNL     1       1.049   2.887  21.375  0.00  0.00    +0.000 A 
ATOM     28  C   UNL     1       2.223   2.343  21.894  0.00  0.00    +0.000 A 
ATOM     29  C   UNL     1       3.384   2.319  21.123  0.00  0.00    +0.000 A 
ATOM     30  C   UNL     1       3.357   2.821  19.827  0.00  0.00    +0.000 A 
ATOM     31  F   UNL     1       4.472   2.762  19.083  0.00  0.00    +0.000 F 
ENDBRANCH  24  25
ENDBRANCH  12  24
TORSDOF 2
ENDMDL
