MODEL 1
REMARK VINA RESULT:      -8.2      0.000      0.000
REMARK  Name = 
REMARK  11 active torsions:
REMARK  status: ('A' for Active; 'I' for Inactive)
REMARK    1  A    between atoms: C_1  and  C_2
REMARK    2  A    between atoms: C_5  and  C_6
REMARK    3  A    between atoms: C_6  and  C_7
REMARK    4  A    between atoms: C_6  and  C_8
REMARK    5  A    between atoms: C_9  and  O_10
REMARK    6  A    between atoms: C_11  and  O_12
REMARK    7  A    between atoms: C_13  and  C_14
REMARK    8  A    between atoms: C_14  and  O_16
REMARK    9  A    between atoms: C_19  and  C_20
REMARK   10  A    between atoms: C_20  and  C_21
REMARK   11  A    between atoms: C_24  and  C_25
REMARK                            x       y       z     vdW  Elec       q    Type
REMARK                         _______ _______ _______ _____ _____    ______ ____
ROOT
ATOM      1  C   UNL     1       2.351  10.399  17.831  0.00  0.00    +0.000 C 
ATOM      2  C   UNL     1       2.318   8.960  18.263  0.00  0.00    +0.000 A 
ATOM      3  C   UNL     1       3.168   8.037  17.630  0.00  0.00    +0.000 A 
ATOM      4  C   UNL     1       3.349   6.687  18.044  0.00  0.00    +0.000 A 
ATOM      5  C   UNL     1       4.363   5.828  17.463  0.00  0.00    +0.000 A 
ATOM      6  C   UNL     1       4.507   4.556  18.028  0.00  0.00    +0.000 A 
ATOM      7  C   UNL     1       3.675   4.110  19.063  0.00  0.00    +0.000 A 
ATOM      8  C   UNL     1       2.661   4.896  19.615  0.00  0.00    +0.000 A 
ATOM      9  C   UNL     1       2.506   6.226  19.112  0.00  0.00    +0.000 A 
ATOM     10  C   UNL     1       1.584   7.159  19.666  0.00  0.00    +0.000 A 
ATOM     11  C   UNL     1       1.527   8.520  19.320  0.00  0.00    +0.000 A 
ENDROOT
BRANCH   5  12
ATOM     12  C   UNL     1       5.292   6.382  16.359  0.00  0.00    +0.000 C 
ATOM     13  C   UNL     1       6.653   6.797  16.934  0.00  0.00    +0.000 C 
ATOM     14  C   UNL     1       5.513   5.568  15.076  0.00  0.00    +0.000 C 
ENDBRANCH   5  12
BRANCH   6  15
ATOM     15  O   UNL     1       5.460   3.624  17.706  0.00  0.00    +0.000 OA
ATOM     16  H   UNL     1       5.702   3.105  18.480  0.00  0.00    +0.000 HD
ENDBRANCH   6  15
BRANCH   7  17
ATOM     17  O   UNL     1       3.938   2.837  19.540  0.00  0.00    +0.000 OA
ATOM     18  H   UNL     1       3.150   2.313  19.267  0.00  0.00    +0.000 HD
ENDBRANCH   7  17
BRANCH   8  19
ATOM     19  C   UNL     1       1.816   4.344  20.755  0.00  0.00    +0.000 C 
ATOM     20  O   UNL     1       2.213   4.155  21.885  0.00  0.00    +0.000 OA
BRANCH  19  21
ATOM     21  O   UNL     1       0.534   4.051  20.450  0.00  0.00    +0.000 OA
ATOM     22  H   UNL     1       0.145   4.660  19.784  0.00  0.00    +0.000 HD
ENDBRANCH  19  21
ENDBRANCH   8  19
BRANCH  11  23
ATOM     23  C   UNL     1       0.730   9.461  20.215  0.00  0.00    +0.000 C 
BRANCH  23  24
ATOM     24  C   UNL     1      -0.435  10.101  19.477  0.00  0.00    +0.000 A 
ATOM     25  C   UNL     1      -1.011  11.287  19.950  0.00  0.00    +0.000 A 
ATOM     26  C   UNL     1      -2.198  11.771  19.391  0.00  0.00    +0.000 A 
ATOM     27  C   UNL     1      -2.826  11.086  18.341  0.00  0.00    +0.000 A 
ATOM     28  C   UNL     1      -2.192   9.963  17.796  0.00  0.00    +0.000 A 
ATOM     29  C   UNL     1      -1.005   9.482  18.352  0.00  0.00    +0.000 A 
BRANCH  27  30
ATOM     30  C   UNL     1      -4.183  11.506  17.835  0.00  0.00    +0.000 C 
ATOM     31  F   UNL     1      -4.731  12.538  18.536  0.00  0.00    +0.000 F 
ATOM     32  F   UNL     1      -4.167  11.903  16.533  0.00  0.00    +0.000 F 
ATOM     33  F   UNL     1      -5.093  10.493  17.905  0.00  0.00    +0.000 F 
ENDBRANCH  27  30
ENDBRANCH  23  24
ENDBRANCH  11  23
TORSDOF 8
ENDMDL
MODEL 2
REMARK VINA RESULT:      -8.0      5.227      9.428
REMARK  Name = 
REMARK  11 active torsions:
REMARK  status: ('A' for Active; 'I' for Inactive)
REMARK    1  A    between atoms: C_1  and  C_2
REMARK    2  A    between atoms: C_5  and  C_6
REMARK    3  A    between atoms: C_6  and  C_7
REMARK    4  A    between atoms: C_6  and  C_8
REMARK    5  A    between atoms: C_9  and  O_10
REMARK    6  A    between atoms: C_11  and  O_12
REMARK    7  A    between atoms: C_13  and  C_14
REMARK    8  A    between atoms: C_14  and  O_16
REMARK    9  A    between atoms: C_19  and  C_20
REMARK   10  A    between atoms: C_20  and  C_21
REMARK   11  A    between atoms: C_24  and  C_25
REMARK                            x       y       z     vdW  Elec       q    Type
REMARK                         _______ _______ _______ _____ _____    ______ ____
ROOT
ATOM      1  C   UNL     1       0.427  12.181  21.403  0.00  0.00    +0.000 C 
ATOM      2  C   UNL     1      -0.625  11.832  20.387  0.00  0.00    +0.000 A 
ATOM      3  C   UNL     1      -1.957  12.212  20.626  0.00  0.00    +0.000 A 
ATOM      4  C   UNL     1      -3.016  12.083  19.684  0.00  0.00    +0.000 A 
ATOM      5  C   UNL     1      -4.332  12.646  19.917  0.00  0.00    +0.000 A 
ATOM      6  C   UNL     1      -5.255  12.541  18.869  0.00  0.00    +0.000 A 
ATOM      7  C   UNL     1      -4.944  11.873  17.677  0.00  0.00    +0.000 A 
ATOM      8  C   UNL     1      -3.700  11.284  17.438  0.00  0.00    +0.000 A 
ATOM      9  C   UNL     1      -2.702  11.409  18.455  0.00  0.00    +0.000 A 
ATOM     10  C   UNL     1      -1.365  10.948  18.285  0.00  0.00    +0.000 A 
ATOM     11  C   UNL     1      -0.315  11.210  19.183  0.00  0.00    +0.000 A 
ENDROOT
BRANCH   5  12
ATOM     12  C   UNL     1      -4.612  13.418  21.225  0.00  0.00    +0.000 C 
ATOM     13  C   UNL     1      -4.706  14.929  20.971  0.00  0.00    +0.000 C 
ATOM     14  C   UNL     1      -5.777  12.985  22.127  0.00  0.00    +0.000 C 
ENDBRANCH   5  12
BRANCH   6  15
ATOM     15  O   UNL     1      -6.513  13.083  18.834  0.00  0.00    +0.000 OA
ATOM     16  H   UNL     1      -6.801  13.213  17.924  0.00  0.00    +0.000 HD
ENDBRANCH   6  15
BRANCH   7  17
ATOM     17  O   UNL     1      -5.943  11.858  16.719  0.00  0.00    +0.000 OA
ATOM     18  H   UNL     1      -5.968  12.786  16.387  0.00  0.00    +0.000 HD
ENDBRANCH   7  17
BRANCH   8  19
ATOM     19  C   UNL     1      -3.436  10.597  16.105  0.00  0.00    +0.000 C 
ATOM     20  O   UNL     1      -3.300   9.402  15.956  0.00  0.00    +0.000 OA
BRANCH  19  21
ATOM     21  O   UNL     1      -3.349  11.410  15.030  0.00  0.00    +0.000 OA
ATOM     22  H   UNL     1      -4.080  12.066  14.981  0.00  0.00    +0.000 HD
ENDBRANCH  19  21
ENDBRANCH   8  19
BRANCH  11  23
ATOM     23  C   UNL     1       1.113  10.945  18.721  0.00  0.00    +0.000 C 
BRANCH  23  24
ATOM     24  C   UNL     1       1.495   9.479  18.861  0.00  0.00    +0.000 A 
ATOM     25  C   UNL     1       1.307   8.809  20.077  0.00  0.00    +0.000 A 
ATOM     26  C   UNL     1       1.833   7.528  20.269  0.00  0.00    +0.000 A 
ATOM     27  C   UNL     1       2.545   6.886  19.246  0.00  0.00    +0.000 A 
ATOM     28  C   UNL     1       2.637   7.511  17.996  0.00  0.00    +0.000 A 
ATOM     29  C   UNL     1       2.109   8.789  17.804  0.00  0.00    +0.000 A 
BRANCH  27  30
ATOM     30  C   UNL     1       3.251   5.576  19.488  0.00  0.00    +0.000 C 
ATOM     31  F   UNL     1       3.055   4.659  18.499  0.00  0.00    +0.000 F 
ATOM     32  F   UNL     1       4.600   5.713  19.610  0.00  0.00    +0.000 F 
ATOM     33  F   UNL     1       2.832   4.971  20.636  0.00  0.00    +0.000 F 
ENDBRANCH  27  30
ENDBRANCH  23  24
ENDBRANCH  11  23
TORSDOF 8
ENDMDL
MODEL 3
REMARK VINA RESULT:      -7.8      1.385      3.760
REMARK  Name = 
REMARK  11 active torsions:
REMARK  status: ('A' for Active; 'I' for Inactive)
REMARK    1  A    between atoms: C_1  and  C_2
REMARK    2  A    between atoms: C_5  and  C_6
REMARK    3  A    between atoms: C_6  and  C_7
REMARK    4  A    between atoms: C_6  and  C_8
REMARK    5  A    between atoms: C_9  and  O_10
REMARK    6  A    between atoms: C_11  and  O_12
REMARK    7  A    between atoms: C_13  and  C_14
REMARK    8  A    between atoms: C_14  and  O_16
REMARK    9  A    between atoms: C_19  and  C_20
REMARK   10  A    between atoms: C_20  and  C_21
REMARK   11  A    between atoms: C_24  and  C_25
REMARK                            x       y       z     vdW  Elec       q    Type
REMARK                         _______ _______ _______ _____ _____    ______ ____
ROOT
ATOM      1  C   UNL     1       0.506   8.538  20.696  0.00  0.00    +0.000 C 
ATOM      2  C   UNL     1       1.605   7.915  19.881  0.00  0.00    +0.000 A 
ATOM      3  C   UNL     1       1.921   6.561  20.083  0.00  0.00    +0.000 A 
ATOM      4  C   UNL     1       2.825   5.812  19.278  0.00  0.00    +0.000 A 
ATOM      5  C   UNL     1       2.986   4.378  19.424  0.00  0.00    +0.000 A 
ATOM      6  C   UNL     1       3.829   3.744  18.503  0.00  0.00    +0.000 A 
ATOM      7  C   UNL     1       4.530   4.464  17.527  0.00  0.00    +0.000 A 
ATOM      8  C   UNL     1       4.429   5.850  17.387  0.00  0.00    +0.000 A 
ATOM      9  C   UNL     1       3.539   6.542  18.268  0.00  0.00    +0.000 A 
ATOM     10  C   UNL     1       3.269   7.935  18.154  0.00  0.00    +0.000 A 
ATOM     11  C   UNL     1       2.273   8.612  18.880  0.00  0.00    +0.000 A 
ENDROOT
BRANCH   5  12
ATOM     12  C   UNL     1       2.153   3.619  20.480  0.00  0.00    +0.000 C 
ATOM     13  C   UNL     1       0.932   2.942  19.845  0.00  0.00    +0.000 C 
ATOM     14  C   UNL     1       2.848   2.625  21.423  0.00  0.00    +0.000 C 
ENDBRANCH   5  12
BRANCH   6  15
ATOM     15  O   UNL     1       4.048   2.395  18.393  0.00  0.00    +0.000 OA
ATOM     16  H   UNL     1       3.851   2.091  17.501  0.00  0.00    +0.000 HD
ENDBRANCH   6  15
BRANCH   7  17
ATOM     17  O   UNL     1       5.314   3.710  16.671  0.00  0.00    +0.000 OA
ATOM     18  H   UNL     1       6.235   3.982  16.891  0.00  0.00    +0.000 HD
ENDBRANCH   7  17
BRANCH   8  19
ATOM     19  C   UNL     1       5.207   6.554  16.284  0.00  0.00    +0.000 C 
ATOM     20  O   UNL     1       4.910   6.541  15.109  0.00  0.00    +0.000 OA
BRANCH  19  21
ATOM     21  O   UNL     1       6.306   7.233  16.677  0.00  0.00    +0.000 OA
ATOM     22  H   UNL     1       7.113   6.992  16.169  0.00  0.00    +0.000 HD
ENDBRANCH  19  21
ENDBRANCH   8  19
BRANCH  11  23
ATOM     23  C   UNL     1       1.873  10.011  18.426  0.00  0.00    +0.000 C 
BRANCH  23  24
ATOM     24  C   UNL     1       0.363  10.189  18.390  0.00  0.00    +0.000 A 
ATOM     25  C   UNL     1      -0.413   9.492  17.456  0.00  0.00    +0.000 A 
ATOM     26  C   UNL     1      -1.767   9.797  17.290  0.00  0.00    +0.000 A 
ATOM     27  C   UNL     1      -2.376  10.795  18.064  0.00  0.00    +0.000 A 
ATOM     28  C   UNL     1      -1.628  11.415  19.073  0.00  0.00    +0.000 A 
ATOM     29  C   UNL     1      -0.276  11.107  19.240  0.00  0.00    +0.000 A 
BRANCH  27  30
ATOM     30  C   UNL     1      -3.789  11.244  17.789  0.00  0.00    +0.000 C 
ATOM     31  F   UNL     1      -4.713  10.252  17.926  0.00  0.00    +0.000 F 
ATOM     32  F   UNL     1      -4.197  12.251  18.610  0.00  0.00    +0.000 F 
ATOM     33  F   UNL     1      -3.941  11.713  16.518  0.00  0.00    +0.000 F 
ENDBRANCH  27  30
ENDBRANCH  23  24
ENDBRANCH  11  23
TORSDOF 8
ENDMDL
MODEL 4
REMARK VINA RESULT:      -7.7      5.046      9.226
REMARK  Name = 
REMARK  11 active torsions:
REMARK  status: ('A' for Active; 'I' for Inactive)
REMARK    1  A    between atoms: C_1  and  C_2
REMARK    2  A    between atoms: C_5  and  C_6
REMARK    3  A    between atoms: C_6  and  C_7
REMARK    4  A    between atoms: C_6  and  C_8
REMARK    5  A    between atoms: C_9  and  O_10
REMARK    6  A    between atoms: C_11  and  O_12
REMARK    7  A    between atoms: C_13  and  C_14
REMARK    8  A    between atoms: C_14  and  O_16
REMARK    9  A    between atoms: C_19  and  C_20
REMARK   10  A    between atoms: C_20  and  C_21
REMARK   11  A    between atoms: C_24  and  C_25
REMARK                            x       y       z     vdW  Elec       q    Type
REMARK                         _______ _______ _______ _____ _____    ______ ____
ROOT
ATOM      1  C   UNL     1       0.827  11.754  21.191  0.00  0.00    +0.000 C 
ATOM      2  C   UNL     1      -0.275  11.477  20.207  0.00  0.00    +0.000 A 
ATOM      3  C   UNL     1      -1.577  11.917  20.499  0.00  0.00    +0.000 A 
ATOM      4  C   UNL     1      -2.673  11.860  19.593  0.00  0.00    +0.000 A 
ATOM      5  C   UNL     1      -3.951  12.482  19.883  0.00  0.00    +0.000 A 
ATOM      6  C   UNL     1      -4.913  12.443  18.866  0.00  0.00    +0.000 A 
ATOM      7  C   UNL     1      -4.677  11.783  17.652  0.00  0.00    +0.000 A 
ATOM      8  C   UNL     1      -3.474  11.138  17.360  0.00  0.00    +0.000 A 
ATOM      9  C   UNL     1      -2.435  11.194  18.342  0.00  0.00    +0.000 A 
ATOM     10  C   UNL     1      -1.130  10.671  18.118  0.00  0.00    +0.000 A 
ATOM     11  C   UNL     1      -0.039  10.863  18.982  0.00  0.00    +0.000 A 
ENDROOT
BRANCH   5  12
ATOM     12  C   UNL     1      -4.146  13.243  21.213  0.00  0.00    +0.000 C 
ATOM     13  C   UNL     1      -4.084  14.761  21.001  0.00  0.00    +0.000 C 
ATOM     14  C   UNL     1      -5.347  12.907  22.108  0.00  0.00    +0.000 C 
ENDBRANCH   5  12
BRANCH   6  15
ATOM     15  O   UNL     1      -6.143  13.048  18.885  0.00  0.00    +0.000 OA
ATOM     16  H   UNL     1      -6.191  13.695  19.595  0.00  0.00    +0.000 HD
ENDBRANCH   6  15
BRANCH   7  17
ATOM     17  O   UNL     1      -5.708  11.836  16.730  0.00  0.00    +0.000 OA
ATOM     18  H   UNL     1      -6.522  11.867  17.284  0.00  0.00    +0.000 HD
ENDBRANCH   7  17
BRANCH   8  19
ATOM     19  C   UNL     1      -3.290  10.464  16.007  0.00  0.00    +0.000 C 
ATOM     20  O   UNL     1      -3.112   9.277  15.841  0.00  0.00    +0.000 OA
BRANCH  19  21
ATOM     21  O   UNL     1      -3.331  11.280  14.931  0.00  0.00    +0.000 OA
ATOM     22  H   UNL     1      -4.225  11.653  14.761  0.00  0.00    +0.000 HD
ENDBRANCH  19  21
ENDBRANCH   8  19
BRANCH  11  23
ATOM     23  C   UNL     1       1.358  10.537  18.466  0.00  0.00    +0.000 C 
BRANCH  23  24
ATOM     24  C   UNL     1       1.789   9.127  18.840  0.00  0.00    +0.000 A 
ATOM     25  C   UNL     1       2.409   8.299  17.895  0.00  0.00    +0.000 A 
ATOM     26  C   UNL     1       2.629   6.946  18.173  0.00  0.00    +0.000 A 
ATOM     27  C   UNL     1       2.245   6.398  19.406  0.00  0.00    +0.000 A 
ATOM     28  C   UNL     1       1.727   7.249  20.389  0.00  0.00    +0.000 A 
ATOM     29  C   UNL     1       1.510   8.601  20.112  0.00  0.00    +0.000 A 
BRANCH  27  30
ATOM     30  C   UNL     1       2.330   4.914  19.661  0.00  0.00    +0.000 C 
ATOM     31  F   UNL     1       2.688   4.599  20.938  0.00  0.00    +0.000 F 
ATOM     32  F   UNL     1       1.155   4.266  19.431  0.00  0.00    +0.000 F 
ATOM     33  F   UNL     1       3.254   4.307  18.862  0.00  0.00    +0.000 F 
ENDBRANCH  27  30
ENDBRANCH  23  24
ENDBRANCH  11  23
TORSDOF 8
ENDMDL
MODEL 5
REMARK VINA RESULT:      -7.5      5.109      9.584
REMARK  Name = 
REMARK  11 active torsions:
REMARK  status: ('A' for Active; 'I' for Inactive)
REMARK    1  A    between atoms: C_1  and  C_2
REMARK    2  A    between atoms: C_5  and  C_6
REMARK    3  A    between atoms: C_6  and  C_7
REMARK    4  A    between atoms: C_6  and  C_8
REMARK    5  A    between atoms: C_9  and  O_10
REMARK    6  A    between atoms: C_11  and  O_12
REMARK    7  A    between atoms: C_13  and  C_14
REMARK    8  A    between atoms: C_14  and  O_16
REMARK    9  A    between atoms: C_19  and  C_20
REMARK   10  A    between atoms: C_20  and  C_21
REMARK   11  A    between atoms: C_24  and  C_25
REMARK                            x       y       z     vdW  Elec       q    Type
REMARK                         _______ _______ _______ _____ _____    ______ ____
ROOT
ATOM      1  C   UNL     1      -0.556  12.765  22.150  0.00  0.00    +0.000 C 
ATOM      2  C   UNL     1      -1.434  12.316  21.016  0.00  0.00    +0.000 A 
ATOM      3  C   UNL     1      -2.825  12.484  21.122  0.00  0.00    +0.000 A 
ATOM      4  C   UNL     1      -3.752  12.247  20.068  0.00  0.00    +0.000 A 
ATOM      5  C   UNL     1      -5.155  12.599  20.177  0.00  0.00    +0.000 A 
ATOM      6  C   UNL     1      -5.940  12.410  19.033  0.00  0.00    +0.000 A 
ATOM      7  C   UNL     1      -5.412  11.853  17.860  0.00  0.00    +0.000 A 
ATOM      8  C   UNL     1      -4.076  11.464  17.738  0.00  0.00    +0.000 A 
ATOM      9  C   UNL     1      -3.216  11.686  18.859  0.00  0.00    +0.000 A 
ATOM     10  C   UNL     1      -1.816  11.434  18.819  0.00  0.00    +0.000 A 
ATOM     11  C   UNL     1      -0.914  11.804  19.832  0.00  0.00    +0.000 A 
ENDROOT
BRANCH   5  12
ATOM     12  C   UNL     1      -5.679  13.259  21.471  0.00  0.00    +0.000 C 
ATOM     13  C   UNL     1      -5.979  14.748  21.255  0.00  0.00    +0.000 C 
ATOM     14  C   UNL     1      -6.847  12.613  22.231  0.00  0.00    +0.000 C 
ENDBRANCH   5  12
BRANCH   6  15
ATOM     15  O   UNL     1      -7.255  12.764  18.880  0.00  0.00    +0.000 OA
ATOM     16  H   UNL     1      -7.510  12.727  17.952  0.00  0.00    +0.000 HD
ENDBRANCH   6  15
BRANCH   7  17
ATOM     17  O   UNL     1      -6.295  11.738  16.800  0.00  0.00    +0.000 OA
ATOM     18  H   UNL     1      -6.030  12.465  16.190  0.00  0.00    +0.000 HD
ENDBRANCH   7  17
BRANCH   8  19
ATOM     19  C   UNL     1      -3.578  10.889  16.419  0.00  0.00    +0.000 C 
ATOM     20  O   UNL     1      -3.300   9.723  16.232  0.00  0.00    +0.000 OA
BRANCH  19  21
ATOM     21  O   UNL     1      -3.443  11.769  15.404  0.00  0.00    +0.000 OA
ATOM     22  H   UNL     1      -4.279  12.236  15.183  0.00  0.00    +0.000 HD
ENDBRANCH  19  21
ENDBRANCH   8  19
BRANCH  11  23
ATOM     23  C   UNL     1       0.577  11.773  19.519  0.00  0.00    +0.000 C 
BRANCH  23  24
ATOM     24  C   UNL     1       1.150  10.367  19.609  0.00  0.00    +0.000 A 
ATOM     25  C   UNL     1       1.775   9.783  18.500  0.00  0.00    +0.000 A 
ATOM     26  C   UNL     1       2.127   8.429  18.516  0.00  0.00    +0.000 A 
ATOM     27  C   UNL     1       1.873   7.637  19.646  0.00  0.00    +0.000 A 
ATOM     28  C   UNL     1       1.350   8.248  20.792  0.00  0.00    +0.000 A 
ATOM     29  C   UNL     1       1.002   9.600  20.776  0.00  0.00    +0.000 A 
BRANCH  27  30
ATOM     30  C   UNL     1       2.100   6.147  19.622  0.00  0.00    +0.000 C 
ATOM     31  F   UNL     1       1.896   5.583  18.398  0.00  0.00    +0.000 F 
ATOM     32  F   UNL     1       3.362   5.794  19.991  0.00  0.00    +0.000 F 
ATOM     33  F   UNL     1       1.264   5.486  20.472  0.00  0.00    +0.000 F 
ENDBRANCH  27  30
ENDBRANCH  23  24
ENDBRANCH  11  23
TORSDOF 8
ENDMDL
MODEL 6
REMARK VINA RESULT:      -7.5      5.004      8.862
REMARK  Name = 
REMARK  11 active torsions:
REMARK  status: ('A' for Active; 'I' for Inactive)
REMARK    1  A    between atoms: C_1  and  C_2
REMARK    2  A    between atoms: C_5  and  C_6
REMARK    3  A    between atoms: C_6  and  C_7
REMARK    4  A    between atoms: C_6  and  C_8
REMARK    5  A    between atoms: C_9  and  O_10
REMARK    6  A    between atoms: C_11  and  O_12
REMARK    7  A    between atoms: C_13  and  C_14
REMARK    8  A    between atoms: C_14  and  O_16
REMARK    9  A    between atoms: C_19  and  C_20
REMARK   10  A    between atoms: C_20  and  C_21
REMARK   11  A    between atoms: C_24  and  C_25
REMARK                            x       y       z     vdW  Elec       q    Type
REMARK                         _______ _______ _______ _____ _____    ______ ____
ROOT
ATOM      1  C   UNL     1       2.073   9.261  22.156  0.00  0.00    +0.000 C 
ATOM      2  C   UNL     1       0.942   9.614  21.232  0.00  0.00    +0.000 A 
ATOM      3  C   UNL     1      -0.121  10.392  21.720  0.00  0.00    +0.000 A 
ATOM      4  C   UNL     1      -1.169  10.925  20.917  0.00  0.00    +0.000 A 
ATOM      5  C   UNL     1      -2.145  11.861  21.440  0.00  0.00    +0.000 A 
ATOM      6  C   UNL     1      -3.062  12.390  20.524  0.00  0.00    +0.000 A 
ATOM      7  C   UNL     1      -3.076  11.991  19.181  0.00  0.00    +0.000 A 
ATOM      8  C   UNL     1      -2.177  11.060  18.656  0.00  0.00    +0.000 A 
ATOM      9  C   UNL     1      -1.183  10.528  19.537  0.00  0.00    +0.000 A 
ATOM     10  C   UNL     1      -0.147   9.657  19.096  0.00  0.00    +0.000 A 
ATOM     11  C   UNL     1       0.945   9.258  19.887  0.00  0.00    +0.000 A 
ENDROOT
BRANCH   5  12
ATOM     12  C   UNL     1      -2.057  12.312  22.915  0.00  0.00    +0.000 C 
ATOM     13  C   UNL     1      -1.338  13.661  23.044  0.00  0.00    +0.000 C 
ATOM     14  C   UNL     1      -3.328  12.333  23.778  0.00  0.00    +0.000 C 
ENDBRANCH   5  12
BRANCH   6  15
ATOM     15  O   UNL     1      -4.000  13.358  20.775  0.00  0.00    +0.000 OA
ATOM     16  H   UNL     1      -3.809  14.155  20.270  0.00  0.00    +0.000 HD
ENDBRANCH   6  15
BRANCH   7  17
ATOM     17  O   UNL     1      -4.024  12.606  18.381  0.00  0.00    +0.000 OA
ATOM     18  H   UNL     1      -3.660  12.517  17.469  0.00  0.00    +0.000 HD
ENDBRANCH   7  17
BRANCH   8  19
ATOM     19  C   UNL     1      -2.245  10.698  17.178  0.00  0.00    +0.000 C 
ATOM     20  O   UNL     1      -2.486   9.591  16.746  0.00  0.00    +0.000 OA
BRANCH  19  21
ATOM     21  O   UNL     1      -2.012  11.707  16.312  0.00  0.00    +0.000 OA
ATOM     22  H   UNL     1      -2.287  12.585  16.658  0.00  0.00    +0.000 HD
ENDBRANCH  19  21
ENDBRANCH   8  19
BRANCH  11  23
ATOM     23  C   UNL     1       2.136   8.604  19.197  0.00  0.00    +0.000 C 
BRANCH  23  24
ATOM     24  C   UNL     1       2.107   7.088  19.326  0.00  0.00    +0.000 A 
ATOM     25  C   UNL     1       2.427   6.276  18.232  0.00  0.00    +0.000 A 
ATOM     26  C   UNL     1       2.214   4.895  18.287  0.00  0.00    +0.000 A 
ATOM     27  C   UNL     1       1.690   4.297  19.442  0.00  0.00    +0.000 A 
ATOM     28  C   UNL     1       1.474   5.095  20.573  0.00  0.00    +0.000 A 
ATOM     29  C   UNL     1       1.690   6.473  20.518  0.00  0.00    +0.000 A 
BRANCH  27  30
ATOM     30  C   UNL     1       1.308   2.839  19.463  0.00  0.00    +0.000 C 
ATOM     31  F   UNL     1       1.225   2.315  20.719  0.00  0.00    +0.000 F 
ATOM     32  F   UNL     1       0.105   2.595  18.876  0.00  0.00    +0.000 F 
ATOM     33  F   UNL     1       2.211   2.061  18.802  0.00  0.00    +0.000 F 
ENDBRANCH  27  30
ENDBRANCH  23  24
ENDBRANCH  11  23
TORSDOF 8
ENDMDL
MODEL 7
REMARK VINA RESULT:      -7.5      1.601      3.794
REMARK  Name = 
REMARK  11 active torsions:
REMARK  status: ('A' for Active; 'I' for Inactive)
REMARK    1  A    between atoms: C_1  and  C_2
REMARK    2  A    between atoms: C_5  and  C_6
REMARK    3  A    between atoms: C_6  and  C_7
REMARK    4  A    between atoms: C_6  and  C_8
REMARK    5  A    between atoms: C_9  and  O_10
REMARK    6  A    between atoms: C_11  and  O_12
REMARK    7  A    between atoms: C_13  and  C_14
REMARK    8  A    between atoms: C_14  and  O_16
REMARK    9  A    between atoms: C_19  and  C_20
REMARK   10  A    between atoms: C_20  and  C_21
REMARK   11  A    between atoms: C_24  and  C_25
REMARK                            x       y       z     vdW  Elec       q    Type
REMARK                         _______ _______ _______ _____ _____    ______ ____
ROOT
ATOM      1  C   UNL     1       0.797   8.091  20.700  0.00  0.00    +0.000 C 
ATOM      2  C   UNL     1       1.856   7.500  19.812  0.00  0.00    +0.000 A 
ATOM      3  C   UNL     1       2.129   6.124  19.897  0.00  0.00    +0.000 A 
ATOM      4  C   UNL     1       2.989   5.414  19.013  0.00  0.00    +0.000 A 
ATOM      5  C   UNL     1       3.103   3.968  19.039  0.00  0.00    +0.000 A 
ATOM      6  C   UNL     1       3.903   3.383  18.051  0.00  0.00    +0.000 A 
ATOM      7  C   UNL     1       4.608   4.157  17.118  0.00  0.00    +0.000 A 
ATOM      8  C   UNL     1       4.552   5.552  17.093  0.00  0.00    +0.000 A 
ATOM      9  C   UNL     1       3.706   6.200  18.048  0.00  0.00    +0.000 A 
ATOM     10  C   UNL     1       3.481   7.605  18.053  0.00  0.00    +0.000 A 
ATOM     11  C   UNL     1       2.526   8.254  18.854  0.00  0.00    +0.000 A 
ENDROOT
BRANCH   5  12
ATOM     12  C   UNL     1       2.267   3.154  20.052  0.00  0.00    +0.000 C 
ATOM     13  C   UNL     1       2.573   3.577  21.494  0.00  0.00    +0.000 C 
ATOM     14  C   UNL     1       0.745   3.051  19.868  0.00  0.00    +0.000 C 
ENDBRANCH   5  12
BRANCH   6  15
ATOM     15  O   UNL     1       4.073   2.041  17.828  0.00  0.00    +0.000 OA
ATOM     16  H   UNL     1       3.842   1.817  16.920  0.00  0.00    +0.000 HD
ENDBRANCH   6  15
BRANCH   7  17
ATOM     17  O   UNL     1       5.347   3.449  16.186  0.00  0.00    +0.000 OA
ATOM     18  H   UNL     1       4.953   3.711  15.322  0.00  0.00    +0.000 HD
ENDBRANCH   7  17
BRANCH   8  19
ATOM     19  C   UNL     1       5.330   6.317  16.031  0.00  0.00    +0.000 C 
ATOM     20  O   UNL     1       4.830   6.954  15.129  0.00  0.00    +0.000 OA
BRANCH  19  21
ATOM     21  O   UNL     1       6.676   6.260  16.129  0.00  0.00    +0.000 OA
ATOM     22  H   UNL     1       7.032   6.784  16.880  0.00  0.00    +0.000 HD
ENDBRANCH  19  21
ENDBRANCH   8  19
BRANCH  11  23
ATOM     23  C   UNL     1       2.165   9.697  18.524  0.00  0.00    +0.000 C 
BRANCH  23  24
ATOM     24  C   UNL     1       0.660   9.911  18.467  0.00  0.00    +0.000 A 
ATOM     25  C   UNL     1      -0.102   9.326  17.449  0.00  0.00    +0.000 A 
ATOM     26  C   UNL     1      -1.446   9.676  17.279  0.00  0.00    +0.000 A 
ATOM     27  C   UNL     1      -2.057  10.605  18.133  0.00  0.00    +0.000 A 
ATOM     28  C   UNL     1      -1.325  11.105  19.217  0.00  0.00    +0.000 A 
ATOM     29  C   UNL     1       0.016  10.754  19.388  0.00  0.00    +0.000 A 
BRANCH  27  30
ATOM     30  C   UNL     1      -3.453  11.109  17.869  0.00  0.00    +0.000 C 
ATOM     31  F   UNL     1      -3.610  11.656  16.630  0.00  0.00    +0.000 F 
ATOM     32  F   UNL     1      -4.399  10.137  17.972  0.00  0.00    +0.000 F 
ATOM     33  F   UNL     1      -3.822  12.085  18.748  0.00  0.00    +0.000 F 
ENDBRANCH  27  30
ENDBRANCH  23  24
ENDBRANCH  11  23
TORSDOF 8
ENDMDL
MODEL 8
REMARK VINA RESULT:      -7.5      5.003      9.114
REMARK  Name = 
REMARK  11 active torsions:
REMARK  status: ('A' for Active; 'I' for Inactive)
REMARK    1  A    between atoms: C_1  and  C_2
REMARK    2  A    between atoms: C_5  and  C_6
REMARK    3  A    between atoms: C_6  and  C_7
REMARK    4  A    between atoms: C_6  and  C_8
REMARK    5  A    between atoms: C_9  and  O_10
REMARK    6  A    between atoms: C_11  and  O_12
REMARK    7  A    between atoms: C_13  and  C_14
REMARK    8  A    between atoms: C_14  and  O_16
REMARK    9  A    between atoms: C_19  and  C_20
REMARK   10  A    between atoms: C_20  and  C_21
REMARK   11  A    between atoms: C_24  and  C_25
REMARK                            x       y       z     vdW  Elec       q    Type
REMARK                         _______ _______ _______ _____ _____    ______ ____
ROOT
ATOM      1  C   UNL     1       1.096  11.184  21.077  0.00  0.00    +0.000 C 
ATOM      2  C   UNL     1      -0.019  11.019  20.082  0.00  0.00    +0.000 A 
ATOM      3  C   UNL     1      -1.283  11.556  20.379  0.00  0.00    +0.000 A 
ATOM      4  C   UNL     1      -2.375  11.607  19.467  0.00  0.00    +0.000 A 
ATOM      5  C   UNL     1      -3.601  12.324  19.765  0.00  0.00    +0.000 A 
ATOM      6  C   UNL     1      -4.557  12.384  18.744  0.00  0.00    +0.000 A 
ATOM      7  C   UNL     1      -4.368  11.735  17.517  0.00  0.00    +0.000 A 
ATOM      8  C   UNL     1      -3.218  11.002  17.215  0.00  0.00    +0.000 A 
ATOM      9  C   UNL     1      -2.185  10.952  18.202  0.00  0.00    +0.000 A 
ATOM     10  C   UNL     1      -0.925  10.331  17.971  0.00  0.00    +0.000 A 
ATOM     11  C   UNL     1       0.174  10.415  18.844  0.00  0.00    +0.000 A 
ENDROOT
BRANCH   5  12
ATOM     12  C   UNL     1      -3.742  13.067  21.111  0.00  0.00    +0.000 C 
ATOM     13  C   UNL     1      -3.526  14.577  20.939  0.00  0.00    +0.000 C 
ATOM     14  C   UNL     1      -4.986  12.831  21.981  0.00  0.00    +0.000 C 
ENDBRANCH   5  12
BRANCH   6  15
ATOM     15  O   UNL     1      -5.734  13.086  18.771  0.00  0.00    +0.000 OA
ATOM     16  H   UNL     1      -5.564  14.033  18.789  0.00  0.00    +0.000 HD
ENDBRANCH   6  15
BRANCH   7  17
ATOM     17  O   UNL     1      -5.385  11.891  16.591  0.00  0.00    +0.000 OA
ATOM     18  H   UNL     1      -6.058  12.432  17.066  0.00  0.00    +0.000 HD
ENDBRANCH   7  17
BRANCH   8  19
ATOM     19  C   UNL     1      -3.081  10.346  15.847  0.00  0.00    +0.000 C 
ATOM     20  O   UNL     1      -3.118  10.936  14.789  0.00  0.00    +0.000 OA
BRANCH  19  21
ATOM     21  O   UNL     1      -2.911   9.007  15.849  0.00  0.00    +0.000 OA
ATOM     22  H   UNL     1      -3.407   8.554  16.567  0.00  0.00    +0.000 HD
ENDBRANCH  19  21
ENDBRANCH   8  19
BRANCH  11  23
ATOM     23  C   UNL     1       1.543   9.989  18.326  0.00  0.00    +0.000 C 
BRANCH  23  24
ATOM     24  C   UNL     1       1.898   8.573  18.753  0.00  0.00    +0.000 A 
ATOM     25  C   UNL     1       2.376   7.648  17.817  0.00  0.00    +0.000 A 
ATOM     26  C   UNL     1       2.517   6.300  18.160  0.00  0.00    +0.000 A 
ATOM     27  C   UNL     1       2.197   5.853  19.450  0.00  0.00    +0.000 A 
ATOM     28  C   UNL     1       1.825   6.796  20.416  0.00  0.00    +0.000 A 
ATOM     29  C   UNL     1       1.687   8.143  20.073  0.00  0.00    +0.000 A 
BRANCH  27  30
ATOM     30  C   UNL     1       2.193   4.384  19.790  0.00  0.00    +0.000 C 
ATOM     31  F   UNL     1       3.115   3.660  19.093  0.00  0.00    +0.000 F 
ATOM     32  F   UNL     1       2.443   4.141  21.105  0.00  0.00    +0.000 F 
ATOM     33  F   UNL     1       0.991   3.798  19.523  0.00  0.00    +0.000 F 
ENDBRANCH  27  30
ENDBRANCH  23  24
ENDBRANCH  11  23
TORSDOF 8
ENDMDL
MODEL 9
REMARK VINA RESULT:      -7.4      1.583      3.647
REMARK  Name = 
REMARK  11 active torsions:
REMARK  status: ('A' for Active; 'I' for Inactive)
REMARK    1  A    between atoms: C_1  and  C_2
REMARK    2  A    between atoms: C_5  and  C_6
REMARK    3  A    between atoms: C_6  and  C_7
REMARK    4  A    between atoms: C_6  and  C_8
REMARK    5  A    between atoms: C_9  and  O_10
REMARK    6  A    between atoms: C_11  and  O_12
REMARK    7  A    between atoms: C_13  and  C_14
REMARK    8  A    between atoms: C_14  and  O_16
REMARK    9  A    between atoms: C_19  and  C_20
REMARK   10  A    between atoms: C_20  and  C_21
REMARK   11  A    between atoms: C_24  and  C_25
REMARK                            x       y       z     vdW  Elec       q    Type
REMARK                         _______ _______ _______ _____ _____    ______ ____
ROOT
ATOM      1  C   UNL     1      -0.068   8.206  21.536  0.00  0.00    +0.000 C 
ATOM      2  C   UNL     1       1.042   7.687  20.666  0.00  0.00    +0.000 A 
ATOM      3  C   UNL     1       1.244   6.299  20.574  0.00  0.00    +0.000 A 
ATOM      4  C   UNL     1       2.151   5.672  19.674  0.00  0.00    +0.000 A 
ATOM      5  C   UNL     1       2.198   4.233  19.499  0.00  0.00    +0.000 A 
ATOM      6  C   UNL     1       3.061   3.749  18.509  0.00  0.00    +0.000 A 
ATOM      7  C   UNL     1       3.884   4.604  17.764  0.00  0.00    +0.000 A 
ATOM      8  C   UNL     1       3.894   5.990  17.938  0.00  0.00    +0.000 A 
ATOM      9  C   UNL     1       2.991   6.544  18.899  0.00  0.00    +0.000 A 
ATOM     10  C   UNL     1       2.830   7.946  19.090  0.00  0.00    +0.000 A 
ATOM     11  C   UNL     1       1.833   8.528  19.891  0.00  0.00    +0.000 A 
ENDROOT
BRANCH   5  12
ATOM     12  C   UNL     1       1.234   3.334  20.305  0.00  0.00    +0.000 C 
ATOM     13  C   UNL     1       0.467   2.375  19.385  0.00  0.00    +0.000 C 
ATOM     14  C   UNL     1       1.762   2.556  21.519  0.00  0.00    +0.000 C 
ENDBRANCH   5  12
BRANCH   6  15
ATOM     15  O   UNL     1       3.190   2.444  18.108  0.00  0.00    +0.000 OA
ATOM     16  H   UNL     1       2.620   1.871  18.630  0.00  0.00    +0.000 HD
ENDBRANCH   6  15
BRANCH   7  17
ATOM     17  O   UNL     1       4.675   3.994  16.806  0.00  0.00    +0.000 OA
ATOM     18  H   UNL     1       5.526   3.825  17.273  0.00  0.00    +0.000 HD
ENDBRANCH   7  17
BRANCH   8  19
ATOM     19  C   UNL     1       4.802   6.851  17.070  0.00  0.00    +0.000 C 
ATOM     20  O   UNL     1       5.800   7.418  17.460  0.00  0.00    +0.000 OA
BRANCH  19  21
ATOM     21  O   UNL     1       4.438   6.974  15.776  0.00  0.00    +0.000 OA
ATOM     22  H   UNL     1       4.501   7.897  15.442  0.00  0.00    +0.000 HD
ENDBRANCH  19  21
ENDBRANCH   8  19
BRANCH  11  23
ATOM     23  C   UNL     1       1.569  10.022  19.745  0.00  0.00    +0.000 C 
BRANCH  23  24
ATOM     24  C   UNL     1       0.285  10.303  18.981  0.00  0.00    +0.000 A 
ATOM     25  C   UNL     1      -0.661  11.204  19.487  0.00  0.00    +0.000 A 
ATOM     26  C   UNL     1      -1.922  11.317  18.893  0.00  0.00    +0.000 A 
ATOM     27  C   UNL     1      -2.257  10.543  17.773  0.00  0.00    +0.000 A 
ATOM     28  C   UNL     1      -1.275   9.724  17.202  0.00  0.00    +0.000 A 
ATOM     29  C   UNL     1      -0.015   9.614  17.794  0.00  0.00    +0.000 A 
BRANCH  27  30
ATOM     30  C   UNL     1      -3.659  10.537  17.219  0.00  0.00    +0.000 C 
ATOM     31  F   UNL     1      -4.155  11.783  16.975  0.00  0.00    +0.000 F 
ATOM     32  F   UNL     1      -3.766   9.856  16.045  0.00  0.00    +0.000 F 
ATOM     33  F   UNL     1      -4.547   9.952  18.073  0.00  0.00    +0.000 F 
ENDBRANCH  27  30
ENDBRANCH  23  24
ENDBRANCH  11  23
TORSDOF 8
ENDMDL
