MODEL 1
REMARK VINA RESULT:      -9.0      0.000      0.000
REMARK  Name = 
REMARK  5 active torsions:
REMARK  status: ('A' for Active; 'I' for Inactive)
REMARK    1  A    between atoms: C_2  and  C_3
REMARK    2  A    between atoms: C_2  and  C_9
REMARK    3  A    between atoms: C_12  and  N_13
REMARK    4  A    between atoms: C_14  and  C_16
REMARK    5  A    between atoms: C_22  and  O_23
REMARK                            x       y       z     vdW  Elec       q    Type
REMARK                         _______ _______ _______ _____ _____    ______ ____
ROOT
ATOM      1  C   UNL     1       6.290   5.194  17.331  0.00  0.00    +0.000 A 
ATOM      2  C   UNL     1       6.761   5.173  18.641  0.00  0.00    +0.000 A 
ATOM      3  C   UNL     1       7.573   6.203  19.111  0.00  0.00    +0.000 A 
ATOM      4  C   UNL     1       7.901   7.294  18.305  0.00  0.00    +0.000 A 
ATOM      5  C   UNL     1       7.385   7.341  17.004  0.00  0.00    +0.000 A 
ATOM      6  C   UNL     1       6.584   6.295  16.517  0.00  0.00    +0.000 A 
ENDROOT
BRANCH   4   7
ATOM      7  N   UNL     1       8.706   8.364  18.760  0.00  0.00    +0.000 N 
ATOM      8  C   UNL     1       8.569   9.693  18.399  0.00  0.00    +0.000 C 
ATOM      9  O   UNL     1       7.665  10.149  17.704  0.00  0.00    +0.000 OA
ATOM     10  H   UNL     1       9.458   8.145  19.408  0.00  0.00    +0.000 HD
BRANCH   8  11
ATOM     11  C   UNL     1       9.598  10.662  18.882  0.00  0.00    +0.000 A 
ATOM     12  C   UNL     1      10.339  11.316  17.883  0.00  0.00    +0.000 A 
ATOM     13  C   UNL     1      11.352  12.212  18.219  0.00  0.00    +0.000 A 
ATOM     14 CL   UNL     1      12.255  12.983  16.977  0.00  0.00    +0.000 Cl
ATOM     15  C   UNL     1      11.636  12.471  19.553  0.00  0.00    +0.000 A 
ATOM     16  C   UNL     1      10.904  11.836  20.560  0.00  0.00    +0.000 A 
ATOM     17  C   UNL     1       9.888  10.931  20.225  0.00  0.00    +0.000 A 
BRANCH  17  18
ATOM     18  O   UNL     1       9.189  10.316  21.232  0.00  0.00    +0.000 OA
ATOM     19  H   UNL     1       8.609  10.974  21.659  0.00  0.00    +0.000 HD
ENDBRANCH  17  18
ENDBRANCH   8  11
ENDBRANCH   4   7
BRANCH   1  21
ATOM     20  O   UNL     1       5.906   3.362  15.918  0.00  0.00    +0.000 OA
ATOM     21  C   UNL     1       5.459   4.080  16.809  0.00  0.00    +0.000 C 
BRANCH  21  22
ATOM     22  C   UNL     1       4.086   3.832  17.335  0.00  0.00    +0.000 A 
ATOM     23  C   UNL     1       3.181   4.881  17.557  0.00  0.00    +0.000 A 
ATOM     24  C   UNL     1       1.890   4.608  18.015  0.00  0.00    +0.000 A 
ATOM     25  C   UNL     1       1.509   3.295  18.282  0.00  0.00    +0.000 A 
ATOM     26  C   UNL     1       2.415   2.250  18.092  0.00  0.00    +0.000 A 
ATOM     27  C   UNL     1       3.703   2.517  17.620  0.00  0.00    +0.000 A 
ENDBRANCH  21  22
ENDBRANCH   1  21
TORSDOF 5
ENDMDL
MODEL 2
REMARK VINA RESULT:      -8.8      0.379      1.372
REMARK  Name = 
REMARK  5 active torsions:
REMARK  status: ('A' for Active; 'I' for Inactive)
REMARK    1  A    between atoms: C_2  and  C_3
REMARK    2  A    between atoms: C_2  and  C_9
REMARK    3  A    between atoms: C_12  and  N_13
REMARK    4  A    between atoms: C_14  and  C_16
REMARK    5  A    between atoms: C_22  and  O_23
REMARK                            x       y       z     vdW  Elec       q    Type
REMARK                         _______ _______ _______ _____ _____    ______ ____
ROOT
ATOM      1  C   UNL     1       6.212   5.395  17.387  0.00  0.00    +0.000 A 
ATOM      2  C   UNL     1       6.118   6.651  16.792  0.00  0.00    +0.000 A 
ATOM      3  C   UNL     1       6.908   7.703  17.249  0.00  0.00    +0.000 A 
ATOM      4  C   UNL     1       7.835   7.522  18.277  0.00  0.00    +0.000 A 
ATOM      5  C   UNL     1       7.966   6.247  18.839  0.00  0.00    +0.000 A 
ATOM      6  C   UNL     1       7.157   5.187  18.398  0.00  0.00    +0.000 A 
ENDROOT
BRANCH   4   7
ATOM      7  N   UNL     1       8.664   8.566  18.748  0.00  0.00    +0.000 N 
ATOM      8  C   UNL     1       8.623   9.885  18.331  0.00  0.00    +0.000 C 
ATOM      9  O   UNL     1       7.793  10.359  17.560  0.00  0.00    +0.000 OA
ATOM     10  H   UNL     1       9.359   8.335  19.453  0.00  0.00    +0.000 HD
BRANCH   8  11
ATOM     11  C   UNL     1       9.668  10.818  18.848  0.00  0.00    +0.000 A 
ATOM     12  C   UNL     1      10.407  11.511  17.874  0.00  0.00    +0.000 A 
ATOM     13  C   UNL     1      11.433  12.378  18.240  0.00  0.00    +0.000 A 
ATOM     14 CL   UNL     1      12.333  13.197  17.027  0.00  0.00    +0.000 Cl
ATOM     15  C   UNL     1      11.734  12.570  19.582  0.00  0.00    +0.000 A 
ATOM     16  C   UNL     1      11.005  11.897  20.566  0.00  0.00    +0.000 A 
ATOM     17  C   UNL     1       9.975  11.021  20.199  0.00  0.00    +0.000 A 
BRANCH  17  18
ATOM     18  O   UNL     1       9.280  10.366  21.183  0.00  0.00    +0.000 OA
ATOM     19  H   UNL     1       8.412  10.096  20.827  0.00  0.00    +0.000 HD
ENDBRANCH  17  18
ENDBRANCH   8  11
ENDBRANCH   4   7
BRANCH   1  21
ATOM     20  O   UNL     1       5.736   3.537  16.036  0.00  0.00    +0.000 OA
ATOM     21  C   UNL     1       5.344   4.278  16.934  0.00  0.00    +0.000 C 
BRANCH  21  22
ATOM     22  C   UNL     1       3.999   4.056  17.538  0.00  0.00    +0.000 A 
ATOM     23  C   UNL     1       3.424   2.778  17.609  0.00  0.00    +0.000 A 
ATOM     24  C   UNL     1       2.179   2.602  18.216  0.00  0.00    +0.000 A 
ATOM     25  C   UNL     1       1.490   3.701  18.725  0.00  0.00    +0.000 A 
ATOM     26  C   UNL     1       2.044   4.979  18.630  0.00  0.00    +0.000 A 
ATOM     27  C   UNL     1       3.296   5.158  18.036  0.00  0.00    +0.000 A 
ENDBRANCH  21  22
ENDBRANCH   1  21
TORSDOF 5
ENDMDL
MODEL 3
REMARK VINA RESULT:      -8.2      6.074      8.053
REMARK  Name = 
REMARK  5 active torsions:
REMARK  status: ('A' for Active; 'I' for Inactive)
REMARK    1  A    between atoms: C_2  and  C_3
REMARK    2  A    between atoms: C_2  and  C_9
REMARK    3  A    between atoms: C_12  and  N_13
REMARK    4  A    between atoms: C_14  and  C_16
REMARK    5  A    between atoms: C_22  and  O_23
REMARK                            x       y       z     vdW  Elec       q    Type
REMARK                         _______ _______ _______ _____ _____    ______ ____
ROOT
ATOM      1  C   UNL     1       3.552   5.262  19.021  0.00  0.00    +0.000 A 
ATOM      2  C   UNL     1       2.710   5.094  20.118  0.00  0.00    +0.000 A 
ATOM      3  C   UNL     1       1.884   6.135  20.534  0.00  0.00    +0.000 A 
ATOM      4  C   UNL     1       1.845   7.350  19.846  0.00  0.00    +0.000 A 
ATOM      5  C   UNL     1       2.653   7.500  18.713  0.00  0.00    +0.000 A 
ATOM      6  C   UNL     1       3.504   6.462  18.302  0.00  0.00    +0.000 A 
ENDROOT
BRANCH   4   7
ATOM      7  N   UNL     1       1.002   8.417  20.232  0.00  0.00    +0.000 N 
ATOM      8  C   UNL     1       1.062   9.105  21.432  0.00  0.00    +0.000 C 
ATOM      9  O   UNL     1       1.921   8.950  22.295  0.00  0.00    +0.000 OA
ATOM     10  H   UNL     1       0.281   8.708  19.578  0.00  0.00    +0.000 HD
BRANCH   8  11
ATOM     11  C   UNL     1       0.001  10.117  21.715  0.00  0.00    +0.000 A 
ATOM     12  C   UNL     1      -0.400  10.906  20.622  0.00  0.00    +0.000 A 
ATOM     13  C   UNL     1      -1.354  11.908  20.778  0.00  0.00    +0.000 A 
ATOM     14 CL   UNL     1      -1.811  12.870  19.429  0.00  0.00    +0.000 Cl
ATOM     15  C   UNL     1      -1.925  12.136  22.024  0.00  0.00    +0.000 A 
ATOM     16  C   UNL     1      -1.546  11.357  23.120  0.00  0.00    +0.000 A 
ATOM     17  C   UNL     1      -0.582  10.350  22.966  0.00  0.00    +0.000 A 
BRANCH  17  18
ATOM     18  O   UNL     1      -0.222   9.605  24.059  0.00  0.00    +0.000 OA
ATOM     19  H   UNL     1      -0.789   8.812  24.098  0.00  0.00    +0.000 HD
ENDBRANCH  17  18
ENDBRANCH   8  11
ENDBRANCH   4   7
BRANCH   1  21
ATOM     20  O   UNL     1       4.514   3.136  19.255  0.00  0.00    +0.000 OA
ATOM     21  C   UNL     1       4.467   4.172  18.597  0.00  0.00    +0.000 C 
BRANCH  21  22
ATOM     22  C   UNL     1       5.341   4.323  17.399  0.00  0.00    +0.000 A 
ATOM     23  C   UNL     1       6.687   4.702  17.511  0.00  0.00    +0.000 A 
ATOM     24  C   UNL     1       7.486   4.797  16.370  0.00  0.00    +0.000 A 
ATOM     25  C   UNL     1       6.939   4.547  15.113  0.00  0.00    +0.000 A 
ATOM     26  C   UNL     1       5.592   4.200  14.993  0.00  0.00    +0.000 A 
ATOM     27  C   UNL     1       4.793   4.089  16.134  0.00  0.00    +0.000 A 
ENDBRANCH  21  22
ENDBRANCH   1  21
TORSDOF 5
ENDMDL
MODEL 4
REMARK VINA RESULT:      -8.2      5.520      7.472
REMARK  Name = 
REMARK  5 active torsions:
REMARK  status: ('A' for Active; 'I' for Inactive)
REMARK    1  A    between atoms: C_2  and  C_3
REMARK    2  A    between atoms: C_2  and  C_9
REMARK    3  A    between atoms: C_12  and  N_13
REMARK    4  A    between atoms: C_14  and  C_16
REMARK    5  A    between atoms: C_22  and  O_23
REMARK                            x       y       z     vdW  Elec       q    Type
REMARK                         _______ _______ _______ _____ _____    ______ ____
ROOT
ATOM      1  C   UNL     1       5.686   5.361  16.697  0.00  0.00    +0.000 A 
ATOM      2  C   UNL     1       4.708   4.630  17.369  0.00  0.00    +0.000 A 
ATOM      3  C   UNL     1       3.683   5.287  18.044  0.00  0.00    +0.000 A 
ATOM      4  C   UNL     1       3.581   6.679  18.034  0.00  0.00    +0.000 A 
ATOM      5  C   UNL     1       4.534   7.411  17.315  0.00  0.00    +0.000 A 
ATOM      6  C   UNL     1       5.583   6.756  16.650  0.00  0.00    +0.000 A 
ENDROOT
BRANCH   4   7
ATOM      7  N   UNL     1       2.540   7.372  18.693  0.00  0.00    +0.000 N 
ATOM      8  C   UNL     1       2.019   8.598  18.319  0.00  0.00    +0.000 C 
ATOM      9  O   UNL     1       2.320   9.216  17.301  0.00  0.00    +0.000 OA
ATOM     10  H   UNL     1       2.136   6.941  19.520  0.00  0.00    +0.000 HD
BRANCH   8  11
ATOM     11  C   UNL     1       1.009   9.236  19.216  0.00  0.00    +0.000 A 
ATOM     12  C   UNL     1       0.110  10.120  18.596  0.00  0.00    +0.000 A 
ATOM     13  C   UNL     1      -0.849  10.801  19.341  0.00  0.00    +0.000 A 
ATOM     14 CL   UNL     1      -1.924  11.891  18.559  0.00  0.00    +0.000 Cl
ATOM     15  C   UNL     1      -0.928  10.608  20.714  0.00  0.00    +0.000 A 
ATOM     16  C   UNL     1      -0.048   9.727  21.348  0.00  0.00    +0.000 A 
ATOM     17  C   UNL     1       0.921   9.044  20.600  0.00  0.00    +0.000 A 
BRANCH  17  18
ATOM     18  O   UNL     1       1.778   8.190  21.247  0.00  0.00    +0.000 OA
ATOM     19  H   UNL     1       2.276   8.695  21.917  0.00  0.00    +0.000 HD
ENDBRANCH  17  18
ENDBRANCH   8  11
ENDBRANCH   4   7
BRANCH   1  21
ATOM     20  O   UNL     1       7.748   4.243  16.673  0.00  0.00    +0.000 OA
ATOM     21  C   UNL     1       6.806   4.670  16.010  0.00  0.00    +0.000 C 
BRANCH  21  22
ATOM     22  C   UNL     1       6.815   4.504  14.528  0.00  0.00    +0.000 A 
ATOM     23  C   UNL     1       7.690   5.232  13.708  0.00  0.00    +0.000 A 
ATOM     24  C   UNL     1       7.697   5.023  12.328  0.00  0.00    +0.000 A 
ATOM     25  C   UNL     1       6.810   4.113  11.757  0.00  0.00    +0.000 A 
ATOM     26  C   UNL     1       5.916   3.407  12.564  0.00  0.00    +0.000 A 
ATOM     27  C   UNL     1       5.916   3.602  13.948  0.00  0.00    +0.000 A 
ENDBRANCH  21  22
ENDBRANCH   1  21
TORSDOF 5
ENDMDL
MODEL 5
REMARK VINA RESULT:      -8.1      5.713      7.559
REMARK  Name = 
REMARK  5 active torsions:
REMARK  status: ('A' for Active; 'I' for Inactive)
REMARK    1  A    between atoms: C_2  and  C_3
REMARK    2  A    between atoms: C_2  and  C_9
REMARK    3  A    between atoms: C_12  and  N_13
REMARK    4  A    between atoms: C_14  and  C_16
REMARK    5  A    between atoms: C_22  and  O_23
REMARK                            x       y       z     vdW  Elec       q    Type
REMARK                         _______ _______ _______ _____ _____    ______ ____
ROOT
ATOM      1  C   UNL     1       5.745   5.474  16.898  0.00  0.00    +0.000 A 
ATOM      2  C   UNL     1       5.235   4.980  18.096  0.00  0.00    +0.000 A 
ATOM      3  C   UNL     1       4.211   5.656  18.754  0.00  0.00    +0.000 A 
ATOM      4  C   UNL     1       3.643   6.814  18.218  0.00  0.00    +0.000 A 
ATOM      5  C   UNL     1       4.121   7.282  16.987  0.00  0.00    +0.000 A 
ATOM      6  C   UNL     1       5.169   6.617  16.330  0.00  0.00    +0.000 A 
ENDROOT
BRANCH   4   7
ATOM      7  N   UNL     1       2.589   7.510  18.852  0.00  0.00    +0.000 N 
ATOM      8  C   UNL     1       2.002   8.679  18.400  0.00  0.00    +0.000 C 
ATOM      9  O   UNL     1       2.248   9.228  17.330  0.00  0.00    +0.000 OA
ATOM     10  H   UNL     1       2.227   7.128  19.721  0.00  0.00    +0.000 HD
BRANCH   8  11
ATOM     11  C   UNL     1       0.988   9.340  19.276  0.00  0.00    +0.000 A 
ATOM     12  C   UNL     1       1.141   9.129  20.657  0.00  0.00    +0.000 A 
ATOM     13  C   UNL     1       0.232   9.664  21.565  0.00  0.00    +0.000 A 
ATOM     14 CL   UNL     1       0.432   9.374  23.247  0.00  0.00    +0.000 Cl
ATOM     15  C   UNL     1      -0.840  10.421  21.111  0.00  0.00    +0.000 A 
ATOM     16  C   UNL     1      -1.004  10.649  19.742  0.00  0.00    +0.000 A 
ATOM     17  C   UNL     1      -0.092  10.108  18.826  0.00  0.00    +0.000 A 
BRANCH  17  18
ATOM     18  O   UNL     1      -0.280  10.339  17.487  0.00  0.00    +0.000 OA
ATOM     19  H   UNL     1      -0.238   9.488  17.013  0.00  0.00    +0.000 HD
ENDBRANCH  17  18
ENDBRANCH   8  11
ENDBRANCH   4   7
BRANCH   1  21
ATOM     20  O   UNL     1       7.821   4.384  16.872  0.00  0.00    +0.000 OA
ATOM     21  C   UNL     1       6.866   4.782  16.211  0.00  0.00    +0.000 C 
BRANCH  21  22
ATOM     22  C   UNL     1       6.857   4.583  14.734  0.00  0.00    +0.000 A 
ATOM     23  C   UNL     1       7.742   5.271  13.890  0.00  0.00    +0.000 A 
ATOM     24  C   UNL     1       7.731   5.030  12.515  0.00  0.00    +0.000 A 
ATOM     25  C   UNL     1       6.817   4.129  11.973  0.00  0.00    +0.000 A 
ATOM     26  C   UNL     1       5.914   3.463  12.804  0.00  0.00    +0.000 A 
ATOM     27  C   UNL     1       5.931   3.690  14.182  0.00  0.00    +0.000 A 
ENDBRANCH  21  22
ENDBRANCH   1  21
TORSDOF 5
ENDMDL
MODEL 6
REMARK VINA RESULT:      -8.1      5.421      7.547
REMARK  Name = 
REMARK  5 active torsions:
REMARK  status: ('A' for Active; 'I' for Inactive)
REMARK    1  A    between atoms: C_2  and  C_3
REMARK    2  A    between atoms: C_2  and  C_9
REMARK    3  A    between atoms: C_12  and  N_13
REMARK    4  A    between atoms: C_14  and  C_16
REMARK    5  A    between atoms: C_22  and  O_23
REMARK                            x       y       z     vdW  Elec       q    Type
REMARK                         _______ _______ _______ _____ _____    ______ ____
ROOT
ATOM      1  C   UNL     1       5.732   5.386  16.632  0.00  0.00    +0.000 A 
ATOM      2  C   UNL     1       5.826   6.759  16.850  0.00  0.00    +0.000 A 
ATOM      3  C   UNL     1       4.782   7.444  17.464  0.00  0.00    +0.000 A 
ATOM      4  C   UNL     1       3.640   6.777  17.913  0.00  0.00    +0.000 A 
ATOM      5  C   UNL     1       3.568   5.390  17.741  0.00  0.00    +0.000 A 
ATOM      6  C   UNL     1       4.608   4.696  17.102  0.00  0.00    +0.000 A 
ENDROOT
BRANCH   4   7
ATOM      7  N   UNL     1       2.573   7.443  18.559  0.00  0.00    +0.000 N 
ATOM      8  C   UNL     1       2.054   8.676  18.206  0.00  0.00    +0.000 C 
ATOM      9  O   UNL     1       2.384   9.327  17.218  0.00  0.00    +0.000 OA
ATOM     10  H   UNL     1       2.145   6.984  19.358  0.00  0.00    +0.000 HD
BRANCH   8  11
ATOM     11  C   UNL     1       1.012   9.279  19.089  0.00  0.00    +0.000 A 
ATOM     12  C   UNL     1       0.112  10.159  18.462  0.00  0.00    +0.000 A 
ATOM     13  C   UNL     1      -0.877  10.810  19.195  0.00  0.00    +0.000 A 
ATOM     14 CL   UNL     1      -1.951  11.895  18.406  0.00  0.00    +0.000 Cl
ATOM     15  C   UNL     1      -0.986  10.589  20.562  0.00  0.00    +0.000 A 
ATOM     16  C   UNL     1      -0.107   9.712  21.202  0.00  0.00    +0.000 A 
ATOM     17  C   UNL     1       0.892   9.060  20.466  0.00  0.00    +0.000 A 
BRANCH  17  18
ATOM     18  O   UNL     1       1.748   8.209  21.119  0.00  0.00    +0.000 OA
ATOM     19  H   UNL     1       1.221   7.555  21.615  0.00  0.00    +0.000 HD
ENDBRANCH  17  18
ENDBRANCH   8  11
ENDBRANCH   4   7
BRANCH   1  21
ATOM     20  O   UNL     1       7.763   4.213  16.595  0.00  0.00    +0.000 OA
ATOM     21  C   UNL     1       6.823   4.654  15.939  0.00  0.00    +0.000 C 
BRANCH  21  22
ATOM     22  C   UNL     1       6.804   4.466  14.460  0.00  0.00    +0.000 A 
ATOM     23  C   UNL     1       5.927   3.560  13.842  0.00  0.00    +0.000 A 
ATOM     24  C   UNL     1       5.911   3.437  12.452  0.00  0.00    +0.000 A 
ATOM     25  C   UNL     1       6.788   4.192  11.675  0.00  0.00    +0.000 A 
ATOM     26  C   UNL     1       7.683   5.072  12.286  0.00  0.00    +0.000 A 
ATOM     27  C   UNL     1       7.693   5.209  13.676  0.00  0.00    +0.000 A 
ENDBRANCH  21  22
ENDBRANCH   1  21
TORSDOF 5
ENDMDL
MODEL 7
REMARK VINA RESULT:      -8.1      5.294      7.620
REMARK  Name = 
REMARK  5 active torsions:
REMARK  status: ('A' for Active; 'I' for Inactive)
REMARK    1  A    between atoms: C_2  and  C_3
REMARK    2  A    between atoms: C_2  and  C_9
REMARK    3  A    between atoms: C_12  and  N_13
REMARK    4  A    between atoms: C_14  and  C_16
REMARK    5  A    between atoms: C_22  and  O_23
REMARK                            x       y       z     vdW  Elec       q    Type
REMARK                         _______ _______ _______ _____ _____    ______ ____
ROOT
ATOM      1  C   UNL     1       5.779   5.424  16.727  0.00  0.00    +0.000 A 
ATOM      2  C   UNL     1       5.961   6.747  17.123  0.00  0.00    +0.000 A 
ATOM      3  C   UNL     1       4.928   7.438  17.750  0.00  0.00    +0.000 A 
ATOM      4  C   UNL     1       3.708   6.821  18.035  0.00  0.00    +0.000 A 
ATOM      5  C   UNL     1       3.544   5.476  17.683  0.00  0.00    +0.000 A 
ATOM      6  C   UNL     1       4.574   4.779  17.030  0.00  0.00    +0.000 A 
ENDROOT
BRANCH   4   7
ATOM      7  N   UNL     1       2.649   7.491  18.688  0.00  0.00    +0.000 N 
ATOM      8  C   UNL     1       2.035   8.654  18.256  0.00  0.00    +0.000 C 
ATOM      9  O   UNL     1       2.259   9.219  17.189  0.00  0.00    +0.000 OA
ATOM     10  H   UNL     1       2.303   7.093  19.557  0.00  0.00    +0.000 HD
BRANCH   8  11
ATOM     11  C   UNL     1       1.020   9.287  19.150  0.00  0.00    +0.000 A 
ATOM     12  C   UNL     1       1.208   9.086  20.529  0.00  0.00    +0.000 A 
ATOM     13  C   UNL     1       0.301   9.597  21.454  0.00  0.00    +0.000 A 
ATOM     14 CL   UNL     1       0.545   9.320  23.132  0.00  0.00    +0.000 Cl
ATOM     15  C   UNL     1      -0.803  10.318  21.018  0.00  0.00    +0.000 A 
ATOM     16  C   UNL     1      -1.003  10.535  19.653  0.00  0.00    +0.000 A 
ATOM     17  C   UNL     1      -0.094  10.018  18.720  0.00  0.00    +0.000 A 
BRANCH  17  18
ATOM     18  O   UNL     1      -0.316  10.238  17.384  0.00  0.00    +0.000 OA
ATOM     19  H   UNL     1      -0.518   9.385  16.956  0.00  0.00    +0.000 HD
ENDBRANCH  17  18
ENDBRANCH   8  11
ENDBRANCH   4   7
BRANCH   1  21
ATOM     20  O   UNL     1       7.828   4.284  16.657  0.00  0.00    +0.000 OA
ATOM     21  C   UNL     1       6.861   4.693  16.019  0.00  0.00    +0.000 C 
BRANCH  21  22
ATOM     22  C   UNL     1       6.800   4.465  14.547  0.00  0.00    +0.000 A 
ATOM     23  C   UNL     1       5.875   3.579  13.975  0.00  0.00    +0.000 A 
ATOM     24  C   UNL     1       5.821   3.420  12.589  0.00  0.00    +0.000 A 
ATOM     25  C   UNL     1       6.709   4.117  11.772  0.00  0.00    +0.000 A 
ATOM     26  C   UNL     1       7.652   4.977  12.338  0.00  0.00    +0.000 A 
ATOM     27  C   UNL     1       7.700   5.151  13.724  0.00  0.00    +0.000 A 
ENDBRANCH  21  22
ENDBRANCH   1  21
TORSDOF 5
ENDMDL
MODEL 8
REMARK VINA RESULT:      -8.0      6.215      7.916
REMARK  Name = 
REMARK  5 active torsions:
REMARK  status: ('A' for Active; 'I' for Inactive)
REMARK    1  A    between atoms: C_2  and  C_3
REMARK    2  A    between atoms: C_2  and  C_9
REMARK    3  A    between atoms: C_12  and  N_13
REMARK    4  A    between atoms: C_14  and  C_16
REMARK    5  A    between atoms: C_22  and  O_23
REMARK                            x       y       z     vdW  Elec       q    Type
REMARK                         _______ _______ _______ _____ _____    ______ ____
ROOT
ATOM      1  C   UNL     1       3.168   5.496  19.116  0.00  0.00    +0.000 A 
ATOM      2  C   UNL     1       2.373   5.499  20.260  0.00  0.00    +0.000 A 
ATOM      3  C   UNL     1       1.676   6.647  20.626  0.00  0.00    +0.000 A 
ATOM      4  C   UNL     1       1.718   7.803  19.844  0.00  0.00    +0.000 A 
ATOM      5  C   UNL     1       2.476   7.784  18.667  0.00  0.00    +0.000 A 
ATOM      6  C   UNL     1       3.200   6.636  18.304  0.00  0.00    +0.000 A 
ENDROOT
BRANCH   4   7
ATOM      7  N   UNL     1       1.005   8.977  20.179  0.00  0.00    +0.000 N 
ATOM      8  C   UNL     1       1.019   9.611  21.409  0.00  0.00    +0.000 C 
ATOM      9  O   UNL     1       1.733   9.300  22.359  0.00  0.00    +0.000 OA
ATOM     10  H   UNL     1       0.422   9.396  19.460  0.00  0.00    +0.000 HD
BRANCH   8  11
ATOM     11  C   UNL     1       0.096  10.768  21.614  0.00  0.00    +0.000 A 
ATOM     12  C   UNL     1       0.214  11.817  20.685  0.00  0.00    +0.000 A 
ATOM     13  C   UNL     1      -0.568  12.963  20.802  0.00  0.00    +0.000 A 
ATOM     14 CL   UNL     1      -0.390  14.238  19.664  0.00  0.00    +0.000 Cl
ATOM     15  C   UNL     1      -1.482  13.078  21.842  0.00  0.00    +0.000 A 
ATOM     16  C   UNL     1      -1.619  12.042  22.770  0.00  0.00    +0.000 A 
ATOM     17  C   UNL     1      -0.829  10.890  22.657  0.00  0.00    +0.000 A 
BRANCH  17  18
ATOM     18  O   UNL     1      -0.977   9.891  23.585  0.00  0.00    +0.000 OA
ATOM     19  H   UNL     1      -0.451   9.119  23.302  0.00  0.00    +0.000 HD
ENDBRANCH  17  18
ENDBRANCH   8  11
ENDBRANCH   4   7
BRANCH   1  21
ATOM     20  O   UNL     1       3.735   3.230  19.325  0.00  0.00    +0.000 OA
ATOM     21  C   UNL     1       3.949   4.290  18.742  0.00  0.00    +0.000 C 
BRANCH  21  22
ATOM     22  C   UNL     1       5.000   4.350  17.686  0.00  0.00    +0.000 A 
ATOM     23  C   UNL     1       4.702   4.121  16.334  0.00  0.00    +0.000 A 
ATOM     24  C   UNL     1       5.703   4.223  15.367  0.00  0.00    +0.000 A 
ATOM     25  C   UNL     1       7.010   4.524  15.748  0.00  0.00    +0.000 A 
ATOM     26  C   UNL     1       7.319   4.724  17.094  0.00  0.00    +0.000 A 
ATOM     27  C   UNL     1       6.316   4.636  18.063  0.00  0.00    +0.000 A 
ENDBRANCH  21  22
ENDBRANCH   1  21
TORSDOF 5
ENDMDL
MODEL 9
REMARK VINA RESULT:      -8.0      7.200      8.642
REMARK  Name = 
REMARK  5 active torsions:
REMARK  status: ('A' for Active; 'I' for Inactive)
REMARK    1  A    between atoms: C_2  and  C_3
REMARK    2  A    between atoms: C_2  and  C_9
REMARK    3  A    between atoms: C_12  and  N_13
REMARK    4  A    between atoms: C_14  and  C_16
REMARK    5  A    between atoms: C_22  and  O_23
REMARK                            x       y       z     vdW  Elec       q    Type
REMARK                         _______ _______ _______ _____ _____    ______ ____
ROOT
ATOM      1  C   UNL     1       2.547   7.500  18.519  0.00  0.00    +0.000 A 
ATOM      2  C   UNL     1       2.015   8.581  17.819  0.00  0.00    +0.000 A 
ATOM      3  C   UNL     1       1.136   9.458  18.449  0.00  0.00    +0.000 A 
ATOM      4  C   UNL     1       0.797   9.307  19.795  0.00  0.00    +0.000 A 
ATOM      5  C   UNL     1       1.373   8.251  20.511  0.00  0.00    +0.000 A 
ATOM      6  C   UNL     1       2.243   7.349  19.877  0.00  0.00    +0.000 A 
ENDROOT
BRANCH   4   7
ATOM      7  N   UNL     1      -0.076  10.193  20.465  0.00  0.00    +0.000 N 
ATOM      8  C   UNL     1       0.295  11.348  21.132  0.00  0.00    +0.000 C 
ATOM      9  O   UNL     1       1.428  11.821  21.153  0.00  0.00    +0.000 OA
ATOM     10  H   UNL     1      -1.067   9.967  20.468  0.00  0.00    +0.000 HD
BRANCH   8  11
ATOM     11  C   UNL     1      -0.755  12.088  21.894  0.00  0.00    +0.000 A 
ATOM     12  C   UNL     1      -0.957  13.427  21.515  0.00  0.00    +0.000 A 
ATOM     13  C   UNL     1      -1.883  14.224  22.183  0.00  0.00    +0.000 A 
ATOM     14 CL   UNL     1      -2.095  15.864  21.712  0.00  0.00    +0.000 Cl
ATOM     15  C   UNL     1      -2.623  13.698  23.233  0.00  0.00    +0.000 A 
ATOM     16  C   UNL     1      -2.443  12.367  23.618  0.00  0.00    +0.000 A 
ATOM     17  C   UNL     1      -1.509  11.564  22.951  0.00  0.00    +0.000 A 
BRANCH  17  18
ATOM     18  O   UNL     1      -1.345  10.263  23.353  0.00  0.00    +0.000 OA
ATOM     19  H   UNL     1      -2.033   9.716  22.931  0.00  0.00    +0.000 HD
ENDBRANCH  17  18
ENDBRANCH   8  11
ENDBRANCH   4   7
BRANCH   1  21
ATOM     20  O   UNL     1       4.400   6.958  17.187  0.00  0.00    +0.000 OA
ATOM     21  C   UNL     1       3.452   6.535  17.844  0.00  0.00    +0.000 C 
BRANCH  21  22
ATOM     22  C   UNL     1       3.217   5.066  17.935  0.00  0.00    +0.000 A 
ATOM     23  C   UNL     1       4.266   4.162  18.160  0.00  0.00    +0.000 A 
ATOM     24  C   UNL     1       4.003   2.797  18.278  0.00  0.00    +0.000 A 
ATOM     25  C   UNL     1       2.699   2.324  18.141  0.00  0.00    +0.000 A 
ATOM     26  C   UNL     1       1.655   3.215  17.888  0.00  0.00    +0.000 A 
ATOM     27  C   UNL     1       1.912   4.585  17.784  0.00  0.00    +0.000 A 
ENDBRANCH  21  22
ENDBRANCH   1  21
TORSDOF 5
ENDMDL
