MODEL 1
REMARK VINA RESULT:      -9.3      0.000      0.000
REMARK  Name = 
REMARK  7 active torsions:
REMARK  status: ('A' for Active; 'I' for Inactive)
REMARK    1  A    between atoms: C_1  and  C_2
REMARK    2  A    between atoms: C_6  and  C_7
REMARK    3  A    between atoms: C_7  and  S_8
REMARK    4  A    between atoms: S_8  and  C_11
REMARK    5  A    between atoms: C_16  and  C_17
REMARK    6  A    between atoms: N_19  and  C_20
REMARK    7  A    between atoms: C_20  and  C_21
REMARK                            x       y       z     vdW  Elec       q    Type
REMARK                         _______ _______ _______ _____ _____    ______ ____
ROOT
ATOM      1  C   UNL     1       4.415   5.171  17.296  0.00  0.00    +0.000 A 
ATOM      2  N   UNL     1       4.035   4.011  16.728  0.00  0.00    +0.000 NA
ATOM      3  C   UNL     1       2.961   3.428  17.306  0.00  0.00    +0.000 A 
ATOM      4  C   UNL     1       2.297   3.923  18.417  0.00  0.00    +0.000 A 
ATOM      5 CL   UNL     1       0.967   3.025  19.025  0.00  0.00    +0.000 Cl
ATOM      6  C   UNL     1       2.797   5.113  18.928  0.00  0.00    +0.000 A 
ATOM      7  N   UNL     1       3.868   5.768  18.377  0.00  0.00    +0.000 NA
ENDROOT
BRANCH   6   8
ATOM      8  C   UNL     1       2.194   5.793  20.140  0.00  0.00    +0.000 C 
ATOM      9  O   UNL     1       1.873   5.182  21.156  0.00  0.00    +0.000 OA
ATOM     10  N   UNL     1       2.028   7.150  20.032  0.00  0.00    +0.000 N 
ATOM     11  H   UNL     1       2.343   7.598  19.174  0.00  0.00    +0.000 HD
BRANCH  10  12
ATOM     12  C   UNL     1       1.418   7.978  21.077  0.00  0.00    +0.000 C 
BRANCH  12  13
ATOM     13  C   UNL     1       0.916   9.246  20.425  0.00  0.00    +0.000 A 
ATOM     14  C   UNL     1       1.150   9.466  19.043  0.00  0.00    +0.000 A 
ATOM     15  C   UNL     1       1.281  10.763  18.545  0.00  0.00    +0.000 A 
ATOM     16  C   UNL     1       1.231  11.780  19.471  0.00  0.00    +0.000 A 
ATOM     17  C   UNL     1       0.842  11.567  20.779  0.00  0.00    +0.000 A 
ATOM     18  C   UNL     1       0.586  10.314  21.271  0.00  0.00    +0.000 A 
ATOM     19  O   UNL     1       1.049  12.668  21.559  0.00  0.00    +0.000 OA
ATOM     20  C   UNL     1       2.010  13.327  20.712  0.00  0.00    +0.000 C 
ATOM     21  O   UNL     1       1.768  13.027  19.316  0.00  0.00    +0.000 OA
ENDBRANCH  12  13
ENDBRANCH  10  12
ENDBRANCH   6   8
BRANCH   1  22
ATOM     22  S   UNL     1       5.761   6.045  16.471  0.00  0.00    +0.000 S 
ATOM     23  O   UNL     1       6.405   6.876  17.474  0.00  0.00    +0.000 OA
ATOM     24  O   UNL     1       5.202   6.642  15.263  0.00  0.00    +0.000 OA
BRANCH  22  25
ATOM     25  C   UNL     1       6.875   4.719  16.019  0.00  0.00    +0.000 C 
BRANCH  25  31
ATOM     26  C   UNL     1       5.324   2.549  11.726  0.00  0.00    +0.000 C 
ATOM     27  C   UNL     1       6.194   3.550  12.432  0.00  0.00    +0.000 A 
ATOM     28  C   UNL     1       7.070   4.367  11.711  0.00  0.00    +0.000 A 
ATOM     29  C   UNL     1       7.880   5.285  12.378  0.00  0.00    +0.000 A 
ATOM     30  C   UNL     1       7.825   5.396  13.769  0.00  0.00    +0.000 A 
ATOM     31  C   UNL     1       6.952   4.592  14.516  0.00  0.00    +0.000 A 
ATOM     32  C   UNL     1       6.142   3.665  13.831  0.00  0.00    +0.000 A 
ENDBRANCH  25  31
ENDBRANCH  22  25
ENDBRANCH   1  22
TORSDOF 6
ENDMDL
MODEL 2
REMARK VINA RESULT:      -9.1      2.242      2.696
REMARK  Name = 
REMARK  7 active torsions:
REMARK  status: ('A' for Active; 'I' for Inactive)
REMARK    1  A    between atoms: C_1  and  C_2
REMARK    2  A    between atoms: C_6  and  C_7
REMARK    3  A    between atoms: C_7  and  S_8
REMARK    4  A    between atoms: S_8  and  C_11
REMARK    5  A    between atoms: C_16  and  C_17
REMARK    6  A    between atoms: N_19  and  C_20
REMARK    7  A    between atoms: C_20  and  C_21
REMARK                            x       y       z     vdW  Elec       q    Type
REMARK                         _______ _______ _______ _____ _____    ______ ____
ROOT
ATOM      1  C   UNL     1       4.305   5.860  17.561  0.00  0.00    +0.000 A 
ATOM      2  N   UNL     1       4.017   4.545  17.558  0.00  0.00    +0.000 NA
ATOM      3  C   UNL     1       2.975   4.195  18.346  0.00  0.00    +0.000 A 
ATOM      4  C   UNL     1       2.258   5.075  19.141  0.00  0.00    +0.000 A 
ATOM      5 CL   UNL     1       0.982   4.438  20.096  0.00  0.00    +0.000 Cl
ATOM      6  C   UNL     1       2.665   6.401  19.078  0.00  0.00    +0.000 A 
ATOM      7  N   UNL     1       3.697   6.826  18.284  0.00  0.00    +0.000 NA
ENDROOT
BRANCH   6   8
ATOM      8  C   UNL     1       1.993   7.495  19.883  0.00  0.00    +0.000 C 
ATOM      9  O   UNL     1       1.711   7.369  21.072  0.00  0.00    +0.000 OA
ATOM     10  N   UNL     1       1.718   8.648  19.195  0.00  0.00    +0.000 N 
ATOM     11  H   UNL     1       2.005   8.697  18.220  0.00  0.00    +0.000 HD
BRANCH  10  12
ATOM     12  C   UNL     1       1.030   9.801  19.784  0.00  0.00    +0.000 C 
BRANCH  12  13
ATOM     13  C   UNL     1       0.237  10.474  18.688  0.00  0.00    +0.000 A 
ATOM     14  C   UNL     1       0.014  11.875  18.743  0.00  0.00    +0.000 A 
ATOM     15  C   UNL     1      -1.136  12.431  18.180  0.00  0.00    +0.000 A 
ATOM     16  C   UNL     1      -2.041  11.545  17.641  0.00  0.00    +0.000 A 
ATOM     17  C   UNL     1      -1.741  10.211  17.449  0.00  0.00    +0.000 A 
ATOM     18  C   UNL     1      -0.566   9.656  17.881  0.00  0.00    +0.000 A 
ATOM     19  O   UNL     1      -2.841   9.487  17.085  0.00  0.00    +0.000 OA
ATOM     20  C   UNL     1      -3.842  10.411  17.553  0.00  0.00    +0.000 C 
ATOM     21  O   UNL     1      -3.375  11.779  17.462  0.00  0.00    +0.000 OA
ENDBRANCH  12  13
ENDBRANCH  10  12
ENDBRANCH   6   8
BRANCH   1  22
ATOM     22  S   UNL     1       5.602   6.381  16.421  0.00  0.00    +0.000 S 
ATOM     23  O   UNL     1       6.463   7.299  17.149  0.00  0.00    +0.000 OA
ATOM     24  O   UNL     1       4.942   6.804  15.191  0.00  0.00    +0.000 OA
BRANCH  22  25
ATOM     25  C   UNL     1       6.501   4.863  16.121  0.00  0.00    +0.000 C 
BRANCH  25  31
ATOM     26  C   UNL     1       5.375   2.578  11.756  0.00  0.00    +0.000 C 
ATOM     27  C   UNL     1       6.187   3.583  12.521  0.00  0.00    +0.000 A 
ATOM     28  C   UNL     1       7.159   4.355  11.875  0.00  0.00    +0.000 A 
ATOM     29  C   UNL     1       7.914   5.278  12.598  0.00  0.00    +0.000 A 
ATOM     30  C   UNL     1       7.709   5.439  13.969  0.00  0.00    +0.000 A 
ATOM     31  C   UNL     1       6.738   4.681  14.641  0.00  0.00    +0.000 A 
ATOM     32  C   UNL     1       5.985   3.749  13.902  0.00  0.00    +0.000 A 
ENDBRANCH  25  31
ENDBRANCH  22  25
ENDBRANCH   1  22
TORSDOF 6
ENDMDL
MODEL 3
REMARK VINA RESULT:      -9.1      1.513      1.982
REMARK  Name = 
REMARK  7 active torsions:
REMARK  status: ('A' for Active; 'I' for Inactive)
REMARK    1  A    between atoms: C_1  and  C_2
REMARK    2  A    between atoms: C_6  and  C_7
REMARK    3  A    between atoms: C_7  and  S_8
REMARK    4  A    between atoms: S_8  and  C_11
REMARK    5  A    between atoms: C_16  and  C_17
REMARK    6  A    between atoms: N_19  and  C_20
REMARK    7  A    between atoms: C_20  and  C_21
REMARK                            x       y       z     vdW  Elec       q    Type
REMARK                         _______ _______ _______ _____ _____    ______ ____
ROOT
ATOM      1  C   UNL     1       4.346   5.343  17.342  0.00  0.00    +0.000 A 
ATOM      2  N   UNL     1       4.004   4.118  16.900  0.00  0.00    +0.000 NA
ATOM      3  C   UNL     1       2.929   3.577  17.516  0.00  0.00    +0.000 A 
ATOM      4  C   UNL     1       2.229   4.178  18.550  0.00  0.00    +0.000 A 
ATOM      5 CL   UNL     1       0.903   3.321  19.227  0.00  0.00    +0.000 Cl
ATOM      6  C   UNL     1       2.691   5.429  18.935  0.00  0.00    +0.000 A 
ATOM      7  N   UNL     1       3.760   6.043  18.338  0.00  0.00    +0.000 NA
ENDROOT
BRANCH   6   8
ATOM      8  C   UNL     1       2.044   6.226  20.049  0.00  0.00    +0.000 C 
ATOM      9  O   UNL     1       1.678   5.717  21.106  0.00  0.00    +0.000 OA
ATOM     10  N   UNL     1       1.893   7.566  19.804  0.00  0.00    +0.000 N 
ATOM     11  H   UNL     1       2.246   7.928  18.921  0.00  0.00    +0.000 HD
BRANCH  10  12
ATOM     12  C   UNL     1       1.248   8.494  20.738  0.00  0.00    +0.000 C 
BRANCH  12  13
ATOM     13  C   UNL     1       0.847   9.726  19.960  0.00  0.00    +0.000 A 
ATOM     14  C   UNL     1       0.574  10.935  20.651  0.00  0.00    +0.000 A 
ATOM     15  C   UNL     1      -0.338  11.856  20.133  0.00  0.00    +0.000 A 
ATOM     16  C   UNL     1      -0.982  11.490  18.973  0.00  0.00    +0.000 A 
ATOM     17  C   UNL     1      -0.592  10.395  18.228  0.00  0.00    +0.000 A 
ATOM     18  C   UNL     1       0.388   9.535  18.649  0.00  0.00    +0.000 A 
ATOM     19  O   UNL     1      -1.483  10.111  17.232  0.00  0.00    +0.000 OA
ATOM     20  C   UNL     1      -2.612  10.821  17.776  0.00  0.00    +0.000 C 
ATOM     21  O   UNL     1      -2.186  11.973  18.543  0.00  0.00    +0.000 OA
ENDBRANCH  12  13
ENDBRANCH  10  12
ENDBRANCH   6   8
BRANCH   1  22
ATOM     22  S   UNL     1       5.693   6.150  16.454  0.00  0.00    +0.000 S 
ATOM     23  O   UNL     1       6.357   7.031  17.399  0.00  0.00    +0.000 OA
ATOM     24  O   UNL     1       5.128   6.680  15.218  0.00  0.00    +0.000 OA
BRANCH  22  25
ATOM     25  C   UNL     1       6.788   4.787  16.070  0.00  0.00    +0.000 C 
BRANCH  25  31
ATOM     26  C   UNL     1       5.323   2.511  11.801  0.00  0.00    +0.000 C 
ATOM     27  C   UNL     1       6.186   3.522  12.502  0.00  0.00    +0.000 A 
ATOM     28  C   UNL     1       7.091   4.307  11.781  0.00  0.00    +0.000 A 
ATOM     29  C   UNL     1       7.896   5.234  12.442  0.00  0.00    +0.000 A 
ATOM     30  C   UNL     1       7.805   5.386  13.827  0.00  0.00    +0.000 A 
ATOM     31  C   UNL     1       6.902   4.615  14.574  0.00  0.00    +0.000 A 
ATOM     32  C   UNL     1       6.099   3.678  13.895  0.00  0.00    +0.000 A 
ENDBRANCH  25  31
ENDBRANCH  22  25
ENDBRANCH   1  22
TORSDOF 6
ENDMDL
MODEL 4
REMARK VINA RESULT:      -9.0      1.109      1.159
REMARK  Name = 
REMARK  7 active torsions:
REMARK  status: ('A' for Active; 'I' for Inactive)
REMARK    1  A    between atoms: C_1  and  C_2
REMARK    2  A    between atoms: C_6  and  C_7
REMARK    3  A    between atoms: C_7  and  S_8
REMARK    4  A    between atoms: S_8  and  C_11
REMARK    5  A    between atoms: C_16  and  C_17
REMARK    6  A    between atoms: N_19  and  C_20
REMARK    7  A    between atoms: C_20  and  C_21
REMARK                            x       y       z     vdW  Elec       q    Type
REMARK                         _______ _______ _______ _____ _____    ______ ____
ROOT
ATOM      1  C   UNL     1       4.961   4.997  18.210  0.00  0.00    +0.000 A 
ATOM      2  N   UNL     1       5.372   3.758  18.541  0.00  0.00    +0.000 NA
ATOM      3  C   UNL     1       4.616   3.147  19.480  0.00  0.00    +0.000 A 
ATOM      4  C   UNL     1       3.523   3.723  20.109  0.00  0.00    +0.000 A 
ATOM      5 CL   UNL     1       2.702   2.797  21.299  0.00  0.00    +0.000 Cl
ATOM      6  C   UNL     1       3.212   5.013  19.701  0.00  0.00    +0.000 A 
ATOM      7  N   UNL     1       3.923   5.681  18.739  0.00  0.00    +0.000 NA
ENDROOT
BRANCH   6   8
ATOM      8  C   UNL     1       2.050   5.791  20.285  0.00  0.00    +0.000 C 
ATOM      9  O   UNL     1       0.972   5.271  20.560  0.00  0.00    +0.000 OA
ATOM     10  N   UNL     1       2.281   7.126  20.493  0.00  0.00    +0.000 N 
ATOM     11  H   UNL     1       3.207   7.486  20.272  0.00  0.00    +0.000 HD
BRANCH  10  12
ATOM     12  C   UNL     1       1.269   8.054  21.005  0.00  0.00    +0.000 C 
BRANCH  12  13
ATOM     13  C   UNL     1       1.027   9.104  19.945  0.00  0.00    +0.000 A 
ATOM     14  C   UNL     1       1.630   8.964  18.668  0.00  0.00    +0.000 A 
ATOM     15  C   UNL     1       1.960  10.092  17.914  0.00  0.00    +0.000 A 
ATOM     16  C   UNL     1       1.724  11.312  18.506  0.00  0.00    +0.000 A 
ATOM     17  C   UNL     1       0.993  11.437  19.670  0.00  0.00    +0.000 A 
ATOM     18  C   UNL     1       0.547  10.349  20.374  0.00  0.00    +0.000 A 
ATOM     19  O   UNL     1       1.048  12.705  20.175  0.00  0.00    +0.000 OA
ATOM     20  C   UNL     1       2.233  13.137  19.480  0.00  0.00    +0.000 C 
ATOM     21  O   UNL     1       2.352  12.484  18.192  0.00  0.00    +0.000 OA
ENDBRANCH  12  13
ENDBRANCH  10  12
ENDBRANCH   6   8
BRANCH   1  22
ATOM     22  S   UNL     1       5.866   5.791  16.867  0.00  0.00    +0.000 S 
ATOM     23  O   UNL     1       6.688   6.830  17.465  0.00  0.00    +0.000 OA
ATOM     24  O   UNL     1       4.890   6.122  15.835  0.00  0.00    +0.000 OA
BRANCH  22  25
ATOM     25  C   UNL     1       6.932   4.480  16.278  0.00  0.00    +0.000 C 
BRANCH  25  31
ATOM     26  C   UNL     1       5.351   2.722  11.811  0.00  0.00    +0.000 C 
ATOM     27  C   UNL     1       6.222   3.655  12.602  0.00  0.00    +0.000 A 
ATOM     28  C   UNL     1       7.089   4.541  11.954  0.00  0.00    +0.000 A 
ATOM     29  C   UNL     1       7.902   5.396  12.699  0.00  0.00    +0.000 A 
ATOM     30  C   UNL     1       7.858   5.373  14.094  0.00  0.00    +0.000 A 
ATOM     31  C   UNL     1       6.996   4.497  14.769  0.00  0.00    +0.000 A 
ATOM     32  C   UNL     1       6.183   3.636  14.006  0.00  0.00    +0.000 A 
ENDBRANCH  25  31
ENDBRANCH  22  25
ENDBRANCH   1  22
TORSDOF 6
ENDMDL
MODEL 5
REMARK VINA RESULT:      -8.7      1.517      2.061
REMARK  Name = 
REMARK  7 active torsions:
REMARK  status: ('A' for Active; 'I' for Inactive)
REMARK    1  A    between atoms: C_1  and  C_2
REMARK    2  A    between atoms: C_6  and  C_7
REMARK    3  A    between atoms: C_7  and  S_8
REMARK    4  A    between atoms: S_8  and  C_11
REMARK    5  A    between atoms: C_16  and  C_17
REMARK    6  A    between atoms: N_19  and  C_20
REMARK    7  A    between atoms: C_20  and  C_21
REMARK                            x       y       z     vdW  Elec       q    Type
REMARK                         _______ _______ _______ _____ _____    ______ ____
ROOT
ATOM      1  C   UNL     1       5.258   4.830  19.210  0.00  0.00    +0.000 A 
ATOM      2  N   UNL     1       5.391   3.494  19.305  0.00  0.00    +0.000 NA
ATOM      3  C   UNL     1       4.298   2.852  19.775  0.00  0.00    +0.000 A 
ATOM      4  C   UNL     1       3.128   3.478  20.177  0.00  0.00    +0.000 A 
ATOM      5 CL   UNL     1       1.854   2.493  20.772  0.00  0.00    +0.000 Cl
ATOM      6  C   UNL     1       3.120   4.861  20.054  0.00  0.00    +0.000 A 
ATOM      7  N   UNL     1       4.185   5.571  19.565  0.00  0.00    +0.000 NA
ENDROOT
BRANCH   6   8
ATOM      8  C   UNL     1       1.925   5.703  20.449  0.00  0.00    +0.000 C 
ATOM      9  O   UNL     1       0.788   5.246  20.538  0.00  0.00    +0.000 OA
ATOM     10  N   UNL     1       2.193   7.023  20.706  0.00  0.00    +0.000 N 
ATOM     11  H   UNL     1       3.161   7.329  20.644  0.00  0.00    +0.000 HD
BRANCH  10  12
ATOM     12  C   UNL     1       1.164   8.007  21.056  0.00  0.00    +0.000 C 
BRANCH  12  13
ATOM     13  C   UNL     1       1.020   8.957  19.890  0.00  0.00    +0.000 A 
ATOM     14  C   UNL     1       1.724   8.701  18.684  0.00  0.00    +0.000 A 
ATOM     15  C   UNL     1       2.124   9.755  17.861  0.00  0.00    +0.000 A 
ATOM     16  C   UNL     1       1.852  11.024  18.320  0.00  0.00    +0.000 A 
ATOM     17  C   UNL     1       1.029  11.255  19.404  0.00  0.00    +0.000 A 
ATOM     18  C   UNL     1       0.517  10.237  20.163  0.00  0.00    +0.000 A 
ATOM     19  O   UNL     1       1.054  12.564  19.795  0.00  0.00    +0.000 OA
ATOM     20  C   UNL     1       2.297  12.929  19.163  0.00  0.00    +0.000 C 
ATOM     21  O   UNL     1       2.514  12.163  17.954  0.00  0.00    +0.000 OA
ENDBRANCH  12  13
ENDBRANCH  10  12
ENDBRANCH   6   8
BRANCH   1  22
ATOM     22  S   UNL     1       6.647   5.706  18.464  0.00  0.00    +0.000 S 
ATOM     23  O   UNL     1       7.522   6.118  19.549  0.00  0.00    +0.000 OA
ATOM     24  O   UNL     1       6.085   6.694  17.550  0.00  0.00    +0.000 OA
BRANCH  22  25
ATOM     25  C   UNL     1       7.464   4.423  17.521  0.00  0.00    +0.000 C 
BRANCH  25  31
ATOM     26  C   UNL     1       7.952   5.514  12.610  0.00  0.00    +0.000 C 
ATOM     27  C   UNL     1       7.160   4.901  13.729  0.00  0.00    +0.000 A 
ATOM     28  C   UNL     1       5.927   4.291  13.478  0.00  0.00    +0.000 A 
ATOM     29  C   UNL     1       5.195   3.735  14.527  0.00  0.00    +0.000 A 
ATOM     30  C   UNL     1       5.685   3.782  15.834  0.00  0.00    +0.000 A 
ATOM     31  C   UNL     1       6.921   4.384  16.112  0.00  0.00    +0.000 A 
ATOM     32  C   UNL     1       7.649   4.946  15.046  0.00  0.00    +0.000 A 
ENDBRANCH  25  31
ENDBRANCH  22  25
ENDBRANCH   1  22
TORSDOF 6
ENDMDL
MODEL 6
REMARK VINA RESULT:      -8.6      2.032      2.768
REMARK  Name = 
REMARK  7 active torsions:
REMARK  status: ('A' for Active; 'I' for Inactive)
REMARK    1  A    between atoms: C_1  and  C_2
REMARK    2  A    between atoms: C_6  and  C_7
REMARK    3  A    between atoms: C_7  and  S_8
REMARK    4  A    between atoms: S_8  and  C_11
REMARK    5  A    between atoms: C_16  and  C_17
REMARK    6  A    between atoms: N_19  and  C_20
REMARK    7  A    between atoms: C_20  and  C_21
REMARK                            x       y       z     vdW  Elec       q    Type
REMARK                         _______ _______ _______ _____ _____    ______ ____
ROOT
ATOM      1  C   UNL     1       4.630   6.360  17.643  0.00  0.00    +0.000 A 
ATOM      2  N   UNL     1       4.713   5.388  18.572  0.00  0.00    +0.000 NA
ATOM      3  C   UNL     1       3.714   5.394  19.483  0.00  0.00    +0.000 A 
ATOM      4  C   UNL     1       2.690   6.327  19.522  0.00  0.00    +0.000 A 
ATOM      5 CL   UNL     1       1.524   6.186  20.775  0.00  0.00    +0.000 Cl
ATOM      6  C   UNL     1       2.725   7.294  18.527  0.00  0.00    +0.000 A 
ATOM      7  N   UNL     1       3.696   7.332  17.561  0.00  0.00    +0.000 NA
ENDROOT
BRANCH   6   8
ATOM      8  C   UNL     1       1.685   8.390  18.423  0.00  0.00    +0.000 C 
ATOM      9  O   UNL     1       0.859   8.441  17.515  0.00  0.00    +0.000 OA
ATOM     10  N   UNL     1       1.720   9.332  19.419  0.00  0.00    +0.000 N 
ATOM     11  H   UNL     1       2.410   9.213  20.157  0.00  0.00    +0.000 HD
BRANCH  10  12
ATOM     12  C   UNL     1       0.828  10.494  19.468  0.00  0.00    +0.000 C 
BRANCH  12  13
ATOM     13  C   UNL     1       0.482  10.749  20.918  0.00  0.00    +0.000 A 
ATOM     14  C   UNL     1       0.178   9.655  21.769  0.00  0.00    +0.000 A 
ATOM     15  C   UNL     1      -0.695   9.819  22.846  0.00  0.00    +0.000 A 
ATOM     16  C   UNL     1      -1.271  11.061  22.981  0.00  0.00    +0.000 A 
ATOM     17  C   UNL     1      -0.846  12.153  22.252  0.00  0.00    +0.000 A 
ATOM     18  C   UNL     1       0.101  12.052  21.267  0.00  0.00    +0.000 A 
ATOM     19  O   UNL     1      -1.678  13.226  22.406  0.00  0.00    +0.000 OA
ATOM     20  C   UNL     1      -2.832  12.507  22.881  0.00  0.00    +0.000 C 
ATOM     21  O   UNL     1      -2.444  11.330  23.629  0.00  0.00    +0.000 OA
ENDBRANCH  12  13
ENDBRANCH  10  12
ENDBRANCH   6   8
BRANCH   1  22
ATOM     22  S   UNL     1       5.871   6.303  16.335  0.00  0.00    +0.000 S 
ATOM     23  O   UNL     1       7.134   6.704  16.931  0.00  0.00    +0.000 OA
ATOM     24  O   UNL     1       5.324   7.034  15.198  0.00  0.00    +0.000 OA
BRANCH  22  25
ATOM     25  C   UNL     1       5.950   4.559  15.939  0.00  0.00    +0.000 C 
BRANCH  25  31
ATOM     26  C   UNL     1       4.856   2.710  11.364  0.00  0.00    +0.000 C 
ATOM     27  C   UNL     1       5.776   3.485  12.263  0.00  0.00    +0.000 A 
ATOM     28  C   UNL     1       6.961   4.037  11.764  0.00  0.00    +0.000 A 
ATOM     29  C   UNL     1       7.813   4.746  12.610  0.00  0.00    +0.000 A 
ATOM     30  C   UNL     1       7.493   4.910  13.959  0.00  0.00    +0.000 A 
ATOM     31  C   UNL     1       6.309   4.370  14.484  0.00  0.00    +0.000 A 
ATOM     32  C   UNL     1       5.459   3.653  13.621  0.00  0.00    +0.000 A 
ENDBRANCH  25  31
ENDBRANCH  22  25
ENDBRANCH   1  22
TORSDOF 6
ENDMDL
MODEL 7
REMARK VINA RESULT:      -8.5      1.286      1.634
REMARK  Name = 
REMARK  7 active torsions:
REMARK  status: ('A' for Active; 'I' for Inactive)
REMARK    1  A    between atoms: C_1  and  C_2
REMARK    2  A    between atoms: C_6  and  C_7
REMARK    3  A    between atoms: C_7  and  S_8
REMARK    4  A    between atoms: S_8  and  C_11
REMARK    5  A    between atoms: C_16  and  C_17
REMARK    6  A    between atoms: N_19  and  C_20
REMARK    7  A    between atoms: C_20  and  C_21
REMARK                            x       y       z     vdW  Elec       q    Type
REMARK                         _______ _______ _______ _____ _____    ______ ____
ROOT
ATOM      1  C   UNL     1       4.373   5.844  17.529  0.00  0.00    +0.000 A 
ATOM      2  N   UNL     1       4.124   4.521  17.524  0.00  0.00    +0.000 NA
ATOM      3  C   UNL     1       3.089   4.140  18.307  0.00  0.00    +0.000 A 
ATOM      4  C   UNL     1       2.342   4.998  19.097  0.00  0.00    +0.000 A 
ATOM      5 CL   UNL     1       1.080   4.322  20.046  0.00  0.00    +0.000 Cl
ATOM      6  C   UNL     1       2.708   6.336  19.037  0.00  0.00    +0.000 A 
ATOM      7  N   UNL     1       3.732   6.792  18.248  0.00  0.00    +0.000 NA
ENDROOT
BRANCH   6   8
ATOM      8  C   UNL     1       1.999   7.408  19.837  0.00  0.00    +0.000 C 
ATOM      9  O   UNL     1       1.786   7.309  21.043  0.00  0.00    +0.000 OA
ATOM     10  N   UNL     1       1.607   8.512  19.125  0.00  0.00    +0.000 N 
ATOM     11  H   UNL     1       1.842   8.544  18.136  0.00  0.00    +0.000 HD
BRANCH  10  12
ATOM     12  C   UNL     1       0.867   9.635  19.710  0.00  0.00    +0.000 C 
BRANCH  12  13
ATOM     13  C   UNL     1       1.018  10.819  18.783  0.00  0.00    +0.000 A 
ATOM     14  C   UNL     1       2.303  11.168  18.293  0.00  0.00    +0.000 A 
ATOM     15  C   UNL     1       2.606  12.495  17.984  0.00  0.00    +0.000 A 
ATOM     16  C   UNL     1       1.622  13.421  18.241  0.00  0.00    +0.000 A 
ATOM     17  C   UNL     1       0.330  13.054  18.561  0.00  0.00    +0.000 A 
ATOM     18  C   UNL     1      -0.033  11.747  18.752  0.00  0.00    +0.000 A 
ATOM     19  O   UNL     1      -0.421  14.123  18.959  0.00  0.00    +0.000 OA
ATOM     20  C   UNL     1       0.665  15.009  19.292  0.00  0.00    +0.000 C 
ATOM     21  O   UNL     1       1.820  14.756  18.456  0.00  0.00    +0.000 OA
ENDBRANCH  12  13
ENDBRANCH  10  12
ENDBRANCH   6   8
BRANCH   1  22
ATOM     22  S   UNL     1       5.660   6.405  16.397  0.00  0.00    +0.000 S 
ATOM     23  O   UNL     1       6.493   7.342  17.131  0.00  0.00    +0.000 OA
ATOM     24  O   UNL     1       4.993   6.815  15.166  0.00  0.00    +0.000 OA
BRANCH  22  25
ATOM     25  C   UNL     1       6.600   4.912  16.094  0.00  0.00    +0.000 C 
BRANCH  25  31
ATOM     26  C   UNL     1       5.333   2.583  11.791  0.00  0.00    +0.000 C 
ATOM     27  C   UNL     1       6.175   3.590  12.521  0.00  0.00    +0.000 A 
ATOM     28  C   UNL     1       7.136   4.344  11.839  0.00  0.00    +0.000 A 
ATOM     29  C   UNL     1       7.919   5.269  12.528  0.00  0.00    +0.000 A 
ATOM     30  C   UNL     1       7.753   5.449  13.903  0.00  0.00    +0.000 A 
ATOM     31  C   UNL     1       6.795   4.709  14.611  0.00  0.00    +0.000 A 
ATOM     32  C   UNL     1       6.013   3.775  13.904  0.00  0.00    +0.000 A 
ENDBRANCH  25  31
ENDBRANCH  22  25
ENDBRANCH   1  22
TORSDOF 6
ENDMDL
MODEL 8
REMARK VINA RESULT:      -8.4      0.304      1.243
REMARK  Name = 
REMARK  7 active torsions:
REMARK  status: ('A' for Active; 'I' for Inactive)
REMARK    1  A    between atoms: C_1  and  C_2
REMARK    2  A    between atoms: C_6  and  C_7
REMARK    3  A    between atoms: C_7  and  S_8
REMARK    4  A    between atoms: S_8  and  C_11
REMARK    5  A    between atoms: C_16  and  C_17
REMARK    6  A    between atoms: N_19  and  C_20
REMARK    7  A    between atoms: C_20  and  C_21
REMARK                            x       y       z     vdW  Elec       q    Type
REMARK                         _______ _______ _______ _____ _____    ______ ____
ROOT
ATOM      1  C   UNL     1       4.384   5.137  17.448  0.00  0.00    +0.000 A 
ATOM      2  N   UNL     1       4.010   3.969  16.890  0.00  0.00    +0.000 NA
ATOM      3  C   UNL     1       2.924   3.398  17.457  0.00  0.00    +0.000 A 
ATOM      4  C   UNL     1       2.241   3.912  18.548  0.00  0.00    +0.000 A 
ATOM      5 CL   UNL     1       0.897   3.026  19.144  0.00  0.00    +0.000 Cl
ATOM      6  C   UNL     1       2.735   5.108  19.050  0.00  0.00    +0.000 A 
ATOM      7  N   UNL     1       3.818   5.751  18.511  0.00  0.00    +0.000 NA
ENDROOT
BRANCH   6   8
ATOM      8  C   UNL     1       2.111   5.807  20.240  0.00  0.00    +0.000 C 
ATOM      9  O   UNL     1       1.724   5.206  21.239  0.00  0.00    +0.000 OA
ATOM     10  N   UNL     1       2.006   7.170  20.134  0.00  0.00    +0.000 N 
ATOM     11  H   UNL     1       2.374   7.608  19.292  0.00  0.00    +0.000 HD
BRANCH  10  12
ATOM     12  C   UNL     1       1.389   8.019  21.157  0.00  0.00    +0.000 C 
BRANCH  12  13
ATOM     13  C   UNL     1       0.906   9.281  20.480  0.00  0.00    +0.000 A 
ATOM     14  C   UNL     1       1.125   9.459  19.090  0.00  0.00    +0.000 A 
ATOM     15  C   UNL     1       1.278  10.740  18.556  0.00  0.00    +0.000 A 
ATOM     16  C   UNL     1       1.264  11.781  19.456  0.00  0.00    +0.000 A 
ATOM     17  C   UNL     1       0.889  11.611  20.774  0.00  0.00    +0.000 A 
ATOM     18  C   UNL     1       0.612  10.378  21.302  0.00  0.00    +0.000 A 
ATOM     19  O   UNL     1       1.132  12.727  21.523  0.00  0.00    +0.000 OA
ATOM     20  C   UNL     1       2.095  13.342  20.645  0.00  0.00    +0.000 C 
ATOM     21  O   UNL     1       1.827  13.011  19.261  0.00  0.00    +0.000 OA
ENDBRANCH  12  13
ENDBRANCH  10  12
ENDBRANCH   6   8
BRANCH   1  22
ATOM     22  S   UNL     1       5.748   5.993  16.636  0.00  0.00    +0.000 S 
ATOM     23  O   UNL     1       6.422   6.780  17.656  0.00  0.00    +0.000 OA
ATOM     24  O   UNL     1       5.198   6.637  15.449  0.00  0.00    +0.000 OA
BRANCH  22  25
ATOM     25  C   UNL     1       6.821   4.650  16.141  0.00  0.00    +0.000 C 
BRANCH  25  31
ATOM     26  C   UNL     1       8.482   6.288  11.657  0.00  0.00    +0.000 C 
ATOM     27  C   UNL     1       7.664   5.318  12.461  0.00  0.00    +0.000 A 
ATOM     28  C   UNL     1       6.934   4.306  11.829  0.00  0.00    +0.000 A 
ATOM     29  C   UNL     1       6.170   3.417  12.585  0.00  0.00    +0.000 A 
ATOM     30  C   UNL     1       6.126   3.531  13.976  0.00  0.00    +0.000 A 
ATOM     31  C   UNL     1       6.852   4.534  14.636  0.00  0.00    +0.000 A 
ATOM     32  C   UNL     1       7.616   5.428  13.861  0.00  0.00    +0.000 A 
ENDBRANCH  25  31
ENDBRANCH  22  25
ENDBRANCH   1  22
TORSDOF 6
ENDMDL
MODEL 9
REMARK VINA RESULT:      -8.4      1.571      2.013
REMARK  Name = 
REMARK  7 active torsions:
REMARK  status: ('A' for Active; 'I' for Inactive)
REMARK    1  A    between atoms: C_1  and  C_2
REMARK    2  A    between atoms: C_6  and  C_7
REMARK    3  A    between atoms: C_7  and  S_8
REMARK    4  A    between atoms: S_8  and  C_11
REMARK    5  A    between atoms: C_16  and  C_17
REMARK    6  A    between atoms: N_19  and  C_20
REMARK    7  A    between atoms: C_20  and  C_21
REMARK                            x       y       z     vdW  Elec       q    Type
REMARK                         _______ _______ _______ _____ _____    ______ ____
ROOT
ATOM      1  C   UNL     1       4.827   4.915  18.353  0.00  0.00    +0.000 A 
ATOM      2  N   UNL     1       5.271   3.692  18.703  0.00  0.00    +0.000 NA
ATOM      3  C   UNL     1       4.525   3.071  19.644  0.00  0.00    +0.000 A 
ATOM      4  C   UNL     1       3.411   3.623  20.257  0.00  0.00    +0.000 A 
ATOM      5 CL   UNL     1       2.608   2.689  21.453  0.00  0.00    +0.000 Cl
ATOM      6  C   UNL     1       3.066   4.898  19.831  0.00  0.00    +0.000 A 
ATOM      7  N   UNL     1       3.765   5.574  18.866  0.00  0.00    +0.000 NA
ENDROOT
BRANCH   6   8
ATOM      8  C   UNL     1       1.879   5.649  20.396  0.00  0.00    +0.000 C 
ATOM      9  O   UNL     1       0.765   5.144  20.514  0.00  0.00    +0.000 OA
ATOM     10  N   UNL     1       2.126   6.943  20.776  0.00  0.00    +0.000 N 
ATOM     11  H   UNL     1       3.078   7.290  20.679  0.00  0.00    +0.000 HD
BRANCH  10  12
ATOM     12  C   UNL     1       1.098   7.846  21.301  0.00  0.00    +0.000 C 
BRANCH  12  13
ATOM     13  C   UNL     1       1.116   9.103  20.462  0.00  0.00    +0.000 A 
ATOM     14  C   UNL     1       1.089  10.372  21.097  0.00  0.00    +0.000 A 
ATOM     15  C   UNL     1       0.508  11.470  20.460  0.00  0.00    +0.000 A 
ATOM     16  C   UNL     1      -0.076  11.227  19.238  0.00  0.00    +0.000 A 
ATOM     17  C   UNL     1       0.098  10.037  18.561  0.00  0.00    +0.000 A 
ATOM     18  C   UNL     1       0.771   8.976  19.109  0.00  0.00    +0.000 A 
ATOM     19  O   UNL     1      -0.719   9.944  17.471  0.00  0.00    +0.000 OA
ATOM     20  C   UNL     1      -1.681  10.941  17.867  0.00  0.00    +0.000 C 
ATOM     21  O   UNL     1      -1.060  11.980  18.661  0.00  0.00    +0.000 OA
ENDBRANCH  12  13
ENDBRANCH  10  12
ENDBRANCH   6   8
BRANCH   1  22
ATOM     22  S   UNL     1       5.719   5.718  17.007  0.00  0.00    +0.000 S 
ATOM     23  O   UNL     1       6.524   6.773  17.600  0.00  0.00    +0.000 OA
ATOM     24  O   UNL     1       4.738   6.028  15.973  0.00  0.00    +0.000 OA
BRANCH  22  25
ATOM     25  C   UNL     1       6.808   4.422  16.424  0.00  0.00    +0.000 C 
BRANCH  25  31
ATOM     26  C   UNL     1       5.325   2.818  11.866  0.00  0.00    +0.000 C 
ATOM     27  C   UNL     1       6.196   3.706  12.708  0.00  0.00    +0.000 A 
ATOM     28  C   UNL     1       7.108   4.582  12.110  0.00  0.00    +0.000 A 
ATOM     29  C   UNL     1       7.920   5.395  12.902  0.00  0.00    +0.000 A 
ATOM     30  C   UNL     1       7.830   5.340  14.294  0.00  0.00    +0.000 A 
ATOM     31  C   UNL     1       6.921   4.473  14.919  0.00  0.00    +0.000 A 
ATOM     32  C   UNL     1       6.110   3.655  14.109  0.00  0.00    +0.000 A 
ENDBRANCH  25  31
ENDBRANCH  22  25
ENDBRANCH   1  22
TORSDOF 6
ENDMDL
