MODEL 1
REMARK VINA RESULT:      -8.1      0.000      0.000
REMARK  Name = 
REMARK  9 active torsions:
REMARK  status: ('A' for Active; 'I' for Inactive)
REMARK    1  A    between atoms: N_1  and  C_2
REMARK    2  A    between atoms: C_8  and  C_9
REMARK    3  A    between atoms: C_13  and  O_14
REMARK    4  A    between atoms: O_14  and  C_15
REMARK    5  A    between atoms: C_15  and  C_16
REMARK    6  A    between atoms: C_16  and  O_17
REMARK    7  A    between atoms: N_20  and  C_21
REMARK    8  A    between atoms: C_23  and  C_24
REMARK    9  A    between atoms: C_24  and  N_25
REMARK                            x       y       z     vdW  Elec       q    Type
REMARK                         _______ _______ _______ _____ _____    ______ ____
ROOT
ATOM      1  C   UNL     1       1.672   3.857  19.614  0.00  0.00    +0.000 A 
ATOM      2  N   UNL     1       1.785   2.522  19.760  0.00  0.00    +0.000 NA
ATOM      3  C   UNL     1       2.748   1.879  19.070  0.00  0.00    +0.000 A 
ATOM      4  N   UNL     1       3.637   2.400  18.204  0.00  0.00    +0.000 NA
ATOM      5  C   UNL     1       3.502   3.733  18.094  0.00  0.00    +0.000 A 
ATOM      6  C   UNL     1       2.566   4.532  18.763  0.00  0.00    +0.000 A 
ATOM      7  C   UNL     1       2.810   5.888  18.361  0.00  0.00    +0.000 A 
ATOM      8  C   UNL     1       3.853   5.852  17.457  0.00  0.00    +0.000 A 
ATOM      9  N   UNL     1       4.274   4.561  17.311  0.00  0.00    +0.000 N 
ENDROOT
BRANCH   7  10
ATOM     10  C   UNL     1       2.202   7.160  18.742  0.00  0.00    +0.000 A 
ATOM     11  C   UNL     1       1.930   8.137  17.776  0.00  0.00    +0.000 A 
ATOM     12  C   UNL     1       1.368   9.358  18.142  0.00  0.00    +0.000 A 
ATOM     13  C   UNL     1       1.045   9.597  19.475  0.00  0.00    +0.000 A 
ATOM     14  C   UNL     1       1.324   8.641  20.452  0.00  0.00    +0.000 A 
ATOM     15  C   UNL     1       1.924   7.436  20.085  0.00  0.00    +0.000 A 
BRANCH  14  16
ATOM     16  O   UNL     1       0.941   8.979  21.723  0.00  0.00    +0.000 OA
BRANCH  16  17
ATOM     17  C   UNL     1       0.030  10.079  21.832  0.00  0.00    +0.000 C 
BRANCH  17  18
ATOM     18  C   UNL     1      -0.663   9.976  23.190  0.00  0.00    +0.000 C 
BRANCH  18  19
ATOM     19  O   UNL     1      -1.604  11.036  23.344  0.00  0.00    +0.000 OA
ATOM     20  H   UNL     1      -1.116  11.861  23.159  0.00  0.00    +0.000 HD
ENDBRANCH  18  19
ENDBRANCH  17  18
ENDBRANCH  16  17
ENDBRANCH  14  16
ENDBRANCH   7  10
BRANCH   9  21
ATOM     21  C   UNL     1       5.304   4.115  16.391  0.00  0.00    +0.000 C 
ATOM     22  C   UNL     1       5.656   5.070  15.222  0.00  0.00    +0.000 C 
ATOM     23  C   UNL     1       6.823   5.660  16.079  0.00  0.00    +0.000 C 
ATOM     24  C   UNL     1       6.751   4.348  16.907  0.00  0.00    +0.000 C 
BRANCH  23  25
ATOM     25  C   UNL     1       6.591   6.971  16.849  0.00  0.00    +0.000 C 
BRANCH  25  26
ATOM     26  N   UNL     1       7.860   7.643  17.167  0.00  0.00    +0.000 NA
ATOM     27  C   UNL     1       7.597   9.058  17.562  0.00  0.00    +0.000 C 
ATOM     28  C   UNL     1       8.651   8.875  18.667  0.00  0.00    +0.000 C 
ATOM     29  C   UNL     1       8.282   7.385  18.572  0.00  0.00    +0.000 C 
ENDBRANCH  25  26
ENDBRANCH  23  25
ENDBRANCH   9  21
BRANCH   1  30
ATOM     30  N   UNL     1       0.640   4.466  20.319  0.00  0.00    +0.000 N 
ATOM     31  H   UNL     1       0.951   5.351  20.704  0.00  0.00    +0.000 HD
ATOM     32  H   UNL     1       0.170   3.851  20.973  0.00  0.00    +0.000 HD
ENDBRANCH   1  30
TORSDOF 9
ENDMDL
MODEL 2
REMARK VINA RESULT:      -8.0      1.553      2.156
REMARK  Name = 
REMARK  9 active torsions:
REMARK  status: ('A' for Active; 'I' for Inactive)
REMARK    1  A    between atoms: N_1  and  C_2
REMARK    2  A    between atoms: C_8  and  C_9
REMARK    3  A    between atoms: C_13  and  O_14
REMARK    4  A    between atoms: O_14  and  C_15
REMARK    5  A    between atoms: C_15  and  C_16
REMARK    6  A    between atoms: C_16  and  O_17
REMARK    7  A    between atoms: N_20  and  C_21
REMARK    8  A    between atoms: C_23  and  C_24
REMARK    9  A    between atoms: C_24  and  N_25
REMARK                            x       y       z     vdW  Elec       q    Type
REMARK                         _______ _______ _______ _____ _____    ______ ____
ROOT
ATOM      1  C   UNL     1       1.647   3.543  19.487  0.00  0.00    +0.000 A 
ATOM      2  N   UNL     1       1.756   2.202  19.422  0.00  0.00    +0.000 NA
ATOM      3  C   UNL     1       2.686   1.671  18.602  0.00  0.00    +0.000 A 
ATOM      4  N   UNL     1       3.543   2.318  17.792  0.00  0.00    +0.000 NA
ATOM      5  C   UNL     1       3.414   3.652  17.893  0.00  0.00    +0.000 A 
ATOM      6  C   UNL     1       2.512   4.340  18.715  0.00  0.00    +0.000 A 
ATOM      7  C   UNL     1       2.749   5.741  18.516  0.00  0.00    +0.000 A 
ATOM      8  C   UNL     1       3.755   5.843  17.576  0.00  0.00    +0.000 A 
ATOM      9  N   UNL     1       4.160   4.590  17.217  0.00  0.00    +0.000 N 
ENDROOT
BRANCH   7  10
ATOM     10  C   UNL     1       2.166   6.940  19.112  0.00  0.00    +0.000 A 
ATOM     11  C   UNL     1       1.815   6.964  20.468  0.00  0.00    +0.000 A 
ATOM     12  C   UNL     1       1.241   8.102  21.031  0.00  0.00    +0.000 A 
ATOM     13  C   UNL     1       1.044   9.236  20.248  0.00  0.00    +0.000 A 
ATOM     14  C   UNL     1       1.374   9.224  18.892  0.00  0.00    +0.000 A 
ATOM     15  C   UNL     1       1.910   8.068  18.324  0.00  0.00    +0.000 A 
BRANCH  14  16
ATOM     16  O   UNL     1       1.157  10.403  18.230  0.00  0.00    +0.000 OA
BRANCH  16  17
ATOM     17  C   UNL     1       0.718  11.503  19.035  0.00  0.00    +0.000 C 
BRANCH  17  18
ATOM     18  C   UNL     1       1.763  12.612  18.917  0.00  0.00    +0.000 C 
BRANCH  18  19
ATOM     19  O   UNL     1       2.090  12.835  17.546  0.00  0.00    +0.000 OA
ATOM     20  H   UNL     1       1.242  12.958  17.081  0.00  0.00    +0.000 HD
ENDBRANCH  18  19
ENDBRANCH  17  18
ENDBRANCH  16  17
ENDBRANCH  14  16
ENDBRANCH   7  10
BRANCH   9  21
ATOM     21  C   UNL     1       5.150   4.290  16.199  0.00  0.00    +0.000 C 
ATOM     22  C   UNL     1       5.645   5.478  15.335  0.00  0.00    +0.000 C 
ATOM     23  C   UNL     1       6.855   5.659  16.310  0.00  0.00    +0.000 C 
ATOM     24  C   UNL     1       6.602   4.188  16.743  0.00  0.00    +0.000 C 
BRANCH  23  25
ATOM     25  C   UNL     1       6.768   6.725  17.415  0.00  0.00    +0.000 C 
BRANCH  25  26
ATOM     26  N   UNL     1       7.878   7.685  17.328  0.00  0.00    +0.000 NA
ATOM     27  C   UNL     1       7.346   9.078  17.387  0.00  0.00    +0.000 C 
ATOM     28  C   UNL     1       8.532   9.421  18.304  0.00  0.00    +0.000 C 
ATOM     29  C   UNL     1       8.504   7.924  18.658  0.00  0.00    +0.000 C 
ENDBRANCH  25  26
ENDBRANCH  23  25
ENDBRANCH   9  21
BRANCH   1  30
ATOM     30  N   UNL     1       0.649   4.038  20.318  0.00  0.00    +0.000 N 
ATOM     31  H   UNL     1       0.979   4.088  21.275  0.00  0.00    +0.000 HD
ATOM     32  H   UNL     1      -0.250   3.586  20.194  0.00  0.00    +0.000 HD
ENDBRANCH   1  30
TORSDOF 9
ENDMDL
MODEL 3
REMARK VINA RESULT:      -8.0      1.523      2.608
REMARK  Name = 
REMARK  9 active torsions:
REMARK  status: ('A' for Active; 'I' for Inactive)
REMARK    1  A    between atoms: N_1  and  C_2
REMARK    2  A    between atoms: C_8  and  C_9
REMARK    3  A    between atoms: C_13  and  O_14
REMARK    4  A    between atoms: O_14  and  C_15
REMARK    5  A    between atoms: C_15  and  C_16
REMARK    6  A    between atoms: C_16  and  O_17
REMARK    7  A    between atoms: N_20  and  C_21
REMARK    8  A    between atoms: C_23  and  C_24
REMARK    9  A    between atoms: C_24  and  N_25
REMARK                            x       y       z     vdW  Elec       q    Type
REMARK                         _______ _______ _______ _____ _____    ______ ____
ROOT
ATOM      1  C   UNL     1       2.286   4.048  20.036  0.00  0.00    +0.000 A 
ATOM      2  N   UNL     1       2.614   2.767  20.294  0.00  0.00    +0.000 NA
ATOM      3  C   UNL     1       3.891   2.380  20.105  0.00  0.00    +0.000 A 
ATOM      4  N   UNL     1       4.924   3.116  19.657  0.00  0.00    +0.000 NA
ATOM      5  C   UNL     1       4.562   4.390  19.421  0.00  0.00    +0.000 A 
ATOM      6  C   UNL     1       3.284   4.936  19.594  0.00  0.00    +0.000 A 
ATOM      7  C   UNL     1       3.373   6.326  19.249  0.00  0.00    +0.000 A 
ATOM      8  C   UNL     1       4.679   6.556  18.864  0.00  0.00    +0.000 A 
ATOM      9  N   UNL     1       5.390   5.396  18.982  0.00  0.00    +0.000 N 
ENDROOT
BRANCH   7  10
ATOM     10  C   UNL     1       2.402   7.417  19.267  0.00  0.00    +0.000 A 
ATOM     11  C   UNL     1       2.159   8.174  18.115  0.00  0.00    +0.000 A 
ATOM     12  C   UNL     1       1.247   9.227  18.137  0.00  0.00    +0.000 A 
ATOM     13  C   UNL     1       0.547   9.509  19.307  0.00  0.00    +0.000 A 
ATOM     14  C   UNL     1       0.789   8.775  20.469  0.00  0.00    +0.000 A 
ATOM     15  C   UNL     1       1.733   7.748  20.451  0.00  0.00    +0.000 A 
BRANCH  14  16
ATOM     16  O   UNL     1       0.025   9.128  21.550  0.00  0.00    +0.000 OA
BRANCH  16  17
ATOM     17  C   UNL     1       0.081  10.507  21.934  0.00  0.00    +0.000 C 
BRANCH  17  18
ATOM     18  C   UNL     1      -0.965  10.729  23.025  0.00  0.00    +0.000 C 
BRANCH  18  19
ATOM     19  O   UNL     1      -1.108  12.122  23.294  0.00  0.00    +0.000 OA
ATOM     20  H   UNL     1      -0.595  12.585  22.605  0.00  0.00    +0.000 HD
ENDBRANCH  18  19
ENDBRANCH  17  18
ENDBRANCH  16  17
ENDBRANCH  14  16
ENDBRANCH   7  10
BRANCH   9  21
ATOM     21  C   UNL     1       6.780   5.225  18.601  0.00  0.00    +0.000 C 
ATOM     22  C   UNL     1       7.062   4.302  17.388  0.00  0.00    +0.000 C 
ATOM     23  C   UNL     1       7.070   5.558  16.457  0.00  0.00    +0.000 C 
ATOM     24  C   UNL     1       7.344   6.389  17.740  0.00  0.00    +0.000 C 
BRANCH  23  25
ATOM     25  C   UNL     1       5.796   5.910  15.670  0.00  0.00    +0.000 C 
BRANCH  25  26
ATOM     26  N   UNL     1       5.898   5.496  14.263  0.00  0.00    +0.000 NA
ATOM     27  C   UNL     1       7.262   4.956  13.994  0.00  0.00    +0.000 C 
ATOM     28  C   UNL     1       6.589   3.856  13.155  0.00  0.00    +0.000 C 
ATOM     29  C   UNL     1       5.369   4.119  14.054  0.00  0.00    +0.000 C 
ENDBRANCH  25  26
ENDBRANCH  23  25
ENDBRANCH   9  21
BRANCH   1  30
ATOM     30  N   UNL     1       0.949   4.387  20.211  0.00  0.00    +0.000 N 
ATOM     31  H   UNL     1       0.847   5.393  20.283  0.00  0.00    +0.000 HD
ATOM     32  H   UNL     1       0.482   3.853  20.935  0.00  0.00    +0.000 HD
ENDBRANCH   1  30
TORSDOF 9
ENDMDL
MODEL 4
REMARK VINA RESULT:      -7.7      2.078      3.298
REMARK  Name = 
REMARK  9 active torsions:
REMARK  status: ('A' for Active; 'I' for Inactive)
REMARK    1  A    between atoms: N_1  and  C_2
REMARK    2  A    between atoms: C_8  and  C_9
REMARK    3  A    between atoms: C_13  and  O_14
REMARK    4  A    between atoms: O_14  and  C_15
REMARK    5  A    between atoms: C_15  and  C_16
REMARK    6  A    between atoms: C_16  and  O_17
REMARK    7  A    between atoms: N_20  and  C_21
REMARK    8  A    between atoms: C_23  and  C_24
REMARK    9  A    between atoms: C_24  and  N_25
REMARK                            x       y       z     vdW  Elec       q    Type
REMARK                         _______ _______ _______ _____ _____    ______ ____
ROOT
ATOM      1  C   UNL     1       2.132   3.747  19.866  0.00  0.00    +0.000 A 
ATOM      2  N   UNL     1       2.467   2.442  19.843  0.00  0.00    +0.000 NA
ATOM      3  C   UNL     1       3.752   2.112  19.595  0.00  0.00    +0.000 A 
ATOM      4  N   UNL     1       4.784   2.935  19.337  0.00  0.00    +0.000 NA
ATOM      5  C   UNL     1       4.414   4.227  19.380  0.00  0.00    +0.000 A 
ATOM      6  C   UNL     1       3.128   4.715  19.647  0.00  0.00    +0.000 A 
ATOM      7  C   UNL     1       3.210   6.147  19.618  0.00  0.00    +0.000 A 
ATOM      8  C   UNL     1       4.519   6.464  19.314  0.00  0.00    +0.000 A 
ATOM      9  N   UNL     1       5.240   5.310  19.187  0.00  0.00    +0.000 N 
ENDROOT
BRANCH   7  10
ATOM     10  C   UNL     1       2.229   7.202  19.858  0.00  0.00    +0.000 A 
ATOM     11  C   UNL     1       1.578   7.302  21.095  0.00  0.00    +0.000 A 
ATOM     12  C   UNL     1       0.629   8.297  21.317  0.00  0.00    +0.000 A 
ATOM     13  C   UNL     1       0.346   9.219  20.314  0.00  0.00    +0.000 A 
ATOM     14  C   UNL     1       0.973   9.124  19.070  0.00  0.00    +0.000 A 
ATOM     15  C   UNL     1       1.894   8.101  18.840  0.00  0.00    +0.000 A 
BRANCH  14  16
ATOM     16  O   UNL     1       0.633  10.099  18.171  0.00  0.00    +0.000 OA
BRANCH  16  17
ATOM     17  C   UNL     1      -0.769  10.268  17.928  0.00  0.00    +0.000 C 
BRANCH  17  18
ATOM     18  C   UNL     1      -1.124  11.719  18.243  0.00  0.00    +0.000 C 
BRANCH  18  19
ATOM     19  O   UNL     1      -1.443  12.420  17.041  0.00  0.00    +0.000 OA
ATOM     20  H   UNL     1      -2.406  12.320  16.917  0.00  0.00    +0.000 HD
ENDBRANCH  18  19
ENDBRANCH  17  18
ENDBRANCH  16  17
ENDBRANCH  14  16
ENDBRANCH   7  10
BRANCH   9  21
ATOM     21  C   UNL     1       6.637   5.235  18.800  0.00  0.00    +0.000 C 
ATOM     22  C   UNL     1       6.974   4.354  17.570  0.00  0.00    +0.000 C 
ATOM     23  C   UNL     1       6.899   5.626  16.663  0.00  0.00    +0.000 C 
ATOM     24  C   UNL     1       7.123   6.449  17.961  0.00  0.00    +0.000 C 
BRANCH  23  25
ATOM     25  C   UNL     1       5.603   5.910  15.885  0.00  0.00    +0.000 C 
BRANCH  25  26
ATOM     26  N   UNL     1       5.726   5.524  14.471  0.00  0.00    +0.000 NA
ATOM     27  C   UNL     1       7.114   5.049  14.196  0.00  0.00    +0.000 C 
ATOM     28  C   UNL     1       6.490   3.934  13.338  0.00  0.00    +0.000 C 
ATOM     29  C   UNL     1       5.259   4.129  14.239  0.00  0.00    +0.000 C 
ENDBRANCH  25  26
ENDBRANCH  23  25
ENDBRANCH   9  21
BRANCH   1  30
ATOM     30  N   UNL     1       0.790   4.031  20.090  0.00  0.00    +0.000 N 
ATOM     31  H   UNL     1       0.286   3.185  20.331  0.00  0.00    +0.000 HD
ATOM     32  H   UNL     1       0.363   4.596  19.365  0.00  0.00    +0.000 HD
ENDBRANCH   1  30
TORSDOF 9
ENDMDL
MODEL 5
REMARK VINA RESULT:      -7.7      2.073      3.392
REMARK  Name = 
REMARK  9 active torsions:
REMARK  status: ('A' for Active; 'I' for Inactive)
REMARK    1  A    between atoms: N_1  and  C_2
REMARK    2  A    between atoms: C_8  and  C_9
REMARK    3  A    between atoms: C_13  and  O_14
REMARK    4  A    between atoms: O_14  and  C_15
REMARK    5  A    between atoms: C_15  and  C_16
REMARK    6  A    between atoms: C_16  and  O_17
REMARK    7  A    between atoms: N_20  and  C_21
REMARK    8  A    between atoms: C_23  and  C_24
REMARK    9  A    between atoms: C_24  and  N_25
REMARK                            x       y       z     vdW  Elec       q    Type
REMARK                         _______ _______ _______ _____ _____    ______ ____
ROOT
ATOM      1  C   UNL     1       2.167   3.803  19.803  0.00  0.00    +0.000 A 
ATOM      2  N   UNL     1       2.495   2.496  19.782  0.00  0.00    +0.000 NA
ATOM      3  C   UNL     1       3.779   2.161  19.539  0.00  0.00    +0.000 A 
ATOM      4  N   UNL     1       4.816   2.978  19.285  0.00  0.00    +0.000 NA
ATOM      5  C   UNL     1       4.452   4.272  19.326  0.00  0.00    +0.000 A 
ATOM      6  C   UNL     1       3.168   4.766  19.587  0.00  0.00    +0.000 A 
ATOM      7  C   UNL     1       3.257   6.198  19.558  0.00  0.00    +0.000 A 
ATOM      8  C   UNL     1       4.569   6.508  19.259  0.00  0.00    +0.000 A 
ATOM      9  N   UNL     1       5.284   5.351  19.136  0.00  0.00    +0.000 N 
ENDROOT
BRANCH   7  10
ATOM     10  C   UNL     1       2.280   7.258  19.794  0.00  0.00    +0.000 A 
ATOM     11  C   UNL     1       1.450   7.224  20.922  0.00  0.00    +0.000 A 
ATOM     12  C   UNL     1       0.506   8.225  21.137  0.00  0.00    +0.000 A 
ATOM     13  C   UNL     1       0.406   9.285  20.240  0.00  0.00    +0.000 A 
ATOM     14  C   UNL     1       1.213   9.325  19.102  0.00  0.00    +0.000 A 
ATOM     15  C   UNL     1       2.130   8.299  18.871  0.00  0.00    +0.000 A 
BRANCH  14  16
ATOM     16  O   UNL     1       1.042  10.426  18.305  0.00  0.00    +0.000 OA
BRANCH  16  17
ATOM     17  C   UNL     1       0.918  11.680  18.987  0.00  0.00    +0.000 C 
BRANCH  17  18
ATOM     18  C   UNL     1       1.854  12.676  18.303  0.00  0.00    +0.000 C 
BRANCH  18  19
ATOM     19  O   UNL     1       2.750  11.989  17.431  0.00  0.00    +0.000 OA
ATOM     20  H   UNL     1       2.456  11.059  17.418  0.00  0.00    +0.000 HD
ENDBRANCH  18  19
ENDBRANCH  17  18
ENDBRANCH  16  17
ENDBRANCH  14  16
ENDBRANCH   7  10
BRANCH   9  21
ATOM     21  C   UNL     1       6.682   5.269  18.755  0.00  0.00    +0.000 C 
ATOM     22  C   UNL     1       7.025   4.355  17.550  0.00  0.00    +0.000 C 
ATOM     23  C   UNL     1       6.949   5.600  16.608  0.00  0.00    +0.000 C 
ATOM     24  C   UNL     1       7.168   6.460  17.883  0.00  0.00    +0.000 C 
BRANCH  23  25
ATOM     25  C   UNL     1       5.655   5.859  15.819  0.00  0.00    +0.000 C 
BRANCH  25  26
ATOM     26  N   UNL     1       5.808   5.511  14.398  0.00  0.00    +0.000 NA
ATOM     27  C   UNL     1       7.197   5.029  14.144  0.00  0.00    +0.000 C 
ATOM     28  C   UNL     1       6.584   3.946  13.240  0.00  0.00    +0.000 C 
ATOM     29  C   UNL     1       5.333   4.129  14.115  0.00  0.00    +0.000 C 
ENDBRANCH  25  26
ENDBRANCH  23  25
ENDBRANCH   9  21
BRANCH   1  30
ATOM     30  N   UNL     1       0.825   4.093  20.021  0.00  0.00    +0.000 N 
ATOM     31  H   UNL     1       0.301   4.014  19.156  0.00  0.00    +0.000 HD
ATOM     32  H   UNL     1       0.669   4.948  20.544  0.00  0.00    +0.000 HD
ENDBRANCH   1  30
TORSDOF 9
ENDMDL
MODEL 6
REMARK VINA RESULT:      -7.3      1.766      2.330
REMARK  Name = 
REMARK  9 active torsions:
REMARK  status: ('A' for Active; 'I' for Inactive)
REMARK    1  A    between atoms: N_1  and  C_2
REMARK    2  A    between atoms: C_8  and  C_9
REMARK    3  A    between atoms: C_13  and  O_14
REMARK    4  A    between atoms: O_14  and  C_15
REMARK    5  A    between atoms: C_15  and  C_16
REMARK    6  A    between atoms: C_16  and  O_17
REMARK    7  A    between atoms: N_20  and  C_21
REMARK    8  A    between atoms: C_23  and  C_24
REMARK    9  A    between atoms: C_24  and  N_25
REMARK                            x       y       z     vdW  Elec       q    Type
REMARK                         _______ _______ _______ _____ _____    ______ ____
ROOT
ATOM      1  C   UNL     1       2.073   3.456  19.629  0.00  0.00    +0.000 A 
ATOM      2  N   UNL     1       2.271   2.124  19.564  0.00  0.00    +0.000 NA
ATOM      3  C   UNL     1       3.072   1.641  18.593  0.00  0.00    +0.000 A 
ATOM      4  N   UNL     1       3.711   2.325  17.627  0.00  0.00    +0.000 NA
ATOM      5  C   UNL     1       3.499   3.649  17.731  0.00  0.00    +0.000 A 
ATOM      6  C   UNL     1       2.714   4.291  18.697  0.00  0.00    +0.000 A 
ATOM      7  C   UNL     1       2.801   5.700  18.437  0.00  0.00    +0.000 A 
ATOM      8  C   UNL     1       3.604   5.849  17.324  0.00  0.00    +0.000 A 
ATOM      9  N   UNL     1       4.032   4.618  16.913  0.00  0.00    +0.000 N 
ENDROOT
BRANCH   7  10
ATOM     10  C   UNL     1       2.247   6.869  19.114  0.00  0.00    +0.000 A 
ATOM     11  C   UNL     1       2.032   6.857  20.498  0.00  0.00    +0.000 A 
ATOM     12  C   UNL     1       1.486   7.966  21.140  0.00  0.00    +0.000 A 
ATOM     13  C   UNL     1       1.180   9.108  20.405  0.00  0.00    +0.000 A 
ATOM     14  C   UNL     1       1.373   9.132  19.023  0.00  0.00    +0.000 A 
ATOM     15  C   UNL     1       1.883   8.004  18.380  0.00  0.00    +0.000 A 
BRANCH  14  16
ATOM     16  O   UNL     1       1.059  10.317  18.412  0.00  0.00    +0.000 OA
BRANCH  16  17
ATOM     17  C   UNL     1      -0.338  10.577  18.229  0.00  0.00    +0.000 C 
BRANCH  17  18
ATOM     18  C   UNL     1      -0.569  12.068  18.469  0.00  0.00    +0.000 C 
BRANCH  18  19
ATOM     19  O   UNL     1      -1.297  12.635  17.381  0.00  0.00    +0.000 OA
ATOM     20  H   UNL     1      -1.547  13.535  17.662  0.00  0.00    +0.000 HD
ENDBRANCH  18  19
ENDBRANCH  17  18
ENDBRANCH  16  17
ENDBRANCH  14  16
ENDBRANCH   7  10
BRANCH   9  21
ATOM     21  C   UNL     1       4.835   4.363  15.732  0.00  0.00    +0.000 C 
ATOM     22  C   UNL     1       5.386   5.602  14.982  0.00  0.00    +0.000 C 
ATOM     23  C   UNL     1       6.720   5.475  15.789  0.00  0.00    +0.000 C 
ATOM     24  C   UNL     1       6.313   3.998  16.044  0.00  0.00    +0.000 C 
BRANCH  23  25
ATOM     25  C   UNL     1       6.924   6.356  17.033  0.00  0.00    +0.000 C 
BRANCH  25  26
ATOM     26  N   UNL     1       7.601   5.621  18.111  0.00  0.00    +0.000 NA
ATOM     27  C   UNL     1       8.309   6.580  19.008  0.00  0.00    +0.000 C 
ATOM     28  C   UNL     1       7.816   5.732  20.193  0.00  0.00    +0.000 C 
ATOM     29  C   UNL     1       6.678   5.327  19.242  0.00  0.00    +0.000 C 
ENDBRANCH  25  26
ENDBRANCH  23  25
ENDBRANCH   9  21
BRANCH   1  30
ATOM     30  N   UNL     1       1.210   3.899  20.625  0.00  0.00    +0.000 N 
ATOM     31  H   UNL     1       1.633   4.660  21.144  0.00  0.00    +0.000 HD
ATOM     32  H   UNL     1       0.819   3.155  21.191  0.00  0.00    +0.000 HD
ENDBRANCH   1  30
TORSDOF 9
ENDMDL
MODEL 7
REMARK VINA RESULT:      -7.2      0.990      1.194
REMARK  Name = 
REMARK  9 active torsions:
REMARK  status: ('A' for Active; 'I' for Inactive)
REMARK    1  A    between atoms: N_1  and  C_2
REMARK    2  A    between atoms: C_8  and  C_9
REMARK    3  A    between atoms: C_13  and  O_14
REMARK    4  A    between atoms: O_14  and  C_15
REMARK    5  A    between atoms: C_15  and  C_16
REMARK    6  A    between atoms: C_16  and  O_17
REMARK    7  A    between atoms: N_20  and  C_21
REMARK    8  A    between atoms: C_23  and  C_24
REMARK    9  A    between atoms: C_24  and  N_25
REMARK                            x       y       z     vdW  Elec       q    Type
REMARK                         _______ _______ _______ _____ _____    ______ ____
ROOT
ATOM      1  C   UNL     1       2.664   3.961  20.189  0.00  0.00    +0.000 A 
ATOM      2  N   UNL     1       3.029   2.683  20.415  0.00  0.00    +0.000 NA
ATOM      3  C   UNL     1       3.788   2.059  19.491  0.00  0.00    +0.000 A 
ATOM      4  N   UNL     1       4.235   2.544  18.319  0.00  0.00    +0.000 NA
ATOM      5  C   UNL     1       3.862   3.823  18.135  0.00  0.00    +0.000 A 
ATOM      6  C   UNL     1       3.097   4.600  19.014  0.00  0.00    +0.000 A 
ATOM      7  C   UNL     1       2.972   5.901  18.421  0.00  0.00    +0.000 A 
ATOM      8  C   UNL     1       3.637   5.852  17.212  0.00  0.00    +0.000 A 
ATOM      9  N   UNL     1       4.180   4.609  17.052  0.00  0.00    +0.000 N 
ENDROOT
BRANCH   7  10
ATOM     10  C   UNL     1       2.337   7.139  18.869  0.00  0.00    +0.000 A 
ATOM     11  C   UNL     1       2.079   8.175  17.963  0.00  0.00    +0.000 A 
ATOM     12  C   UNL     1       1.491   9.362  18.394  0.00  0.00    +0.000 A 
ATOM     13  C   UNL     1       1.129   9.509  19.730  0.00  0.00    +0.000 A 
ATOM     14  C   UNL     1       1.394   8.492  20.649  0.00  0.00    +0.000 A 
ATOM     15  C   UNL     1       2.019   7.321  20.219  0.00  0.00    +0.000 A 
BRANCH  14  16
ATOM     16  O   UNL     1       0.972   8.740  21.928  0.00  0.00    +0.000 OA
BRANCH  16  17
ATOM     17  C   UNL     1      -0.397   9.135  22.072  0.00  0.00    +0.000 C 
BRANCH  17  18
ATOM     18  C   UNL     1      -0.504   9.994  23.330  0.00  0.00    +0.000 C 
BRANCH  18  19
ATOM     19  O   UNL     1      -0.499  11.378  22.984  0.00  0.00    +0.000 OA
ATOM     20  H   UNL     1       0.424  11.596  22.754  0.00  0.00    +0.000 HD
ENDBRANCH  18  19
ENDBRANCH  17  18
ENDBRANCH  16  17
ENDBRANCH  14  16
ENDBRANCH   7  10
BRANCH   9  21
ATOM     21  C   UNL     1       4.892   4.154  15.872  0.00  0.00    +0.000 C 
ATOM     22  C   UNL     1       5.376   5.245  14.884  0.00  0.00    +0.000 C 
ATOM     23  C   UNL     1       6.769   5.246  15.596  0.00  0.00    +0.000 C 
ATOM     24  C   UNL     1       6.392   3.835  16.126  0.00  0.00    +0.000 C 
BRANCH  23  25
ATOM     25  C   UNL     1       7.063   6.322  16.655  0.00  0.00    +0.000 C 
BRANCH  25  26
ATOM     26  N   UNL     1       7.877   5.788  17.757  0.00  0.00    +0.000 NA
ATOM     27  C   UNL     1       8.206   6.882  18.717  0.00  0.00    +0.000 C 
ATOM     28  C   UNL     1       7.937   5.877  19.850  0.00  0.00    +0.000 C 
ATOM     29  C   UNL     1       7.031   5.180  18.822  0.00  0.00    +0.000 C 
ENDBRANCH  25  26
ENDBRANCH  23  25
ENDBRANCH   9  21
BRANCH   1  30
ATOM     30  N   UNL     1       1.852   4.546  21.154  0.00  0.00    +0.000 N 
ATOM     31  H   UNL     1       1.325   3.835  21.650  0.00  0.00    +0.000 HD
ATOM     32  H   UNL     1       1.306   5.328  20.812  0.00  0.00    +0.000 HD
ENDBRANCH   1  30
TORSDOF 9
ENDMDL
MODEL 8
REMARK VINA RESULT:      -7.2      7.348     10.869
REMARK  Name = 
REMARK  9 active torsions:
REMARK  status: ('A' for Active; 'I' for Inactive)
REMARK    1  A    between atoms: N_1  and  C_2
REMARK    2  A    between atoms: C_8  and  C_9
REMARK    3  A    between atoms: C_13  and  O_14
REMARK    4  A    between atoms: O_14  and  C_15
REMARK    5  A    between atoms: C_15  and  C_16
REMARK    6  A    between atoms: C_16  and  O_17
REMARK    7  A    between atoms: N_20  and  C_21
REMARK    8  A    between atoms: C_23  and  C_24
REMARK    9  A    between atoms: C_24  and  N_25
REMARK                            x       y       z     vdW  Elec       q    Type
REMARK                         _______ _______ _______ _____ _____    ______ ____
ROOT
ATOM      1  C   UNL     1      -6.564  11.523  19.476  0.00  0.00    +0.000 A 
ATOM      2  N   UNL     1      -7.570  11.912  20.284  0.00  0.00    +0.000 NA
ATOM      3  C   UNL     1      -7.287  12.748  21.304  0.00  0.00    +0.000 A 
ATOM      4  N   UNL     1      -6.092  13.254  21.655  0.00  0.00    +0.000 NA
ATOM      5  C   UNL     1      -5.117  12.854  20.820  0.00  0.00    +0.000 A 
ATOM      6  C   UNL     1      -5.266  12.010  19.712  0.00  0.00    +0.000 A 
ATOM      7  C   UNL     1      -3.972  11.883  19.106  0.00  0.00    +0.000 A 
ATOM      8  C   UNL     1      -3.099  12.626  19.875  0.00  0.00    +0.000 A 
ATOM      9  N   UNL     1      -3.792  13.218  20.892  0.00  0.00    +0.000 N 
ENDROOT
BRANCH   7  10
ATOM     10  C   UNL     1      -3.499  11.183  17.914  0.00  0.00    +0.000 A 
ATOM     11  C   UNL     1      -2.405  10.311  17.987  0.00  0.00    +0.000 A 
ATOM     12  C   UNL     1      -1.942   9.658  16.847  0.00  0.00    +0.000 A 
ATOM     13  C   UNL     1      -2.591   9.850  15.630  0.00  0.00    +0.000 A 
ATOM     14  C   UNL     1      -3.672  10.727  15.537  0.00  0.00    +0.000 A 
ATOM     15  C   UNL     1      -4.106  11.409  16.674  0.00  0.00    +0.000 A 
BRANCH  14  16
ATOM     16  O   UNL     1      -4.244  10.816  14.295  0.00  0.00    +0.000 OA
BRANCH  16  17
ATOM     17  C   UNL     1      -3.861   9.806  13.354  0.00  0.00    +0.000 C 
BRANCH  17  18
ATOM     18  C   UNL     1      -4.434  10.197  11.993  0.00  0.00    +0.000 C 
BRANCH  18  19
ATOM     19  O   UNL     1      -4.420   9.075  11.113  0.00  0.00    +0.000 OA
ATOM     20  H   UNL     1      -4.234   9.431  10.223  0.00  0.00    +0.000 HD
ENDBRANCH  18  19
ENDBRANCH  17  18
ENDBRANCH  16  17
ENDBRANCH  14  16
ENDBRANCH   7  10
BRANCH   9  21
ATOM     21  C   UNL     1      -3.204  14.018  21.951  0.00  0.00    +0.000 C 
ATOM     22  C   UNL     1      -3.210  13.405  23.375  0.00  0.00    +0.000 C 
ATOM     23  C   UNL     1      -1.765  12.861  23.126  0.00  0.00    +0.000 C 
ATOM     24  C   UNL     1      -1.654  13.938  22.012  0.00  0.00    +0.000 C 
BRANCH  23  25
ATOM     25  C   UNL     1      -1.586  11.398  22.687  0.00  0.00    +0.000 C 
BRANCH  25  26
ATOM     26  N   UNL     1      -0.190  10.958  22.826  0.00  0.00    +0.000 NA
ATOM     27  C   UNL     1      -0.152   9.532  23.264  0.00  0.00    +0.000 C 
ATOM     28  C   UNL     1       1.006   9.328  22.271  0.00  0.00    +0.000 C 
ATOM     29  C   UNL     1       0.381  10.519  21.523  0.00  0.00    +0.000 C 
ENDBRANCH  25  26
ENDBRANCH  23  25
ENDBRANCH   9  21
BRANCH   1  30
ATOM     30  N   UNL     1      -6.901  10.632  18.463  0.00  0.00    +0.000 N 
ATOM     31  H   UNL     1      -6.107  10.046  18.230  0.00  0.00    +0.000 HD
ATOM     32  H   UNL     1      -7.365  11.065  17.673  0.00  0.00    +0.000 HD
ENDBRANCH   1  30
TORSDOF 9
ENDMDL
MODEL 9
REMARK VINA RESULT:      -7.1      1.013      1.081
REMARK  Name = 
REMARK  9 active torsions:
REMARK  status: ('A' for Active; 'I' for Inactive)
REMARK    1  A    between atoms: N_1  and  C_2
REMARK    2  A    between atoms: C_8  and  C_9
REMARK    3  A    between atoms: C_13  and  O_14
REMARK    4  A    between atoms: O_14  and  C_15
REMARK    5  A    between atoms: C_15  and  C_16
REMARK    6  A    between atoms: C_16  and  O_17
REMARK    7  A    between atoms: N_20  and  C_21
REMARK    8  A    between atoms: C_23  and  C_24
REMARK    9  A    between atoms: C_24  and  N_25
REMARK                            x       y       z     vdW  Elec       q    Type
REMARK                         _______ _______ _______ _____ _____    ______ ____
ROOT
ATOM      1  C   UNL     1       2.382   4.236  20.194  0.00  0.00    +0.000 A 
ATOM      2  N   UNL     1       2.712   2.974  20.534  0.00  0.00    +0.000 NA
ATOM      3  C   UNL     1       3.787   2.411  19.946  0.00  0.00    +0.000 A 
ATOM      4  N   UNL     1       4.599   2.945  19.015  0.00  0.00    +0.000 NA
ATOM      5  C   UNL     1       4.246   4.206  18.712  0.00  0.00    +0.000 A 
ATOM      6  C   UNL     1       3.173   4.923  19.256  0.00  0.00    +0.000 A 
ATOM      7  C   UNL     1       3.197   6.229  18.661  0.00  0.00    +0.000 A 
ATOM      8  C   UNL     1       4.255   6.241  17.774  0.00  0.00    +0.000 A 
ATOM      9  N   UNL     1       4.889   5.032  17.818  0.00  0.00    +0.000 N 
ENDROOT
BRANCH   7  10
ATOM     10  C   UNL     1       2.375   7.421  18.851  0.00  0.00    +0.000 A 
ATOM     11  C   UNL     1       2.054   8.246  17.766  0.00  0.00    +0.000 A 
ATOM     12  C   UNL     1       1.286   9.394  17.952  0.00  0.00    +0.000 A 
ATOM     13  C   UNL     1       0.808   9.707  19.220  0.00  0.00    +0.000 A 
ATOM     14  C   UNL     1       1.133   8.905  20.316  0.00  0.00    +0.000 A 
ATOM     15  C   UNL     1       1.935   7.779  20.131  0.00  0.00    +0.000 A 
BRANCH  14  16
ATOM     16  O   UNL     1       0.587   9.300  21.508  0.00  0.00    +0.000 OA
BRANCH  16  17
ATOM     17  C   UNL     1      -0.614  10.076  21.422  0.00  0.00    +0.000 C 
BRANCH  17  18
ATOM     18  C   UNL     1      -0.405  11.349  22.240  0.00  0.00    +0.000 C 
BRANCH  18  19
ATOM     19  O   UNL     1      -0.833  12.488  21.495  0.00  0.00    +0.000 OA
ATOM     20  H   UNL     1      -0.034  12.844  21.062  0.00  0.00    +0.000 HD
ENDBRANCH  18  19
ENDBRANCH  17  18
ENDBRANCH  16  17
ENDBRANCH  14  16
ENDBRANCH   7  10
BRANCH   9  21
ATOM     21  C   UNL     1       6.003   4.640  16.975  0.00  0.00    +0.000 C 
ATOM     22  C   UNL     1       6.457   5.660  15.900  0.00  0.00    +0.000 C 
ATOM     23  C   UNL     1       7.536   6.200  16.895  0.00  0.00    +0.000 C 
ATOM     24  C   UNL     1       7.394   4.842  17.636  0.00  0.00    +0.000 C 
BRANCH  23  25
ATOM     25  C   UNL     1       7.228   7.464  17.714  0.00  0.00    +0.000 C 
BRANCH  25  26
ATOM     26  N   UNL     1       8.323   8.441  17.634  0.00  0.00    +0.000 NA
ATOM     27  C   UNL     1       7.764   9.825  17.597  0.00  0.00    +0.000 C 
ATOM     28  C   UNL     1       8.897  10.236  18.553  0.00  0.00    +0.000 C 
ATOM     29  C   UNL     1       8.878   8.758  18.979  0.00  0.00    +0.000 C 
ENDBRANCH  25  26
ENDBRANCH  23  25
ENDBRANCH   9  21
BRANCH   1  30
ATOM     30  N   UNL     1       1.245   4.757  20.802  0.00  0.00    +0.000 N 
ATOM     31  H   UNL     1       0.878   5.530  20.259  0.00  0.00    +0.000 HD
ATOM     32  H   UNL     1       1.355   4.938  21.793  0.00  0.00    +0.000 HD
ENDBRANCH   1  30
TORSDOF 9
ENDMDL
