MODEL 1
REMARK VINA RESULT:      -6.9      0.000      0.000
REMARK  Name = 
REMARK  4 active torsions:
REMARK  status: ('A' for Active; 'I' for Inactive)
REMARK    1  A    between atoms: C_1  and  O_2
REMARK    2  A    between atoms: O_2  and  C_3
REMARK    3  A    between atoms: C_11  and  C_13
REMARK    4  A    between atoms: C_18  and  C_19
REMARK                            x       y       z     vdW  Elec       q    Type
REMARK                         _______ _______ _______ _____ _____    ______ ____
ROOT
ATOM      1  C   UNL     1       1.881   3.798  18.544  0.00  0.00    +0.000 A 
ATOM      2  C   UNL     1       1.470   3.615  19.869  0.00  0.00    +0.000 A 
ATOM      3  C   UNL     1       1.418   4.689  20.752  0.00  0.00    +0.000 A 
ATOM      4  C   UNL     1       1.769   5.959  20.302  0.00  0.00    +0.000 A 
ATOM      5  C   UNL     1       2.198   6.159  18.979  0.00  0.00    +0.000 A 
ATOM      6  C   UNL     1       2.264   5.069  18.107  0.00  0.00    +0.000 A 
ATOM      7  C   UNL     1       2.600   7.552  18.544  0.00  0.00    +0.000 C 
ATOM      8  N   UNL     1       1.717   8.588  19.098  0.00  0.00    +0.000 N 
ATOM      9  C   UNL     1       1.541   9.756  18.360  0.00  0.00    +0.000 C 
ATOM     10  O   UNL     1       2.145   9.939  17.293  0.00  0.00    +0.000 OA
ATOM     11  C   UNL     1       1.087   8.309  20.385  0.00  0.00    +0.000 C 
ATOM     12  C   UNL     1       1.679   7.160  21.189  0.00  0.00    +0.000 C 
ENDROOT
BRANCH   9  13
ATOM     13  C   UNL     1       0.630  10.836  18.876  0.00  0.00    +0.000 A 
ATOM     14  N   UNL     1       0.938  11.843  19.764  0.00  0.00    +0.000 N 
ATOM     15  C   UNL     1      -0.161  12.671  19.948  0.00  0.00    +0.000 A 
ATOM     16  O   UNL     1      -0.207  13.674  20.634  0.00  0.00    +0.000 OA
ATOM     17  N   UNL     1      -1.163  12.099  19.177  0.00  0.00    +0.000 N 
ATOM     18  C   UNL     1      -0.670  10.982  18.535  0.00  0.00    +0.000 A 
ATOM     19  C   UNL     1      -1.530  10.170  17.641  0.00  0.00    +0.000 C 
ATOM     20  H   UNL     1       1.794  12.019  20.256  0.00  0.00    +0.000 HD
ATOM     21  H   UNL     1      -2.097  12.475  19.116  0.00  0.00    +0.000 HD
ENDBRANCH   9  13
BRANCH   1  23
ATOM     22  C   UNL     1       3.033   1.877  17.767  0.00  0.00    +0.000 C 
ATOM     23  O   UNL     1       1.850   2.664  17.779  0.00  0.00    +0.000 OA
ENDBRANCH   1  23
TORSDOF 2
ENDMDL
MODEL 2
REMARK VINA RESULT:      -6.8      5.707      7.925
REMARK  Name = 
REMARK  4 active torsions:
REMARK  status: ('A' for Active; 'I' for Inactive)
REMARK    1  A    between atoms: C_1  and  O_2
REMARK    2  A    between atoms: O_2  and  C_3
REMARK    3  A    between atoms: C_11  and  C_13
REMARK    4  A    between atoms: C_18  and  C_19
REMARK                            x       y       z     vdW  Elec       q    Type
REMARK                         _______ _______ _______ _____ _____    ______ ____
ROOT
ATOM      1  C   UNL     1       8.212   7.832  18.512  0.00  0.00    +0.000 A 
ATOM      2  C   UNL     1       7.548   8.471  17.461  0.00  0.00    +0.000 A 
ATOM      3  C   UNL     1       6.530   7.824  16.766  0.00  0.00    +0.000 A 
ATOM      4  C   UNL     1       6.166   6.532  17.136  0.00  0.00    +0.000 A 
ATOM      5  C   UNL     1       6.833   5.869  18.180  0.00  0.00    +0.000 A 
ATOM      6  C   UNL     1       7.867   6.522  18.857  0.00  0.00    +0.000 A 
ATOM      7  C   UNL     1       6.425   4.453  18.525  0.00  0.00    +0.000 C 
ATOM      8  N   UNL     1       4.969   4.260  18.466  0.00  0.00    +0.000 N 
ATOM      9  C   UNL     1       4.406   3.301  19.303  0.00  0.00    +0.000 C 
ATOM     10  O   UNL     1       5.110   2.599  20.042  0.00  0.00    +0.000 OA
ATOM     11  C   UNL     1       4.223   5.096  17.530  0.00  0.00    +0.000 C 
ATOM     12  C   UNL     1       5.042   5.809  16.463  0.00  0.00    +0.000 C 
ENDROOT
BRANCH   9  13
ATOM     13  C   UNL     1       2.917   3.082  19.293  0.00  0.00    +0.000 A 
ATOM     14  N   UNL     1       2.188   2.298  18.427  0.00  0.00    +0.000 N 
ATOM     15  C   UNL     1       0.845   2.316  18.780  0.00  0.00    +0.000 A 
ATOM     16  O   UNL     1      -0.054   1.696  18.247  0.00  0.00    +0.000 OA
ATOM     17  N   UNL     1       0.781   3.182  19.863  0.00  0.00    +0.000 N 
ATOM     18  C   UNL     1       2.045   3.645  20.160  0.00  0.00    +0.000 A 
ATOM     19  C   UNL     1       2.271   4.592  21.278  0.00  0.00    +0.000 C 
ATOM     20  H   UNL     1       2.496   1.769  17.633  0.00  0.00    +0.000 HD
ATOM     21  H   UNL     1      -0.081   3.411  20.338  0.00  0.00    +0.000 HD
ENDBRANCH   9  13
BRANCH   1  23
ATOM     22  C   UNL     1       9.110   9.995  18.886  0.00  0.00    +0.000 C 
ATOM     23  O   UNL     1       9.166   8.595  19.128  0.00  0.00    +0.000 OA
ENDBRANCH   1  23
TORSDOF 2
ENDMDL
MODEL 3
REMARK VINA RESULT:      -6.8      3.678      7.362
REMARK  Name = 
REMARK  4 active torsions:
REMARK  status: ('A' for Active; 'I' for Inactive)
REMARK    1  A    between atoms: C_1  and  O_2
REMARK    2  A    between atoms: O_2  and  C_3
REMARK    3  A    between atoms: C_11  and  C_13
REMARK    4  A    between atoms: C_18  and  C_19
REMARK                            x       y       z     vdW  Elec       q    Type
REMARK                         _______ _______ _______ _____ _____    ______ ____
ROOT
ATOM      1  C   UNL     1       0.893  10.341  19.345  0.00  0.00    +0.000 A 
ATOM      2  C   UNL     1       0.659   9.659  20.544  0.00  0.00    +0.000 A 
ATOM      3  C   UNL     1       1.101   8.351  20.715  0.00  0.00    +0.000 A 
ATOM      4  C   UNL     1       1.795   7.725  19.683  0.00  0.00    +0.000 A 
ATOM      5  C   UNL     1       2.026   8.389  18.467  0.00  0.00    +0.000 A 
ATOM      6  C   UNL     1       1.560   9.696  18.300  0.00  0.00    +0.000 A 
ATOM      7  C   UNL     1       2.757   7.657  17.362  0.00  0.00    +0.000 C 
ATOM      8  N   UNL     1       3.868   6.840  17.870  0.00  0.00    +0.000 N 
ATOM      9  C   UNL     1       4.959   6.631  17.031  0.00  0.00    +0.000 C 
ATOM     10  O   UNL     1       4.977   7.079  15.876  0.00  0.00    +0.000 OA
ATOM     11  C   UNL     1       3.740   6.310  19.225  0.00  0.00    +0.000 C 
ATOM     12  C   UNL     1       2.344   6.341  19.831  0.00  0.00    +0.000 C 
ENDROOT
BRANCH   9  13
ATOM     13  C   UNL     1       6.129   5.819  17.516  0.00  0.00    +0.000 A 
ATOM     14  N   UNL     1       6.962   6.095  18.578  0.00  0.00    +0.000 N 
ATOM     15  C   UNL     1       7.890   5.074  18.736  0.00  0.00    +0.000 A 
ATOM     16  O   UNL     1       8.737   4.991  19.604  0.00  0.00    +0.000 OA
ATOM     17  N   UNL     1       7.621   4.194  17.696  0.00  0.00    +0.000 N 
ATOM     18  C   UNL     1       6.553   4.662  16.961  0.00  0.00    +0.000 A 
ATOM     19  C   UNL     1       6.048   3.915  15.783  0.00  0.00    +0.000 C 
ATOM     20  H   UNL     1       6.974   6.889  19.189  0.00  0.00    +0.000 HD
ATOM     21  H   UNL     1       8.147   3.347  17.539  0.00  0.00    +0.000 HD
ENDBRANCH   9  13
BRANCH   1  23
ATOM     22  C   UNL     1      -0.774  11.861  18.615  0.00  0.00    +0.000 C 
ATOM     23  O   UNL     1       0.434  11.629  19.326  0.00  0.00    +0.000 OA
ENDBRANCH   1  23
TORSDOF 2
ENDMDL
MODEL 4
REMARK VINA RESULT:      -6.7      2.749      7.608
REMARK  Name = 
REMARK  4 active torsions:
REMARK  status: ('A' for Active; 'I' for Inactive)
REMARK    1  A    between atoms: C_1  and  O_2
REMARK    2  A    between atoms: O_2  and  C_3
REMARK    3  A    between atoms: C_11  and  C_13
REMARK    4  A    between atoms: C_18  and  C_19
REMARK                            x       y       z     vdW  Elec       q    Type
REMARK                         _______ _______ _______ _____ _____    ______ ____
ROOT
ATOM      1  C   UNL     1       0.216  10.059  19.594  0.00  0.00    +0.000 A 
ATOM      2  C   UNL     1       0.678  10.284  18.293  0.00  0.00    +0.000 A 
ATOM      3  C   UNL     1       1.653   9.463  17.735  0.00  0.00    +0.000 A 
ATOM      4  C   UNL     1       2.160   8.402  18.480  0.00  0.00    +0.000 A 
ATOM      5  C   UNL     1       1.719   8.171  19.794  0.00  0.00    +0.000 A 
ATOM      6  C   UNL     1       0.753   9.014  20.350  0.00  0.00    +0.000 A 
ATOM      7  C   UNL     1       2.322   7.025  20.577  0.00  0.00    +0.000 C 
ATOM      8  N   UNL     1       2.531   5.829  19.748  0.00  0.00    +0.000 N 
ATOM      9  C   UNL     1       2.470   4.586  20.373  0.00  0.00    +0.000 C 
ATOM     10  O   UNL     1       2.293   4.489  21.595  0.00  0.00    +0.000 OA
ATOM     11  C   UNL     1       2.784   6.040  18.326  0.00  0.00    +0.000 C 
ATOM     12  C   UNL     1       3.168   7.453  17.912  0.00  0.00    +0.000 C 
ENDROOT
BRANCH   9  13
ATOM     13  C   UNL     1       2.657   3.333  19.561  0.00  0.00    +0.000 A 
ATOM     14  N   UNL     1       3.835   2.674  19.291  0.00  0.00    +0.000 N 
ATOM     15  C   UNL     1       3.582   1.525  18.553  0.00  0.00    +0.000 A 
ATOM     16  O   UNL     1       4.400   0.702  18.189  0.00  0.00    +0.000 OA
ATOM     17  N   UNL     1       2.211   1.540  18.342  0.00  0.00    +0.000 N 
ATOM     18  C   UNL     1       1.661   2.646  18.955  0.00  0.00    +0.000 A 
ATOM     19  C   UNL     1       0.205   2.914  18.890  0.00  0.00    +0.000 C 
ATOM     20  H   UNL     1       4.775   2.919  19.540  0.00  0.00    +0.000 HD
ATOM     21  H   UNL     1       1.724   0.828  17.818  0.00  0.00    +0.000 HD
ENDBRANCH   9  13
BRANCH   1  23
ATOM     22  C   UNL     1      -1.767  11.239  19.046  0.00  0.00    +0.000 C 
ATOM     23  O   UNL     1      -0.767  10.919  20.003  0.00  0.00    +0.000 OA
ENDBRANCH   1  23
TORSDOF 2
ENDMDL
MODEL 5
REMARK VINA RESULT:      -6.5      5.111      7.648
REMARK  Name = 
REMARK  4 active torsions:
REMARK  status: ('A' for Active; 'I' for Inactive)
REMARK    1  A    between atoms: C_1  and  O_2
REMARK    2  A    between atoms: O_2  and  C_3
REMARK    3  A    between atoms: C_11  and  C_13
REMARK    4  A    between atoms: C_18  and  C_19
REMARK                            x       y       z     vdW  Elec       q    Type
REMARK                         _______ _______ _______ _____ _____    ______ ____
ROOT
ATOM      1  C   UNL     1       2.484   4.602  20.633  0.00  0.00    +0.000 A 
ATOM      2  C   UNL     1       1.635   5.533  20.026  0.00  0.00    +0.000 A 
ATOM      3  C   UNL     1       2.108   6.384  19.032  0.00  0.00    +0.000 A 
ATOM      4  C   UNL     1       3.438   6.293  18.633  0.00  0.00    +0.000 A 
ATOM      5  C   UNL     1       4.310   5.375  19.242  0.00  0.00    +0.000 A 
ATOM      6  C   UNL     1       3.828   4.539  20.253  0.00  0.00    +0.000 A 
ATOM      7  C   UNL     1       5.756   5.335  18.798  0.00  0.00    +0.000 C 
ATOM      8  N   UNL     1       5.900   5.491  17.344  0.00  0.00    +0.000 N 
ATOM      9  C   UNL     1       6.992   4.885  16.729  0.00  0.00    +0.000 C 
ATOM     10  O   UNL     1       7.843   4.272  17.389  0.00  0.00    +0.000 OA
ATOM     11  C   UNL     1       4.879   6.273  16.654  0.00  0.00    +0.000 C 
ATOM     12  C   UNL     1       3.988   7.142  17.531  0.00  0.00    +0.000 C 
ENDROOT
BRANCH   9  13
ATOM     13  C   UNL     1       7.170   5.000  15.240  0.00  0.00    +0.000 A 
ATOM     14  N   UNL     1       8.046   5.816  14.558  0.00  0.00    +0.000 N 
ATOM     15  C   UNL     1       7.943   5.591  13.191  0.00  0.00    +0.000 A 
ATOM     16  O   UNL     1       8.606   6.116  12.318  0.00  0.00    +0.000 OA
ATOM     17  N   UNL     1       6.936   4.645  13.068  0.00  0.00    +0.000 N 
ATOM     18  C   UNL     1       6.471   4.299  14.319  0.00  0.00    +0.000 A 
ATOM     19  C   UNL     1       5.386   3.302  14.485  0.00  0.00    +0.000 C 
ATOM     20  H   UNL     1       8.686   6.501  14.912  0.00  0.00    +0.000 HD
ATOM     21  H   UNL     1       6.621   4.284  12.179  0.00  0.00    +0.000 HD
ENDBRANCH   9  13
BRANCH   1  23
ATOM     22  C   UNL     1       2.351   2.471  21.664  0.00  0.00    +0.000 C 
ATOM     23  O   UNL     1       1.879   3.808  21.569  0.00  0.00    +0.000 OA
ENDBRANCH   1  23
TORSDOF 2
ENDMDL
MODEL 6
REMARK VINA RESULT:      -6.4      1.038      1.455
REMARK  Name = 
REMARK  4 active torsions:
REMARK  status: ('A' for Active; 'I' for Inactive)
REMARK    1  A    between atoms: C_1  and  O_2
REMARK    2  A    between atoms: O_2  and  C_3
REMARK    3  A    between atoms: C_11  and  C_13
REMARK    4  A    between atoms: C_18  and  C_19
REMARK                            x       y       z     vdW  Elec       q    Type
REMARK                         _______ _______ _______ _____ _____    ______ ____
ROOT
ATOM      1  C   UNL     1       2.125   3.755  18.648  0.00  0.00    +0.000 A 
ATOM      2  C   UNL     1       1.699   3.592  19.970  0.00  0.00    +0.000 A 
ATOM      3  C   UNL     1       1.583   4.689  20.819  0.00  0.00    +0.000 A 
ATOM      4  C   UNL     1       1.883   5.960  20.336  0.00  0.00    +0.000 A 
ATOM      5  C   UNL     1       2.327   6.140  19.015  0.00  0.00    +0.000 A 
ATOM      6  C   UNL     1       2.458   5.028  18.178  0.00  0.00    +0.000 A 
ATOM      7  C   UNL     1       2.673   7.536  18.544  0.00  0.00    +0.000 C 
ATOM      8  N   UNL     1       1.734   8.547  19.050  0.00  0.00    +0.000 N 
ATOM      9  C   UNL     1       1.519   9.682  18.274  0.00  0.00    +0.000 C 
ATOM     10  O   UNL     1       2.133   9.861  17.213  0.00  0.00    +0.000 OA
ATOM     11  C   UNL     1       1.094   8.277  20.335  0.00  0.00    +0.000 C 
ATOM     12  C   UNL     1       1.723   7.181  21.184  0.00  0.00    +0.000 C 
ENDROOT
BRANCH   9  13
ATOM     13  C   UNL     1       0.551  10.735  18.742  0.00  0.00    +0.000 A 
ATOM     14  N   UNL     1      -0.810  10.608  18.915  0.00  0.00    +0.000 N 
ATOM     15  C   UNL     1      -1.341  11.791  19.411  0.00  0.00    +0.000 A 
ATOM     16  O   UNL     1      -2.500  11.995  19.713  0.00  0.00    +0.000 OA
ATOM     17  N   UNL     1      -0.258  12.656  19.484  0.00  0.00    +0.000 N 
ATOM     18  C   UNL     1       0.884  12.003  19.070  0.00  0.00    +0.000 A 
ATOM     19  C   UNL     1       2.195  12.694  19.045  0.00  0.00    +0.000 C 
ATOM     20  H   UNL     1      -1.406   9.825  18.727  0.00  0.00    +0.000 HD
ATOM     21  H   UNL     1      -0.333  13.611  19.804  0.00  0.00    +0.000 HD
ENDBRANCH   9  13
BRANCH   1  23
ATOM     22  C   UNL     1       3.352   1.829  18.007  0.00  0.00    +0.000 C 
ATOM     23  O   UNL     1       2.160   2.598  17.918  0.00  0.00    +0.000 OA
ENDBRANCH   1  23
TORSDOF 2
ENDMDL
MODEL 7
REMARK VINA RESULT:      -6.3      2.611      3.190
REMARK  Name = 
REMARK  4 active torsions:
REMARK  status: ('A' for Active; 'I' for Inactive)
REMARK    1  A    between atoms: C_1  and  O_2
REMARK    2  A    between atoms: O_2  and  C_3
REMARK    3  A    between atoms: C_11  and  C_13
REMARK    4  A    between atoms: C_18  and  C_19
REMARK                            x       y       z     vdW  Elec       q    Type
REMARK                         _______ _______ _______ _____ _____    ______ ____
ROOT
ATOM      1  C   UNL     1       5.009   4.737  16.095  0.00  0.00    +0.000 A 
ATOM      2  C   UNL     1       4.382   3.778  16.897  0.00  0.00    +0.000 A 
ATOM      3  C   UNL     1       3.584   4.161  17.970  0.00  0.00    +0.000 A 
ATOM      4  C   UNL     1       3.402   5.516  18.235  0.00  0.00    +0.000 A 
ATOM      5  C   UNL     1       4.036   6.493  17.450  0.00  0.00    +0.000 A 
ATOM      6  C   UNL     1       4.851   6.095  16.387  0.00  0.00    +0.000 A 
ATOM      7  C   UNL     1       3.835   7.953  17.796  0.00  0.00    +0.000 C 
ATOM      8  N   UNL     1       2.452   8.248  18.197  0.00  0.00    +0.000 N 
ATOM      9  C   UNL     1       1.960   9.525  17.944  0.00  0.00    +0.000 C 
ATOM     10  O   UNL     1       2.676  10.402  17.441  0.00  0.00    +0.000 OA
ATOM     11  C   UNL     1       1.698   7.170  18.830  0.00  0.00    +0.000 C 
ATOM     12  C   UNL     1       2.510   5.988  19.340  0.00  0.00    +0.000 C 
ENDROOT
BRANCH   9  13
ATOM     13  C   UNL     1       0.543   9.867  18.318  0.00  0.00    +0.000 A 
ATOM     14  N   UNL     1      -0.562   9.887  17.497  0.00  0.00    +0.000 N 
ATOM     15  C   UNL     1      -1.698  10.201  18.231  0.00  0.00    +0.000 A 
ATOM     16  O   UNL     1      -2.839  10.257  17.814  0.00  0.00    +0.000 OA
ATOM     17  N   UNL     1      -1.231  10.422  19.519  0.00  0.00    +0.000 N 
ATOM     18  C   UNL     1       0.132  10.221  19.557  0.00  0.00    +0.000 A 
ATOM     19  C   UNL     1       0.897  10.391  20.816  0.00  0.00    +0.000 C 
ATOM     20  H   UNL     1      -0.626   9.722  16.510  0.00  0.00    +0.000 HD
ATOM     21  H   UNL     1      -1.832  10.684  20.288  0.00  0.00    +0.000 HD
ENDBRANCH   9  13
BRANCH   1  23
ATOM     22  C   UNL     1       7.057   4.718  14.899  0.00  0.00    +0.000 C 
ATOM     23  O   UNL     1       5.735   4.221  15.056  0.00  0.00    +0.000 OA
ENDBRANCH   1  23
TORSDOF 2
ENDMDL
MODEL 8
REMARK VINA RESULT:      -6.1      2.395      3.586
REMARK  Name = 
REMARK  4 active torsions:
REMARK  status: ('A' for Active; 'I' for Inactive)
REMARK    1  A    between atoms: C_1  and  O_2
REMARK    2  A    between atoms: O_2  and  C_3
REMARK    3  A    between atoms: C_11  and  C_13
REMARK    4  A    between atoms: C_18  and  C_19
REMARK                            x       y       z     vdW  Elec       q    Type
REMARK                         _______ _______ _______ _____ _____    ______ ____
ROOT
ATOM      1  C   UNL     1       2.673   7.463  18.335  0.00  0.00    +0.000 A 
ATOM      2  C   UNL     1       2.396   6.891  19.581  0.00  0.00    +0.000 A 
ATOM      3  C   UNL     1       1.647   7.583  20.528  0.00  0.00    +0.000 A 
ATOM      4  C   UNL     1       1.162   8.851  20.221  0.00  0.00    +0.000 A 
ATOM      5  C   UNL     1       1.444   9.447  18.980  0.00  0.00    +0.000 A 
ATOM      6  C   UNL     1       2.213   8.750  18.044  0.00  0.00    +0.000 A 
ATOM      7  C   UNL     1       0.922  10.840  18.703  0.00  0.00    +0.000 C 
ATOM      8  N   UNL     1      -0.439  11.042  19.219  0.00  0.00    +0.000 N 
ATOM      9  C   UNL     1      -1.259  11.949  18.554  0.00  0.00    +0.000 C 
ATOM     10  O   UNL     1      -0.844  12.602  17.587  0.00  0.00    +0.000 OA
ATOM     11  C   UNL     1      -0.827  10.267  20.394  0.00  0.00    +0.000 C 
ATOM     12  C   UNL     1       0.305   9.618  21.178  0.00  0.00    +0.000 C 
ENDROOT
BRANCH   9  13
ATOM     13  C   UNL     1      -2.668  12.173  19.034  0.00  0.00    +0.000 A 
ATOM     14  N   UNL     1      -3.091  13.017  20.037  0.00  0.00    +0.000 N 
ATOM     15  C   UNL     1      -4.475  12.980  20.142  0.00  0.00    +0.000 A 
ATOM     16  O   UNL     1      -5.163  13.638  20.898  0.00  0.00    +0.000 OA
ATOM     17  N   UNL     1      -4.871  12.042  19.198  0.00  0.00    +0.000 N 
ATOM     18  C   UNL     1      -3.764  11.557  18.536  0.00  0.00    +0.000 A 
ATOM     19  C   UNL     1      -3.895  10.535  17.469  0.00  0.00    +0.000 C 
ATOM     20  H   UNL     1      -2.551  13.596  20.652  0.00  0.00    +0.000 HD
ATOM     21  H   UNL     1      -5.836  11.786  19.045  0.00  0.00    +0.000 HD
ENDBRANCH   9  13
BRANCH   1  23
ATOM     22  C   UNL     1       3.530   5.299  17.877  0.00  0.00    +0.000 C 
ATOM     23  O   UNL     1       3.388   6.659  17.489  0.00  0.00    +0.000 OA
ENDBRANCH   1  23
TORSDOF 2
ENDMDL
MODEL 9
REMARK VINA RESULT:      -6.1      2.859      7.410
REMARK  Name = 
REMARK  4 active torsions:
REMARK  status: ('A' for Active; 'I' for Inactive)
REMARK    1  A    between atoms: C_1  and  O_2
REMARK    2  A    between atoms: O_2  and  C_3
REMARK    3  A    between atoms: C_11  and  C_13
REMARK    4  A    between atoms: C_18  and  C_19
REMARK                            x       y       z     vdW  Elec       q    Type
REMARK                         _______ _______ _______ _____ _____    ______ ____
ROOT
ATOM      1  C   UNL     1       1.366  11.860  19.386  0.00  0.00    +0.000 A 
ATOM      2  C   UNL     1       0.819  11.449  20.606  0.00  0.00    +0.000 A 
ATOM      3  C   UNL     1       0.702  10.097  20.912  0.00  0.00    +0.000 A 
ATOM      4  C   UNL     1       1.148   9.149  19.995  0.00  0.00    +0.000 A 
ATOM      5  C   UNL     1       1.687   9.543  18.759  0.00  0.00    +0.000 A 
ATOM      6  C   UNL     1       1.781  10.904  18.455  0.00  0.00    +0.000 A 
ATOM      7  C   UNL     1       2.129   8.477  17.781  0.00  0.00    +0.000 C 
ATOM      8  N   UNL     1       2.800   7.351  18.445  0.00  0.00    +0.000 N 
ATOM      9  C   UNL     1       3.766   6.652  17.725  0.00  0.00    +0.000 C 
ATOM     10  O   UNL     1       4.020   6.937  16.547  0.00  0.00    +0.000 OA
ATOM     11  C   UNL     1       2.401   7.054  19.818  0.00  0.00    +0.000 C 
ATOM     12  C   UNL     1       1.100   7.684  20.293  0.00  0.00    +0.000 C 
ENDROOT
BRANCH   9  13
ATOM     13  C   UNL     1       4.494   5.505  18.371  0.00  0.00    +0.000 A 
ATOM     14  N   UNL     1       3.948   4.392  18.971  0.00  0.00    +0.000 N 
ATOM     15  C   UNL     1       4.954   3.537  19.400  0.00  0.00    +0.000 A 
ATOM     16  O   UNL     1       4.808   2.452  19.928  0.00  0.00    +0.000 OA
ATOM     17  N   UNL     1       6.133   4.199  19.084  0.00  0.00    +0.000 N 
ATOM     18  C   UNL     1       5.839   5.395  18.465  0.00  0.00    +0.000 A 
ATOM     19  C   UNL     1       6.915   6.311  18.017  0.00  0.00    +0.000 C 
ATOM     20  H   UNL     1       2.985   4.159  19.125  0.00  0.00    +0.000 HD
ATOM     21  H   UNL     1       7.048   3.825  19.288  0.00  0.00    +0.000 HD
ENDBRANCH   9  13
BRANCH   1  23
ATOM     22  C   UNL     1       2.609  13.706  18.568  0.00  0.00    +0.000 C 
ATOM     23  O   UNL     1       1.453  13.217  19.232  0.00  0.00    +0.000 OA
ENDBRANCH   1  23
TORSDOF 2
ENDMDL
