MODEL 1
REMARK VINA RESULT:      -8.3      0.000      0.000
REMARK  Name = 
REMARK  6 active torsions:
REMARK  status: ('A' for Active; 'I' for Inactive)
REMARK    1  A    between atoms: C_2  and  C_3
REMARK    2  A    between atoms: C_3  and  C_4
REMARK    3  A    between atoms: C_3  and  C_19
REMARK    4  A    between atoms: C_4  and  C_6
REMARK    5  A    between atoms: C_6  and  C_7
REMARK    6  A    between atoms: C_7  and  N_8
REMARK                            x       y       z     vdW  Elec       q    Type
REMARK                         _______ _______ _______ _____ _____    ______ ____
ROOT
ATOM      1  C   UNL     1       6.444   6.701  17.054  0.00  0.00    +0.000 C 
ATOM      2  O   UNL     1       6.300   6.320  15.888  0.00  0.00    +0.000 OA
ENDROOT
BRANCH   1   3
ATOM      3  C   UNL     1       7.822   6.804  17.726  0.00  0.00    +0.000 C 
BRANCH   3   4
ATOM      4  C   UNL     1       8.176   8.217  18.092  0.00  0.00    +0.000 A 
ATOM      5  N   UNL     1       7.948   9.292  17.360  0.00  0.00    +0.000 NA
ATOM      6  C   UNL     1       8.534  10.340  18.036  0.00  0.00    +0.000 A 
ATOM      7  C   UNL     1       8.612  11.701  17.704  0.00  0.00    +0.000 A 
ATOM      8  C   UNL     1       9.284  12.568  18.577  0.00  0.00    +0.000 A 
ATOM      9  C   UNL     1       9.865  12.092  19.756  0.00  0.00    +0.000 A 
ATOM     10  C   UNL     1       9.794  10.741  20.105  0.00  0.00    +0.000 A 
ATOM     11  C   UNL     1       9.120   9.901  19.217  0.00  0.00    +0.000 A 
ATOM     12  N   UNL     1       8.863   8.558  19.240  0.00  0.00    +0.000 N 
ATOM     13  H   UNL     1       9.099   7.924  19.992  0.00  0.00    +0.000 HD
ENDBRANCH   3   4
BRANCH   3  15
ATOM     14  N   UNL     1       7.649   5.341  20.085  0.00  0.00    +0.000 NA
ATOM     15  C   UNL     1       7.727   6.004  19.015  0.00  0.00    +0.000 C 
ENDBRANCH   3  15
ENDBRANCH   1   3
BRANCH   1  16
ATOM     16  C   UNL     1       5.224   7.110  17.886  0.00  0.00    +0.000 C 
BRANCH  16  17
ATOM     17  C   UNL     1       3.959   6.587  17.203  0.00  0.00    +0.000 C 
BRANCH  17  18
ATOM     18  N   UNL     1       3.243   5.531  17.896  0.00  0.00    +0.000 N 
ATOM     19  C   UNL     1       2.341   5.770  18.895  0.00  0.00    +0.000 C 
ATOM     20  O   UNL     1       2.247   6.803  19.546  0.00  0.00    +0.000 OA
ATOM     21  C   UNL     1       1.390   4.599  18.987  0.00  0.00    +0.000 C 
ATOM     22  C   UNL     1       1.044   4.205  20.419  0.00  0.00    +0.000 C 
ATOM     23  C   UNL     1       1.532   2.866  20.859  0.00  0.00    +0.000 C 
ATOM     24  C   UNL     1       2.083   1.960  20.045  0.00  0.00    +0.000 C 
ATOM     25  C   UNL     1       2.289   2.158  18.580  0.00  0.00    +0.000 C 
ATOM     26  C   UNL     1       1.990   3.554  18.046  0.00  0.00    +0.000 C 
ATOM     27  C   UNL     1       3.204   4.237  17.460  0.00  0.00    +0.000 C 
ATOM     28  O   UNL     1       3.977   3.733  16.660  0.00  0.00    +0.000 OA
ENDBRANCH  17  18
ENDBRANCH  16  17
ENDBRANCH   1  16
TORSDOF 6
ENDMDL
MODEL 2
REMARK VINA RESULT:      -8.2      0.608      1.812
REMARK  Name = 
REMARK  6 active torsions:
REMARK  status: ('A' for Active; 'I' for Inactive)
REMARK    1  A    between atoms: C_2  and  C_3
REMARK    2  A    between atoms: C_3  and  C_4
REMARK    3  A    between atoms: C_3  and  C_19
REMARK    4  A    between atoms: C_4  and  C_6
REMARK    5  A    between atoms: C_6  and  C_7
REMARK    6  A    between atoms: C_7  and  N_8
REMARK                            x       y       z     vdW  Elec       q    Type
REMARK                         _______ _______ _______ _____ _____    ______ ____
ROOT
ATOM      1  C   UNL     1       6.403   6.906  16.977  0.00  0.00    +0.000 C 
ATOM      2  O   UNL     1       6.230   6.456  15.839  0.00  0.00    +0.000 OA
ENDROOT
BRANCH   1   3
ATOM      3  C   UNL     1       7.784   6.946  17.649  0.00  0.00    +0.000 C 
BRANCH   3   4
ATOM      4  C   UNL     1       8.179   8.336  18.060  0.00  0.00    +0.000 A 
ATOM      5  N   UNL     1       8.011   9.437  17.351  0.00  0.00    +0.000 NA
ATOM      6  C   UNL     1       8.616  10.445  18.069  0.00  0.00    +0.000 A 
ATOM      7  C   UNL     1       8.753  11.810  17.774  0.00  0.00    +0.000 A 
ATOM      8  C   UNL     1       9.433  12.629  18.687  0.00  0.00    +0.000 A 
ATOM      9  C   UNL     1       9.963  12.103  19.869  0.00  0.00    +0.000 A 
ATOM     10  C   UNL     1       9.833  10.747  20.180  0.00  0.00    +0.000 A 
ATOM     11  C   UNL     1       9.153   9.955  19.253  0.00  0.00    +0.000 A 
ATOM     12  N   UNL     1       8.847   8.622  19.235  0.00  0.00    +0.000 N 
ATOM     13  H   UNL     1       9.039   7.962  19.976  0.00  0.00    +0.000 HD
ENDBRANCH   3   4
BRANCH   3  15
ATOM     14  N   UNL     1       7.571   5.412  19.959  0.00  0.00    +0.000 NA
ATOM     15  C   UNL     1       7.668   6.108  18.911  0.00  0.00    +0.000 C 
ENDBRANCH   3  15
ENDBRANCH   1   3
BRANCH   1  16
ATOM     16  C   UNL     1       5.219   7.469  17.769  0.00  0.00    +0.000 C 
BRANCH  16  17
ATOM     17  C   UNL     1       3.929   6.820  17.264  0.00  0.00    +0.000 C 
BRANCH  17  18
ATOM     18  N   UNL     1       3.398   5.733  18.069  0.00  0.00    +0.000 N 
ATOM     19  C   UNL     1       3.682   4.418  17.829  0.00  0.00    +0.000 C 
ATOM     20  O   UNL     1       4.119   3.956  16.782  0.00  0.00    +0.000 OA
ATOM     21  C   UNL     1       3.488   3.634  19.106  0.00  0.00    +0.000 C 
ATOM     22  C   UNL     1       2.826   2.277  18.895  0.00  0.00    +0.000 C 
ATOM     23  C   UNL     1       1.466   2.120  19.489  0.00  0.00    +0.000 C 
ATOM     24  C   UNL     1       0.895   3.007  20.308  0.00  0.00    +0.000 C 
ATOM     25  C   UNL     1       1.533   4.283  20.746  0.00  0.00    +0.000 C 
ATOM     26  C   UNL     1       2.852   4.637  20.068  0.00  0.00    +0.000 C 
ATOM     27  C   UNL     1       2.783   5.920  19.273  0.00  0.00    +0.000 C 
ATOM     28  O   UNL     1       2.323   6.977  19.681  0.00  0.00    +0.000 OA
ENDBRANCH  17  18
ENDBRANCH  16  17
ENDBRANCH   1  16
TORSDOF 6
ENDMDL
MODEL 3
REMARK VINA RESULT:      -8.2      2.676      5.013
REMARK  Name = 
REMARK  6 active torsions:
REMARK  status: ('A' for Active; 'I' for Inactive)
REMARK    1  A    between atoms: C_2  and  C_3
REMARK    2  A    between atoms: C_3  and  C_4
REMARK    3  A    between atoms: C_3  and  C_19
REMARK    4  A    between atoms: C_4  and  C_6
REMARK    5  A    between atoms: C_6  and  C_7
REMARK    6  A    between atoms: C_7  and  N_8
REMARK                            x       y       z     vdW  Elec       q    Type
REMARK                         _______ _______ _______ _____ _____    ______ ____
ROOT
ATOM      1  C   UNL     1       5.924   5.845  18.294  0.00  0.00    +0.000 C 
ATOM      2  O   UNL     1       5.635   4.945  19.090  0.00  0.00    +0.000 OA
ENDROOT
BRANCH   1   3
ATOM      3  C   UNL     1       7.254   5.871  17.525  0.00  0.00    +0.000 C 
BRANCH   3   4
ATOM      4  C   UNL     1       7.123   5.309  16.138  0.00  0.00    +0.000 A 
ATOM      5  N   UNL     1       7.829   5.667  15.081  0.00  0.00    +0.000 NA
ATOM      6  C   UNL     1       7.296   4.971  14.018  0.00  0.00    +0.000 A 
ATOM      7  C   UNL     1       7.648   4.984  12.660  0.00  0.00    +0.000 A 
ATOM      8  C   UNL     1       6.927   4.174  11.771  0.00  0.00    +0.000 A 
ATOM      9  C   UNL     1       5.878   3.367  12.223  0.00  0.00    +0.000 A 
ATOM     10  C   UNL     1       5.516   3.339  13.573  0.00  0.00    +0.000 A 
ATOM     11  C   UNL     1       6.250   4.156  14.434  0.00  0.00    +0.000 A 
ATOM     12  N   UNL     1       6.173   4.371  15.783  0.00  0.00    +0.000 N 
ATOM     13  H   UNL     1       5.552   3.894  16.423  0.00  0.00    +0.000 HD
ENDBRANCH   3   4
BRANCH   3  15
ATOM     14  N   UNL     1       7.961   8.550  17.284  0.00  0.00    +0.000 NA
ATOM     15  C   UNL     1       7.640   7.335  17.393  0.00  0.00    +0.000 C 
ENDBRANCH   3  15
ENDBRANCH   1   3
BRANCH   1  16
ATOM     16  C   UNL     1       4.935   6.984  18.028  0.00  0.00    +0.000 C 
BRANCH  16  17
ATOM     17  C   UNL     1       3.687   6.410  17.354  0.00  0.00    +0.000 C 
BRANCH  17  18
ATOM     18  N   UNL     1       2.993   5.357  18.074  0.00  0.00    +0.000 N 
ATOM     19  C   UNL     1       2.245   5.585  19.195  0.00  0.00    +0.000 C 
ATOM     20  O   UNL     1       2.307   6.576  19.911  0.00  0.00    +0.000 OA
ATOM     21  C   UNL     1       1.234   4.471  19.344  0.00  0.00    +0.000 C 
ATOM     22  C   UNL     1       1.047   4.005  20.784  0.00  0.00    +0.000 C 
ATOM     23  C   UNL     1       1.492   2.612  21.077  0.00  0.00    +0.000 C 
ATOM     24  C   UNL     1       1.871   1.730  20.148  0.00  0.00    +0.000 C 
ATOM     25  C   UNL     1       1.902   2.012  18.682  0.00  0.00    +0.000 C 
ATOM     26  C   UNL     1       1.635   3.456  18.274  0.00  0.00    +0.000 C 
ATOM     27  C   UNL     1       2.808   4.100  17.573  0.00  0.00    +0.000 C 
ATOM     28  O   UNL     1       3.437   3.603  16.650  0.00  0.00    +0.000 OA
ENDBRANCH  17  18
ENDBRANCH  16  17
ENDBRANCH   1  16
TORSDOF 6
ENDMDL
MODEL 4
REMARK VINA RESULT:      -8.1      3.542      6.021
REMARK  Name = 
REMARK  6 active torsions:
REMARK  status: ('A' for Active; 'I' for Inactive)
REMARK    1  A    between atoms: C_2  and  C_3
REMARK    2  A    between atoms: C_3  and  C_4
REMARK    3  A    between atoms: C_3  and  C_19
REMARK    4  A    between atoms: C_4  and  C_6
REMARK    5  A    between atoms: C_6  and  C_7
REMARK    6  A    between atoms: C_7  and  N_8
REMARK                            x       y       z     vdW  Elec       q    Type
REMARK                         _______ _______ _______ _____ _____    ______ ____
ROOT
ATOM      1  C   UNL     1       5.290   4.950  18.389  0.00  0.00    +0.000 C 
ATOM      2  O   UNL     1       4.705   4.147  19.123  0.00  0.00    +0.000 OA
ENDROOT
BRANCH   1   3
ATOM      3  C   UNL     1       6.735   4.732  17.912  0.00  0.00    +0.000 C 
BRANCH   3   4
ATOM      4  C   UNL     1       6.825   4.562  16.422  0.00  0.00    +0.000 A 
ATOM      5  N   UNL     1       7.584   5.263  15.602  0.00  0.00    +0.000 NA
ATOM      6  C   UNL     1       7.262   4.837  14.331  0.00  0.00    +0.000 A 
ATOM      7  C   UNL     1       7.749   5.257  13.085  0.00  0.00    +0.000 A 
ATOM      8  C   UNL     1       7.237   4.656  11.926  0.00  0.00    +0.000 A 
ATOM      9  C   UNL     1       6.263   3.657  12.005  0.00  0.00    +0.000 A 
ATOM     10  C   UNL     1       5.768   3.224  13.238  0.00  0.00    +0.000 A 
ATOM     11  C   UNL     1       6.294   3.841  14.375  0.00  0.00    +0.000 A 
ATOM     12  N   UNL     1       6.048   3.669  15.709  0.00  0.00    +0.000 N 
ATOM     13  H   UNL     1       5.432   2.976  16.112  0.00  0.00    +0.000 HD
ENDBRANCH   3   4
BRANCH   3  15
ATOM     14  N   UNL     1       8.133   7.040  18.583  0.00  0.00    +0.000 NA
ATOM     15  C   UNL     1       7.499   5.994  18.279  0.00  0.00    +0.000 C 
ENDBRANCH   3  15
ENDBRANCH   1   3
BRANCH   1  16
ATOM     16  C   UNL     1       4.573   6.214  17.904  0.00  0.00    +0.000 C 
BRANCH  16  17
ATOM     17  C   UNL     1       3.062   6.001  18.015  0.00  0.00    +0.000 C 
BRANCH  17  18
ATOM     18  N   UNL     1       2.321   7.014  18.746  0.00  0.00    +0.000 N 
ATOM     19  C   UNL     1       1.946   6.867  20.053  0.00  0.00    +0.000 C 
ATOM     20  O   UNL     1       1.881   5.811  20.668  0.00  0.00    +0.000 OA
ATOM     21  C   UNL     1       1.742   8.236  20.659  0.00  0.00    +0.000 C 
ATOM     22  C   UNL     1       0.531   8.320  21.583  0.00  0.00    +0.000 C 
ATOM     23  C   UNL     1      -0.581   9.197  21.115  0.00  0.00    +0.000 C 
ATOM     24  C   UNL     1      -0.504  10.014  20.060  0.00  0.00    +0.000 C 
ATOM     25  C   UNL     1       0.705  10.165  19.198  0.00  0.00    +0.000 C 
ATOM     26  C   UNL     1       1.846   9.192  19.472  0.00  0.00    +0.000 C 
ATOM     27  C   UNL     1       2.151   8.292  18.297  0.00  0.00    +0.000 C 
ATOM     28  O   UNL     1       2.301   8.666  17.143  0.00  0.00    +0.000 OA
ENDBRANCH  17  18
ENDBRANCH  16  17
ENDBRANCH   1  16
TORSDOF 6
ENDMDL
MODEL 5
REMARK VINA RESULT:      -7.9      2.998      5.633
REMARK  Name = 
REMARK  6 active torsions:
REMARK  status: ('A' for Active; 'I' for Inactive)
REMARK    1  A    between atoms: C_2  and  C_3
REMARK    2  A    between atoms: C_3  and  C_4
REMARK    3  A    between atoms: C_3  and  C_19
REMARK    4  A    between atoms: C_4  and  C_6
REMARK    5  A    between atoms: C_6  and  C_7
REMARK    6  A    between atoms: C_7  and  N_8
REMARK                            x       y       z     vdW  Elec       q    Type
REMARK                         _______ _______ _______ _____ _____    ______ ____
ROOT
ATOM      1  C   UNL     1       2.017   3.973  18.806  0.00  0.00    +0.000 C 
ATOM      2  O   UNL     1       1.327   4.056  17.785  0.00  0.00    +0.000 OA
ENDROOT
BRANCH   1   3
ATOM      3  C   UNL     1       3.363   3.233  18.837  0.00  0.00    +0.000 C 
BRANCH   3   4
ATOM      4  C   UNL     1       4.528   4.154  18.614  0.00  0.00    +0.000 A 
ATOM      5  N   UNL     1       5.642   4.190  19.322  0.00  0.00    +0.000 NA
ATOM      6  C   UNL     1       6.368   5.252  18.831  0.00  0.00    +0.000 A 
ATOM      7  C   UNL     1       7.616   5.756  19.227  0.00  0.00    +0.000 A 
ATOM      8  C   UNL     1       8.134   6.872  18.554  0.00  0.00    +0.000 A 
ATOM      9  C   UNL     1       7.427   7.473  17.509  0.00  0.00    +0.000 A 
ATOM     10  C   UNL     1       6.185   6.983  17.099  0.00  0.00    +0.000 A 
ATOM     11  C   UNL     1       5.693   5.872  17.787  0.00  0.00    +0.000 A 
ATOM     12  N   UNL     1       4.540   5.148  17.654  0.00  0.00    +0.000 N 
ATOM     13  H   UNL     1       3.833   5.287  16.945  0.00  0.00    +0.000 HD
ENDBRANCH   3   4
BRANCH   3  15
ATOM     14  N   UNL     1       3.607   2.170  21.396  0.00  0.00    +0.000 NA
ATOM     15  C   UNL     1       3.497   2.652  20.235  0.00  0.00    +0.000 C 
ENDBRANCH   3  15
ENDBRANCH   1   3
BRANCH   1  16
ATOM     16  C   UNL     1       1.551   4.638  20.105  0.00  0.00    +0.000 C 
BRANCH  16  17
ATOM     17  C   UNL     1       2.382   5.901  20.343  0.00  0.00    +0.000 C 
BRANCH  17  18
ATOM     18  N   UNL     1       1.760   7.160  19.973  0.00  0.00    +0.000 N 
ATOM     19  C   UNL     1       1.097   7.956  20.865  0.00  0.00    +0.000 C 
ATOM     20  O   UNL     1       0.661   7.607  21.954  0.00  0.00    +0.000 OA
ATOM     21  C   UNL     1       1.093   9.375  20.345  0.00  0.00    +0.000 C 
ATOM     22  C   UNL     1      -0.231  10.101  20.561  0.00  0.00    +0.000 C 
ATOM     23  C   UNL     1      -0.986  10.453  19.324  0.00  0.00    +0.000 C 
ATOM     24  C   UNL     1      -0.503  10.325  18.084  0.00  0.00    +0.000 C 
ATOM     25  C   UNL     1       0.861   9.814  17.759  0.00  0.00    +0.000 C 
ATOM     26  C   UNL     1       1.662   9.259  18.931  0.00  0.00    +0.000 C 
ATOM     27  C   UNL     1       1.988   7.791  18.784  0.00  0.00    +0.000 C 
ATOM     28  O   UNL     1       2.458   7.271  17.782  0.00  0.00    +0.000 OA
ENDBRANCH  17  18
ENDBRANCH  16  17
ENDBRANCH   1  16
TORSDOF 6
ENDMDL
MODEL 6
REMARK VINA RESULT:      -7.8      2.840      6.574
REMARK  Name = 
REMARK  6 active torsions:
REMARK  status: ('A' for Active; 'I' for Inactive)
REMARK    1  A    between atoms: C_2  and  C_3
REMARK    2  A    between atoms: C_3  and  C_4
REMARK    3  A    between atoms: C_3  and  C_19
REMARK    4  A    between atoms: C_4  and  C_6
REMARK    5  A    between atoms: C_6  and  C_7
REMARK    6  A    between atoms: C_7  and  N_8
REMARK                            x       y       z     vdW  Elec       q    Type
REMARK                         _______ _______ _______ _____ _____    ______ ____
ROOT
ATOM      1  C   UNL     1       2.556   3.404  18.668  0.00  0.00    +0.000 C 
ATOM      2  O   UNL     1       1.387   3.131  18.377  0.00  0.00    +0.000 OA
ENDROOT
BRANCH   1   3
ATOM      3  C   UNL     1       2.928   4.229  19.909  0.00  0.00    +0.000 C 
BRANCH   3   4
ATOM      4  C   UNL     1       2.390   5.630  19.847  0.00  0.00    +0.000 A 
ATOM      5  N   UNL     1       2.436   6.437  18.803  0.00  0.00    +0.000 NA
ATOM      6  C   UNL     1       1.927   7.643  19.235  0.00  0.00    +0.000 A 
ATOM      7  C   UNL     1       1.761   8.853  18.546  0.00  0.00    +0.000 A 
ATOM      8  C   UNL     1       1.218   9.948  19.235  0.00  0.00    +0.000 A 
ATOM      9  C   UNL     1       0.847   9.841  20.578  0.00  0.00    +0.000 A 
ATOM     10  C   UNL     1       1.003   8.642  21.279  0.00  0.00    +0.000 A 
ATOM     11  C   UNL     1       1.547   7.569  20.569  0.00  0.00    +0.000 A 
ATOM     12  N   UNL     1       1.830   6.280  20.929  0.00  0.00    +0.000 N 
ATOM     13  H   UNL     1       1.626   5.859  21.825  0.00  0.00    +0.000 HD
ENDBRANCH   3   4
BRANCH   3  15
ATOM     14  N   UNL     1       1.729   2.961  22.074  0.00  0.00    +0.000 NA
ATOM     15  C   UNL     1       2.273   3.536  21.093  0.00  0.00    +0.000 C 
ENDBRANCH   3  15
ENDBRANCH   1   3
BRANCH   1  16
ATOM     16  C   UNL     1       3.705   2.900  17.789  0.00  0.00    +0.000 C 
BRANCH  16  17
ATOM     17  C   UNL     1       4.087   3.996  16.792  0.00  0.00    +0.000 C 
BRANCH  17  18
ATOM     18  N   UNL     1       5.258   4.788  17.124  0.00  0.00    +0.000 N 
ATOM     19  C   UNL     1       6.112   4.469  18.143  0.00  0.00    +0.000 C 
ATOM     20  O   UNL     1       5.865   3.720  19.079  0.00  0.00    +0.000 OA
ATOM     21  C   UNL     1       7.459   5.094  17.866  0.00  0.00    +0.000 C 
ATOM     22  C   UNL     1       8.128   5.678  19.106  0.00  0.00    +0.000 C 
ATOM     23  C   UNL     1       8.293   7.161  19.115  0.00  0.00    +0.000 C 
ATOM     24  C   UNL     1       8.053   7.952  18.066  0.00  0.00    +0.000 C 
ATOM     25  C   UNL     1       7.586   7.467  16.733  0.00  0.00    +0.000 C 
ATOM     26  C   UNL     1       7.215   5.991  16.653  0.00  0.00    +0.000 C 
ATOM     27  C   UNL     1       5.761   5.763  16.311  0.00  0.00    +0.000 C 
ATOM     28  O   UNL     1       5.158   6.309  15.399  0.00  0.00    +0.000 OA
ENDBRANCH  17  18
ENDBRANCH  16  17
ENDBRANCH   1  16
TORSDOF 6
ENDMDL
MODEL 7
REMARK VINA RESULT:      -7.7      4.919      7.726
REMARK  Name = 
REMARK  6 active torsions:
REMARK  status: ('A' for Active; 'I' for Inactive)
REMARK    1  A    between atoms: C_2  and  C_3
REMARK    2  A    between atoms: C_3  and  C_4
REMARK    3  A    between atoms: C_3  and  C_19
REMARK    4  A    between atoms: C_4  and  C_6
REMARK    5  A    between atoms: C_6  and  C_7
REMARK    6  A    between atoms: C_7  and  N_8
REMARK                            x       y       z     vdW  Elec       q    Type
REMARK                         _______ _______ _______ _____ _____    ______ ____
ROOT
ATOM      1  C   UNL     1       1.660   9.198  18.557  0.00  0.00    +0.000 C 
ATOM      2  O   UNL     1       2.066   9.531  17.439  0.00  0.00    +0.000 OA
ENDROOT
BRANCH   1   3
ATOM      3  C   UNL     1       0.715  10.078  19.390  0.00  0.00    +0.000 C 
BRANCH   3   4
ATOM      4  C   UNL     1      -0.543  10.428  18.648  0.00  0.00    +0.000 A 
ATOM      5  N   UNL     1      -1.581  11.081  19.137  0.00  0.00    +0.000 NA
ATOM      6  C   UNL     1      -2.534  11.075  18.141  0.00  0.00    +0.000 A 
ATOM      7  C   UNL     1      -3.831  11.608  18.127  0.00  0.00    +0.000 A 
ATOM      8  C   UNL     1      -4.608  11.454  16.970  0.00  0.00    +0.000 A 
ATOM      9  C   UNL     1      -4.105  10.786  15.850  0.00  0.00    +0.000 A 
ATOM     10  C   UNL     1      -2.813  10.252  15.845  0.00  0.00    +0.000 A 
ATOM     11  C   UNL     1      -2.063  10.419  17.010  0.00  0.00    +0.000 A 
ATOM     12  N   UNL     1      -0.794  10.036  17.347  0.00  0.00    +0.000 N 
ATOM     13  H   UNL     1      -0.132   9.579  16.734  0.00  0.00    +0.000 HD
ENDBRANCH   3   4
BRANCH   3  15
ATOM     14  N   UNL     1      -0.008   8.561  21.606  0.00  0.00    +0.000 NA
ATOM     15  C   UNL     1       0.320   9.249  20.601  0.00  0.00    +0.000 C 
ENDBRANCH   3  15
ENDBRANCH   1   3
BRANCH   1  16
ATOM     16  C   UNL     1       2.082   7.854  19.159  0.00  0.00    +0.000 C 
BRANCH  16  17
ATOM     17  C   UNL     1       2.555   6.932  18.034  0.00  0.00    +0.000 C 
BRANCH  17  18
ATOM     18  N   UNL     1       2.747   5.535  18.383  0.00  0.00    +0.000 N 
ATOM     19  C   UNL     1       3.695   5.110  19.271  0.00  0.00    +0.000 C 
ATOM     20  O   UNL     1       4.679   5.744  19.629  0.00  0.00    +0.000 OA
ATOM     21  C   UNL     1       3.272   3.776  19.839  0.00  0.00    +0.000 C 
ATOM     22  C   UNL     1       4.421   2.785  19.992  0.00  0.00    +0.000 C 
ATOM     23  C   UNL     1       4.356   1.576  19.120  0.00  0.00    +0.000 C 
ATOM     24  C   UNL     1       3.302   1.246  18.368  0.00  0.00    +0.000 C 
ATOM     25  C   UNL     1       2.038   2.036  18.293  0.00  0.00    +0.000 C 
ATOM     26  C   UNL     1       2.051   3.384  19.006  0.00  0.00    +0.000 C 
ATOM     27  C   UNL     1       1.853   4.552  18.068  0.00  0.00    +0.000 C 
ATOM     28  O   UNL     1       0.978   4.632  17.218  0.00  0.00    +0.000 OA
ENDBRANCH  17  18
ENDBRANCH  16  17
ENDBRANCH   1  16
TORSDOF 6
ENDMDL
MODEL 8
REMARK VINA RESULT:      -7.7      5.104      7.986
REMARK  Name = 
REMARK  6 active torsions:
REMARK  status: ('A' for Active; 'I' for Inactive)
REMARK    1  A    between atoms: C_2  and  C_3
REMARK    2  A    between atoms: C_3  and  C_4
REMARK    3  A    between atoms: C_3  and  C_19
REMARK    4  A    between atoms: C_4  and  C_6
REMARK    5  A    between atoms: C_6  and  C_7
REMARK    6  A    between atoms: C_7  and  N_8
REMARK                            x       y       z     vdW  Elec       q    Type
REMARK                         _______ _______ _______ _____ _____    ______ ____
ROOT
ATOM      1  C   UNL     1       0.977   9.184  20.265  0.00  0.00    +0.000 C 
ATOM      2  O   UNL     1       0.606   8.788  21.375  0.00  0.00    +0.000 OA
ENDROOT
BRANCH   1   3
ATOM      3  C   UNL     1       0.643  10.587  19.734  0.00  0.00    +0.000 C 
BRANCH   3   4
ATOM      4  C   UNL     1      -0.589  10.595  18.875  0.00  0.00    +0.000 A 
ATOM      5  N   UNL     1      -0.714  10.035  17.686  0.00  0.00    +0.000 NA
ATOM      6  C   UNL     1      -1.966  10.387  17.232  0.00  0.00    +0.000 A 
ATOM      7  C   UNL     1      -2.609  10.083  16.023  0.00  0.00    +0.000 A 
ATOM      8  C   UNL     1      -3.902  10.583  15.805  0.00  0.00    +0.000 A 
ATOM      9  C   UNL     1      -4.541  11.367  16.770  0.00  0.00    +0.000 A 
ATOM     10  C   UNL     1      -3.916  11.678  17.981  0.00  0.00    +0.000 A 
ATOM     11  C   UNL     1      -2.630  11.168  18.170  0.00  0.00    +0.000 A 
ATOM     12  N   UNL     1      -1.747  11.269  19.209  0.00  0.00    +0.000 N 
ATOM     13  H   UNL     1      -1.926  11.725  20.094  0.00  0.00    +0.000 HD
ENDBRANCH   3   4
BRANCH   3  15
ATOM     14  N   UNL     1       0.122  12.160  21.968  0.00  0.00    +0.000 NA
ATOM     15  C   UNL     1       0.358  11.447  20.955  0.00  0.00    +0.000 C 
ENDBRANCH   3  15
ENDBRANCH   1   3
BRANCH   1  16
ATOM     16  C   UNL     1       1.819   8.275  19.365  0.00  0.00    +0.000 C 
BRANCH  16  17
ATOM     17  C   UNL     1       2.318   7.086  20.188  0.00  0.00    +0.000 C 
BRANCH  17  18
ATOM     18  N   UNL     1       2.441   5.822  19.484  0.00  0.00    +0.000 N 
ATOM     19  C   UNL     1       1.589   4.771  19.681  0.00  0.00    +0.000 C 
ATOM     20  O   UNL     1       0.853   4.614  20.646  0.00  0.00    +0.000 OA
ATOM     21  C   UNL     1       1.608   3.889  18.454  0.00  0.00    +0.000 C 
ATOM     22  C   UNL     1       1.587   2.398  18.774  0.00  0.00    +0.000 C 
ATOM     23  C   UNL     1       2.817   1.638  18.406  0.00  0.00    +0.000 C 
ATOM     24  C   UNL     1       3.824   2.139  17.685  0.00  0.00    +0.000 C 
ATOM     25  C   UNL     1       3.864   3.529  17.144  0.00  0.00    +0.000 C 
ATOM     26  C   UNL     1       2.743   4.456  17.601  0.00  0.00    +0.000 C 
ATOM     27  C   UNL     1       3.241   5.644  18.391  0.00  0.00    +0.000 C 
ATOM     28  O   UNL     1       4.163   6.374  18.058  0.00  0.00    +0.000 OA
ENDBRANCH  17  18
ENDBRANCH  16  17
ENDBRANCH   1  16
TORSDOF 6
ENDMDL
MODEL 9
REMARK VINA RESULT:      -7.7      3.084      5.086
REMARK  Name = 
REMARK  6 active torsions:
REMARK  status: ('A' for Active; 'I' for Inactive)
REMARK    1  A    between atoms: C_2  and  C_3
REMARK    2  A    between atoms: C_3  and  C_4
REMARK    3  A    between atoms: C_3  and  C_19
REMARK    4  A    between atoms: C_4  and  C_6
REMARK    5  A    between atoms: C_6  and  C_7
REMARK    6  A    between atoms: C_7  and  N_8
REMARK                            x       y       z     vdW  Elec       q    Type
REMARK                         _______ _______ _______ _____ _____    ______ ____
ROOT
ATOM      1  C   UNL     1       6.024   6.869  17.466  0.00  0.00    +0.000 C 
ATOM      2  O   UNL     1       6.935   7.673  17.244  0.00  0.00    +0.000 OA
ENDROOT
BRANCH   1   3
ATOM      3  C   UNL     1       6.205   5.351  17.315  0.00  0.00    +0.000 C 
BRANCH   3   4
ATOM      4  C   UNL     1       6.455   4.943  15.891  0.00  0.00    +0.000 A 
ATOM      5  N   UNL     1       7.362   5.456  15.081  0.00  0.00    +0.000 NA
ATOM      6  C   UNL     1       7.156   4.859  13.857  0.00  0.00    +0.000 A 
ATOM      7  C   UNL     1       7.821   5.045  12.636  0.00  0.00    +0.000 A 
ATOM      8  C   UNL     1       7.399   4.304  11.522  0.00  0.00    +0.000 A 
ATOM      9  C   UNL     1       6.341   3.397  11.621  0.00  0.00    +0.000 A 
ATOM     10  C   UNL     1       5.669   3.196  12.830  0.00  0.00    +0.000 A 
ATOM     11  C   UNL     1       6.109   3.948  13.921  0.00  0.00    +0.000 A 
ATOM     12  N   UNL     1       5.694   4.004  15.223  0.00  0.00    +0.000 N 
ATOM     13  H   UNL     1       4.978   3.424  15.641  0.00  0.00    +0.000 HD
ENDBRANCH   3   4
BRANCH   3  15
ATOM     14  N   UNL     1       8.467   4.687  18.791  0.00  0.00    +0.000 NA
ATOM     15  C   UNL     1       7.441   4.988  18.122  0.00  0.00    +0.000 C 
ENDBRANCH   3  15
ENDBRANCH   1   3
BRANCH   1  16
ATOM     16  C   UNL     1       4.652   7.371  17.929  0.00  0.00    +0.000 C 
BRANCH  16  17
ATOM     17  C   UNL     1       3.564   6.528  17.262  0.00  0.00    +0.000 C 
BRANCH  17  18
ATOM     18  N   UNL     1       2.951   5.500  18.084  0.00  0.00    +0.000 N 
ATOM     19  C   UNL     1       2.325   5.766  19.270  0.00  0.00    +0.000 C 
ATOM     20  O   UNL     1       2.462   6.779  19.943  0.00  0.00    +0.000 OA
ATOM     21  C   UNL     1       1.337   4.660  19.561  0.00  0.00    +0.000 C 
ATOM     22  C   UNL     1       1.303   4.241  21.027  0.00  0.00    +0.000 C 
ATOM     23  C   UNL     1       1.778   2.857  21.316  0.00  0.00    +0.000 C 
ATOM     24  C   UNL     1       2.057   1.945  20.380  0.00  0.00    +0.000 C 
ATOM     25  C   UNL     1       1.932   2.179  18.911  0.00  0.00    +0.000 C 
ATOM     26  C   UNL     1       1.623   3.610  18.487  0.00  0.00    +0.000 C 
ATOM     27  C   UNL     1       2.715   4.228  17.646  0.00  0.00    +0.000 C 
ATOM     28  O   UNL     1       3.243   3.700  16.678  0.00  0.00    +0.000 OA
ENDBRANCH  17  18
ENDBRANCH  16  17
ENDBRANCH   1  16
TORSDOF 6
ENDMDL
