MODEL 1
REMARK VINA RESULT:      -7.4      0.000      0.000
REMARK  Name = 
REMARK  8 active torsions:
REMARK  status: ('A' for Active; 'I' for Inactive)
REMARK    1  A    between atoms: C_1  and  C_2
REMARK    2  A    between atoms: C_4  and  O_5
REMARK    3  A    between atoms: C_6  and  C_7
REMARK    4  A    between atoms: C_7  and  C_8
REMARK    5  A    between atoms: C_7  and  N_15
REMARK    6  A    between atoms: N_18  and  C_19
REMARK    7  A    between atoms: N_29  and  C_30
REMARK    8  A    between atoms: C_30  and  C_31
REMARK                            x       y       z     vdW  Elec       q    Type
REMARK                         _______ _______ _______ _____ _____    ______ ____
ROOT
ATOM      1  C   UNL     1      -0.007  12.202  19.965  0.00  0.00    +0.000 C 
ENDROOT
BRANCH   1   6
ATOM      2  C   UNL     1      -4.931  12.982  23.080  0.00  0.00    +0.000 C 
ATOM      3  C   UNL     1      -3.674  12.817  22.268  0.00  0.00    +0.000 A 
ATOM      4  C   UNL     1      -2.495  12.768  22.897  0.00  0.00    +0.000 A 
ATOM      5  C   UNL     1      -1.272  12.606  22.169  0.00  0.00    +0.000 A 
ATOM      6  C   UNL     1      -1.242  12.418  20.840  0.00  0.00    +0.000 A 
ATOM      7  C   UNL     1      -2.564  12.465  20.112  0.00  0.00    +0.000 A 
ATOM      8  O   UNL     1      -2.604  12.335  18.888  0.00  0.00    +0.000 OA
ATOM      9  N   UNL     1      -3.720  12.708  20.877  0.00  0.00    +0.000 N 
BRANCH   5  10
ATOM     10  O   UNL     1      -0.130  12.737  22.918  0.00  0.00    +0.000 OA
ATOM     11  H   UNL     1      -0.171  12.181  23.711  0.00  0.00    +0.000 HD
ENDBRANCH   5  10
BRANCH   9  12
ATOM     12  C   UNL     1      -4.959  12.964  20.132  0.00  0.00    +0.000 C 
BRANCH  12  13
ATOM     13  C   UNL     1      -5.734  11.726  19.836  0.00  0.00    +0.000 A 
ATOM     14  C   UNL     1      -5.852  10.927  18.716  0.00  0.00    +0.000 A 
ATOM     15  C   UNL     1      -6.868   9.981  19.001  0.00  0.00    +0.000 A 
ATOM     16  C   UNL     1      -7.290  10.247  20.281  0.00  0.00    +0.000 A 
ATOM     17  O   UNL     1      -6.614  11.307  20.795  0.00  0.00    +0.000 OA
ENDBRANCH  12  13
ENDBRANCH   9  12
ENDBRANCH   1   6
BRANCH   1  18
ATOM     18  C   UNL     1       1.052  13.309  20.103  0.00  0.00    +0.000 A 
ATOM     19  C   UNL     1       2.273  13.058  20.766  0.00  0.00    +0.000 A 
ATOM     20  C   UNL     1       3.280  14.020  20.839  0.00  0.00    +0.000 A 
ATOM     21  C   UNL     1       3.099  15.259  20.241  0.00  0.00    +0.000 A 
ATOM     22  C   UNL     1       1.912  15.532  19.565  0.00  0.00    +0.000 A 
ATOM     23  C   UNL     1       0.896  14.570  19.491  0.00  0.00    +0.000 A 
ATOM     24 CL   UNL     1      -0.511  15.001  18.578  0.00  0.00    +0.000 Cl
ENDBRANCH   1  18
BRANCH   1  25
ATOM     25  N   UNL     1       0.614  10.870  19.929  0.00  0.00    +0.000 NA
ATOM     26  C   UNL     1       0.796  10.268  18.601  0.00  0.00    +0.000 C 
ATOM     27  C   UNL     1       1.943   9.230  18.654  0.00  0.00    +0.000 C 
ATOM     28  N   UNL     1       1.629   8.223  19.679  0.00  0.00    +0.000 N 
ATOM     29  C   UNL     1       1.357   8.780  21.017  0.00  0.00    +0.000 C 
ATOM     30  C   UNL     1       0.240   9.844  20.911  0.00  0.00    +0.000 C 
BRANCH  28  31
ATOM     31  C   UNL     1       2.007   6.902  19.543  0.00  0.00    +0.000 A 
ATOM     32  C   UNL     1       2.568   6.393  18.366  0.00  0.00    +0.000 A 
ATOM     33  C   UNL     1       2.856   5.031  18.228  0.00  0.00    +0.000 A 
ATOM     34  C   UNL     1       2.578   4.150  19.268  0.00  0.00    +0.000 A 
ATOM     35  C   UNL     1       2.032   4.633  20.452  0.00  0.00    +0.000 A 
ATOM     36  C   UNL     1       1.760   5.997  20.583  0.00  0.00    +0.000 A 
ENDBRANCH  28  31
ENDBRANCH   1  25
TORSDOF 7
ENDMDL
MODEL 2
REMARK VINA RESULT:      -7.3      0.989      1.300
REMARK  Name = 
REMARK  8 active torsions:
REMARK  status: ('A' for Active; 'I' for Inactive)
REMARK    1  A    between atoms: C_1  and  C_2
REMARK    2  A    between atoms: C_4  and  O_5
REMARK    3  A    between atoms: C_6  and  C_7
REMARK    4  A    between atoms: C_7  and  C_8
REMARK    5  A    between atoms: C_7  and  N_15
REMARK    6  A    between atoms: N_18  and  C_19
REMARK    7  A    between atoms: N_29  and  C_30
REMARK    8  A    between atoms: C_30  and  C_31
REMARK                            x       y       z     vdW  Elec       q    Type
REMARK                         _______ _______ _______ _____ _____    ______ ____
ROOT
ATOM      1  C   UNL     1      -0.229  11.520  20.192  0.00  0.00    +0.000 C 
ENDROOT
BRANCH   1   6
ATOM      2  C   UNL     1      -4.461  12.524  24.146  0.00  0.00    +0.000 C 
ATOM      3  C   UNL     1      -3.373  12.305  23.129  0.00  0.00    +0.000 A 
ATOM      4  C   UNL     1      -2.213  11.772  23.525  0.00  0.00    +0.000 A 
ATOM      5  C   UNL     1      -1.149  11.536  22.595  0.00  0.00    +0.000 A 
ATOM      6  C   UNL     1      -1.277  11.762  21.278  0.00  0.00    +0.000 A 
ATOM      7  C   UNL     1      -2.583  12.360  20.811  0.00  0.00    +0.000 A 
ATOM      8  O   UNL     1      -2.754  12.624  19.620  0.00  0.00    +0.000 OA
ATOM      9  N   UNL     1      -3.557  12.640  21.787  0.00  0.00    +0.000 N 
BRANCH   5  10
ATOM     10  O   UNL     1       0.038  11.141  23.159  0.00  0.00    +0.000 OA
ATOM     11  H   UNL     1       0.213  10.205  22.976  0.00  0.00    +0.000 HD
ENDBRANCH   5  10
BRANCH   9  12
ATOM     12  C   UNL     1      -4.724  13.414  21.347  0.00  0.00    +0.000 C 
BRANCH  12  13
ATOM     13  C   UNL     1      -5.770  12.580  20.691  0.00  0.00    +0.000 A 
ATOM     14  C   UNL     1      -6.269  12.524  19.404  0.00  0.00    +0.000 A 
ATOM     15  C   UNL     1      -7.370  11.632  19.437  0.00  0.00    +0.000 A 
ATOM     16  C   UNL     1      -7.460  11.184  20.733  0.00  0.00    +0.000 A 
ATOM     17  O   UNL     1      -6.500  11.757  21.503  0.00  0.00    +0.000 OA
ENDBRANCH  12  13
ENDBRANCH   9  12
ENDBRANCH   1   6
BRANCH   1  18
ATOM     18  C   UNL     1       0.756  12.686  20.010  0.00  0.00    +0.000 A 
ATOM     19  C   UNL     1       1.825  12.873  20.914  0.00  0.00    +0.000 A 
ATOM     20  C   UNL     1       2.776  13.876  20.730  0.00  0.00    +0.000 A 
ATOM     21  C   UNL     1       2.691  14.716  19.628  0.00  0.00    +0.000 A 
ATOM     22  C   UNL     1       1.658  14.548  18.709  0.00  0.00    +0.000 A 
ATOM     23  C   UNL     1       0.699  13.542  18.892  0.00  0.00    +0.000 A 
ATOM     24 CL   UNL     1      -0.505  13.391  17.657  0.00  0.00    +0.000 Cl
ENDBRANCH   1  18
BRANCH   1  25
ATOM     25  N   UNL     1       0.464  10.223  20.149  0.00  0.00    +0.000 NA
ATOM     26  C   UNL     1       0.856   9.734  18.821  0.00  0.00    +0.000 C 
ATOM     27  C   UNL     1       2.041   8.747  18.959  0.00  0.00    +0.000 C 
ATOM     28  N   UNL     1       1.646   7.651  19.858  0.00  0.00    +0.000 N 
ATOM     29  C   UNL     1       1.167   8.091  21.181  0.00  0.00    +0.000 C 
ATOM     30  C   UNL     1       0.017   9.109  20.996  0.00  0.00    +0.000 C 
BRANCH  28  31
ATOM     31  C   UNL     1       2.112   6.363  19.684  0.00  0.00    +0.000 A 
ATOM     32  C   UNL     1       1.931   5.357  20.641  0.00  0.00    +0.000 A 
ATOM     33  C   UNL     1       2.494   4.088  20.476  0.00  0.00    +0.000 A 
ATOM     34  C   UNL     1       3.258   3.804  19.349  0.00  0.00    +0.000 A 
ATOM     35  C   UNL     1       3.443   4.782  18.379  0.00  0.00    +0.000 A 
ATOM     36  C   UNL     1       2.866   6.043  18.547  0.00  0.00    +0.000 A 
ENDBRANCH  28  31
ENDBRANCH   1  25
TORSDOF 7
ENDMDL
MODEL 3
REMARK VINA RESULT:      -7.2      2.476      6.341
REMARK  Name = 
REMARK  8 active torsions:
REMARK  status: ('A' for Active; 'I' for Inactive)
REMARK    1  A    between atoms: C_1  and  C_2
REMARK    2  A    between atoms: C_4  and  O_5
REMARK    3  A    between atoms: C_6  and  C_7
REMARK    4  A    between atoms: C_7  and  C_8
REMARK    5  A    between atoms: C_7  and  N_15
REMARK    6  A    between atoms: N_18  and  C_19
REMARK    7  A    between atoms: N_29  and  C_30
REMARK    8  A    between atoms: C_30  and  C_31
REMARK                            x       y       z     vdW  Elec       q    Type
REMARK                         _______ _______ _______ _____ _____    ______ ____
ROOT
ATOM      1  C   UNL     1      -0.461  11.312  19.597  0.00  0.00    +0.000 C 
ENDROOT
BRANCH   1   6
ATOM      2  C   UNL     1       1.980  16.656  19.441  0.00  0.00    +0.000 C 
ATOM      3  C   UNL     1       1.329  15.300  19.506  0.00  0.00    +0.000 A 
ATOM      4  C   UNL     1       0.695  14.832  18.426  0.00  0.00    +0.000 A 
ATOM      5  C   UNL     1       0.066  13.546  18.435  0.00  0.00    +0.000 A 
ATOM      6  C   UNL     1       0.139  12.713  19.485  0.00  0.00    +0.000 A 
ATOM      7  C   UNL     1       0.855  13.222  20.713  0.00  0.00    +0.000 A 
ATOM      8  O   UNL     1       0.929  12.523  21.724  0.00  0.00    +0.000 OA
ATOM      9  N   UNL     1       1.382  14.526  20.666  0.00  0.00    +0.000 N 
BRANCH   5  10
ATOM     10  O   UNL     1      -0.686  13.260  17.323  0.00  0.00    +0.000 OA
ATOM     11  H   UNL     1      -0.226  12.628  16.748  0.00  0.00    +0.000 HD
ENDBRANCH   5  10
BRANCH   9  12
ATOM     12  C   UNL     1       1.880  15.080  21.931  0.00  0.00    +0.000 C 
BRANCH  12  13
ATOM     13  C   UNL     1       3.338  14.853  22.139  0.00  0.00    +0.000 A 
ATOM     14  C   UNL     1       4.346  14.365  21.331  0.00  0.00    +0.000 A 
ATOM     15  C   UNL     1       5.495  14.239  22.152  0.00  0.00    +0.000 A 
ATOM     16  C   UNL     1       5.122  14.677  23.400  0.00  0.00    +0.000 A 
ATOM     17  O   UNL     1       3.816  15.046  23.405  0.00  0.00    +0.000 OA
ENDBRANCH  12  13
ENDBRANCH   9  12
ENDBRANCH   1   6
BRANCH   1  18
ATOM     18  C   UNL     1      -1.860  11.183  18.969  0.00  0.00    +0.000 A 
ATOM     19  C   UNL     1      -2.121  10.201  17.989  0.00  0.00    +0.000 A 
ATOM     20  C   UNL     1      -3.397  10.014  17.459  0.00  0.00    +0.000 A 
ATOM     21  C   UNL     1      -4.452  10.798  17.902  0.00  0.00    +0.000 A 
ATOM     22  C   UNL     1      -4.232  11.765  18.881  0.00  0.00    +0.000 A 
ATOM     23  C   UNL     1      -2.950  11.958  19.414  0.00  0.00    +0.000 A 
ATOM     24 CL   UNL     1      -2.806  13.149  20.663  0.00  0.00    +0.000 Cl
ENDBRANCH   1  18
BRANCH   1  25
ATOM     25  N   UNL     1       0.380  10.150  19.270  0.00  0.00    +0.000 NA
ATOM     26  C   UNL     1       0.946   9.411  20.406  0.00  0.00    +0.000 C 
ATOM     27  C   UNL     1       1.262   7.958  19.976  0.00  0.00    +0.000 C 
ATOM     28  N   UNL     1       2.178   7.990  18.826  0.00  0.00    +0.000 N 
ATOM     29  C   UNL     1       1.694   8.787  17.684  0.00  0.00    +0.000 C 
ATOM     30  C   UNL     1       1.347  10.215  18.166  0.00  0.00    +0.000 C 
BRANCH  28  31
ATOM     31  C   UNL     1       3.140   7.019  18.633  0.00  0.00    +0.000 A 
ATOM     32  C   UNL     1       3.352   5.973  19.540  0.00  0.00    +0.000 A 
ATOM     33  C   UNL     1       4.395   5.058  19.363  0.00  0.00    +0.000 A 
ATOM     34  C   UNL     1       5.253   5.180  18.275  0.00  0.00    +0.000 A 
ATOM     35  C   UNL     1       5.057   6.202  17.354  0.00  0.00    +0.000 A 
ATOM     36  C   UNL     1       4.005   7.103  17.534  0.00  0.00    +0.000 A 
ENDBRANCH  28  31
ENDBRANCH   1  25
TORSDOF 7
ENDMDL
MODEL 4
REMARK VINA RESULT:      -7.2      2.652      5.645
REMARK  Name = 
REMARK  8 active torsions:
REMARK  status: ('A' for Active; 'I' for Inactive)
REMARK    1  A    between atoms: C_1  and  C_2
REMARK    2  A    between atoms: C_4  and  O_5
REMARK    3  A    between atoms: C_6  and  C_7
REMARK    4  A    between atoms: C_7  and  C_8
REMARK    5  A    between atoms: C_7  and  N_15
REMARK    6  A    between atoms: N_18  and  C_19
REMARK    7  A    between atoms: N_29  and  C_30
REMARK    8  A    between atoms: C_30  and  C_31
REMARK                            x       y       z     vdW  Elec       q    Type
REMARK                         _______ _______ _______ _____ _____    ______ ____
ROOT
ATOM      1  C   UNL     1       0.311  11.779  19.583  0.00  0.00    +0.000 C 
ENDROOT
BRANCH   1   6
ATOM      2  C   UNL     1       3.590  16.416  18.068  0.00  0.00    +0.000 C 
ATOM      3  C   UNL     1       2.720  15.245  18.439  0.00  0.00    +0.000 A 
ATOM      4  C   UNL     1       2.961  14.054  17.880  0.00  0.00    +0.000 A 
ATOM      5  C   UNL     1       2.167  12.907  18.204  0.00  0.00    +0.000 A 
ATOM      6  C   UNL     1       1.197  12.940  19.131  0.00  0.00    +0.000 A 
ATOM      7  C   UNL     1       0.912  14.274  19.777  0.00  0.00    +0.000 A 
ATOM      8  O   UNL     1       0.012  14.382  20.611  0.00  0.00    +0.000 OA
ATOM      9  N   UNL     1       1.676  15.379  19.355  0.00  0.00    +0.000 N 
BRANCH   5  10
ATOM     10  O   UNL     1       2.415  11.795  17.441  0.00  0.00    +0.000 OA
ATOM     11  H   UNL     1       1.951  11.849  16.591  0.00  0.00    +0.000 HD
ENDBRANCH   5  10
BRANCH   9  12
ATOM     12  C   UNL     1       1.243  16.698  19.832  0.00  0.00    +0.000 C 
BRANCH  12  13
ATOM     13  C   UNL     1       0.225  17.337  18.951  0.00  0.00    +0.000 A 
ATOM     14  C   UNL     1       0.291  17.957  17.720  0.00  0.00    +0.000 A 
ATOM     15  C   UNL     1      -0.993  18.505  17.474  0.00  0.00    +0.000 A 
ATOM     16  C   UNL     1      -1.766  18.166  18.558  0.00  0.00    +0.000 A 
ATOM     17  O   UNL     1      -1.037  17.463  19.463  0.00  0.00    +0.000 OA
ENDBRANCH  12  13
ENDBRANCH   9  12
ENDBRANCH   1   6
BRANCH   1  18
ATOM     18  C   UNL     1      -1.068  11.749  18.900  0.00  0.00    +0.000 A 
ATOM     19  C   UNL     1      -1.185  11.431  17.530  0.00  0.00    +0.000 A 
ATOM     20  C   UNL     1      -2.426  11.323  16.904  0.00  0.00    +0.000 A 
ATOM     21  C   UNL     1      -3.589  11.520  17.636  0.00  0.00    +0.000 A 
ATOM     22  C   UNL     1      -3.509  11.819  18.994  0.00  0.00    +0.000 A 
ATOM     23  C   UNL     1      -2.262  11.931  19.626  0.00  0.00    +0.000 A 
ATOM     24 CL   UNL     1      -2.286  12.250  21.327  0.00  0.00    +0.000 Cl
ENDBRANCH   1  18
BRANCH   1  25
ATOM     25  N   UNL     1       0.893  10.432  19.670  0.00  0.00    +0.000 NA
ATOM     26  C   UNL     1       0.931   9.653  18.425  0.00  0.00    +0.000 C 
ATOM     27  C   UNL     1       2.053   8.589  18.511  0.00  0.00    +0.000 C 
ATOM     28  N   UNL     1       1.814   7.739  19.687  0.00  0.00    +0.000 N 
ATOM     29  C   UNL     1       1.688   8.479  20.957  0.00  0.00    +0.000 C 
ATOM     30  C   UNL     1       0.591   9.559  20.813  0.00  0.00    +0.000 C 
BRANCH  28  31
ATOM     31  C   UNL     1       2.146   6.399  19.698  0.00  0.00    +0.000 A 
ATOM     32  C   UNL     1       1.768   5.534  20.731  0.00  0.00    +0.000 A 
ATOM     33  C   UNL     1       2.198   4.203  20.758  0.00  0.00    +0.000 A 
ATOM     34  C   UNL     1       3.024   3.716  19.751  0.00  0.00    +0.000 A 
ATOM     35  C   UNL     1       3.403   4.552  18.707  0.00  0.00    +0.000 A 
ATOM     36  C   UNL     1       2.959   5.875  18.683  0.00  0.00    +0.000 A 
ENDBRANCH  28  31
ENDBRANCH   1  25
TORSDOF 7
ENDMDL
MODEL 5
REMARK VINA RESULT:      -7.1      1.217      1.584
REMARK  Name = 
REMARK  8 active torsions:
REMARK  status: ('A' for Active; 'I' for Inactive)
REMARK    1  A    between atoms: C_1  and  C_2
REMARK    2  A    between atoms: C_4  and  O_5
REMARK    3  A    between atoms: C_6  and  C_7
REMARK    4  A    between atoms: C_7  and  C_8
REMARK    5  A    between atoms: C_7  and  N_15
REMARK    6  A    between atoms: N_18  and  C_19
REMARK    7  A    between atoms: N_29  and  C_30
REMARK    8  A    between atoms: C_30  and  C_31
REMARK                            x       y       z     vdW  Elec       q    Type
REMARK                         _______ _______ _______ _____ _____    ______ ____
ROOT
ATOM      1  C   UNL     1      -0.753  12.077  19.803  0.00  0.00    +0.000 C 
ENDROOT
BRANCH   1   6
ATOM      2  C   UNL     1      -4.554  12.681  24.246  0.00  0.00    +0.000 C 
ATOM      3  C   UNL     1      -3.584  12.563  23.100  0.00  0.00    +0.000 A 
ATOM      4  C   UNL     1      -2.296  12.322  23.362  0.00  0.00    +0.000 A 
ATOM      5  C   UNL     1      -1.336  12.194  22.306  0.00  0.00    +0.000 A 
ATOM      6  C   UNL     1      -1.679  12.233  21.009  0.00  0.00    +0.000 A 
ATOM      7  C   UNL     1      -3.131  12.500  20.693  0.00  0.00    +0.000 A 
ATOM      8  O   UNL     1      -3.507  12.583  19.524  0.00  0.00    +0.000 OA
ATOM      9  N   UNL     1      -4.008  12.695  21.776  0.00  0.00    +0.000 N 
BRANCH   5  10
ATOM     10  O   UNL     1      -0.029  12.112  22.717  0.00  0.00    +0.000 OA
ATOM     11  H   UNL     1       0.023  11.939  23.670  0.00  0.00    +0.000 HD
ENDBRANCH   5  10
BRANCH   9  12
ATOM     12  C   UNL     1      -5.360  13.164  21.451  0.00  0.00    +0.000 C 
BRANCH  12  13
ATOM     13  C   UNL     1      -6.305  12.058  21.127  0.00  0.00    +0.000 A 
ATOM     14  C   UNL     1      -6.697  11.463  19.944  0.00  0.00    +0.000 A 
ATOM     15  C   UNL     1      -7.748  10.570  20.272  0.00  0.00    +0.000 A 
ATOM     16  C   UNL     1      -7.916  10.660  21.632  0.00  0.00    +0.000 A 
ATOM     17  O   UNL     1      -7.051  11.564  22.160  0.00  0.00    +0.000 OA
ENDBRANCH  12  13
ENDBRANCH   9  12
ENDBRANCH   1   6
BRANCH   1  18
ATOM     18  C   UNL     1       0.017  13.359  19.442  0.00  0.00    +0.000 A 
ATOM     19  C   UNL     1      -0.622  14.409  18.746  0.00  0.00    +0.000 A 
ATOM     20  C   UNL     1       0.030  15.611  18.472  0.00  0.00    +0.000 A 
ATOM     21  C   UNL     1       1.337  15.802  18.897  0.00  0.00    +0.000 A 
ATOM     22  C   UNL     1       1.989  14.792  19.601  0.00  0.00    +0.000 A 
ATOM     23  C   UNL     1       1.339  13.581  19.875  0.00  0.00    +0.000 A 
ATOM     24 CL   UNL     1       2.228  12.422  20.804  0.00  0.00    +0.000 Cl
ENDBRANCH   1  18
BRANCH   1  25
ATOM     25  N   UNL     1       0.115  10.892  19.721  0.00  0.00    +0.000 NA
ATOM     26  C   UNL     1       0.512  10.463  18.373  0.00  0.00    +0.000 C 
ATOM     27  C   UNL     1       1.830   9.655  18.452  0.00  0.00    +0.000 C 
ATOM     28  N   UNL     1       1.636   8.515  19.360  0.00  0.00    +0.000 N 
ATOM     29  C   UNL     1       1.160   8.883  20.706  0.00  0.00    +0.000 C 
ATOM     30  C   UNL     1      -0.130   9.726  20.580  0.00  0.00    +0.000 C 
BRANCH  28  31
ATOM     31  C   UNL     1       2.272   7.306  19.158  0.00  0.00    +0.000 A 
ATOM     32  C   UNL     1       3.024   7.029  18.009  0.00  0.00    +0.000 A 
ATOM     33  C   UNL     1       3.578   5.764  17.792  0.00  0.00    +0.000 A 
ATOM     34  C   UNL     1       3.382   4.747  18.720  0.00  0.00    +0.000 A 
ATOM     35  C   UNL     1       2.649   4.999  19.874  0.00  0.00    +0.000 A 
ATOM     36  C   UNL     1       2.110   6.270  20.087  0.00  0.00    +0.000 A 
ENDBRANCH  28  31
ENDBRANCH   1  25
TORSDOF 7
ENDMDL
MODEL 6
REMARK VINA RESULT:      -7.1      2.472      5.421
REMARK  Name = 
REMARK  8 active torsions:
REMARK  status: ('A' for Active; 'I' for Inactive)
REMARK    1  A    between atoms: C_1  and  C_2
REMARK    2  A    between atoms: C_4  and  O_5
REMARK    3  A    between atoms: C_6  and  C_7
REMARK    4  A    between atoms: C_7  and  C_8
REMARK    5  A    between atoms: C_7  and  N_15
REMARK    6  A    between atoms: N_18  and  C_19
REMARK    7  A    between atoms: N_29  and  C_30
REMARK    8  A    between atoms: C_30  and  C_31
REMARK                            x       y       z     vdW  Elec       q    Type
REMARK                         _______ _______ _______ _____ _____    ______ ____
ROOT
ATOM      1  C   UNL     1      -0.697  11.370  19.682  0.00  0.00    +0.000 C 
ENDROOT
BRANCH   1   6
ATOM      2  C   UNL     1       1.631  16.766  19.775  0.00  0.00    +0.000 C 
ATOM      3  C   UNL     1       1.005  15.397  19.772  0.00  0.00    +0.000 A 
ATOM      4  C   UNL     1       0.546  14.896  18.620  0.00  0.00    +0.000 A 
ATOM      5  C   UNL     1      -0.052  13.595  18.564  0.00  0.00    +0.000 A 
ATOM      6  C   UNL     1      -0.116  12.783  19.630  0.00  0.00    +0.000 A 
ATOM      7  C   UNL     1       0.402  13.329  20.939  0.00  0.00    +0.000 A 
ATOM      8  O   UNL     1       0.341  12.650  21.964  0.00  0.00    +0.000 OA
ATOM      9  N   UNL     1       0.903  14.645  20.943  0.00  0.00    +0.000 N 
BRANCH   5  10
ATOM     10  O   UNL     1      -0.626  13.273  17.360  0.00  0.00    +0.000 OA
ATOM     11  H   UNL     1       0.052  13.112  16.685  0.00  0.00    +0.000 HD
ENDBRANCH   5  10
BRANCH   9  12
ATOM     12  C   UNL     1       1.199  15.231  22.255  0.00  0.00    +0.000 C 
BRANCH  12  13
ATOM     13  C   UNL     1      -0.006  15.772  22.944  0.00  0.00    +0.000 A 
ATOM     14  C   UNL     1      -0.824  16.859  22.710  0.00  0.00    +0.000 A 
ATOM     15  C   UNL     1      -1.714  16.939  23.810  0.00  0.00    +0.000 A 
ATOM     16  C   UNL     1      -1.399  15.885  24.634  0.00  0.00    +0.000 A 
ATOM     17  O   UNL     1      -0.361  15.175  24.122  0.00  0.00    +0.000 OA
ENDBRANCH  12  13
ENDBRANCH   9  12
ENDBRANCH   1   6
BRANCH   1  18
ATOM     18  C   UNL     1      -2.068  11.238  18.996  0.00  0.00    +0.000 A 
ATOM     19  C   UNL     1      -2.280  10.265  17.995  0.00  0.00    +0.000 A 
ATOM     20  C   UNL     1      -3.531  10.073  17.411  0.00  0.00    +0.000 A 
ATOM     21  C   UNL     1      -4.611  10.843  17.820  0.00  0.00    +0.000 A 
ATOM     22  C   UNL     1      -4.439  11.800  18.817  0.00  0.00    +0.000 A 
ATOM     23  C   UNL     1      -3.182  11.998  19.404  0.00  0.00    +0.000 A 
ATOM     24 CL   UNL     1      -3.099  13.176  20.671  0.00  0.00    +0.000 Cl
ENDBRANCH   1  18
BRANCH   1  25
ATOM     25  N   UNL     1       0.175  10.230  19.359  0.00  0.00    +0.000 NA
ATOM     26  C   UNL     1       0.809   9.548  20.495  0.00  0.00    +0.000 C 
ATOM     27  C   UNL     1       1.164   8.096  20.097  0.00  0.00    +0.000 C 
ATOM     28  N   UNL     1       2.036   8.125  18.912  0.00  0.00    +0.000 N 
ATOM     29  C   UNL     1       1.481   8.867  17.766  0.00  0.00    +0.000 C 
ATOM     30  C   UNL     1       1.098  10.296  18.218  0.00  0.00    +0.000 C 
BRANCH  28  31
ATOM     31  C   UNL     1       3.026   7.184  18.713  0.00  0.00    +0.000 A 
ATOM     32  C   UNL     1       3.882   7.209  17.605  0.00  0.00    +0.000 A 
ATOM     33  C   UNL     1       4.814   6.190  17.384  0.00  0.00    +0.000 A 
ATOM     34  C   UNL     1       4.901   5.119  18.268  0.00  0.00    +0.000 A 
ATOM     35  C   UNL     1       4.070   5.077  19.381  0.00  0.00    +0.000 A 
ATOM     36  C   UNL     1       3.151   6.106  19.599  0.00  0.00    +0.000 A 
ENDBRANCH  28  31
ENDBRANCH   1  25
TORSDOF 7
ENDMDL
MODEL 7
REMARK VINA RESULT:      -7.1      3.015      6.337
REMARK  Name = 
REMARK  8 active torsions:
REMARK  status: ('A' for Active; 'I' for Inactive)
REMARK    1  A    between atoms: C_1  and  C_2
REMARK    2  A    between atoms: C_4  and  O_5
REMARK    3  A    between atoms: C_6  and  C_7
REMARK    4  A    between atoms: C_7  and  C_8
REMARK    5  A    between atoms: C_7  and  N_15
REMARK    6  A    between atoms: N_18  and  C_19
REMARK    7  A    between atoms: N_29  and  C_30
REMARK    8  A    between atoms: C_30  and  C_31
REMARK                            x       y       z     vdW  Elec       q    Type
REMARK                         _______ _______ _______ _____ _____    ______ ____
ROOT
ATOM      1  C   UNL     1      -0.746  12.064  20.090  0.00  0.00    +0.000 C 
ENDROOT
BRANCH   1   6
ATOM      2  C   UNL     1      -4.320  10.437  15.716  0.00  0.00    +0.000 C 
ATOM      3  C   UNL     1      -3.420  10.827  16.859  0.00  0.00    +0.000 A 
ATOM      4  C   UNL     1      -2.108  10.588  16.763  0.00  0.00    +0.000 A 
ATOM      5  C   UNL     1      -1.210  10.947  17.819  0.00  0.00    +0.000 A 
ATOM      6  C   UNL     1      -1.613  11.602  18.919  0.00  0.00    +0.000 A 
ATOM      7  C   UNL     1      -3.091  11.885  19.044  0.00  0.00    +0.000 A 
ATOM      8  O   UNL     1      -3.533  12.452  20.043  0.00  0.00    +0.000 OA
ATOM      9  N   UNL     1      -3.930  11.435  18.007  0.00  0.00    +0.000 N 
BRANCH   5  10
ATOM     10  O   UNL     1       0.078  10.499  17.663  0.00  0.00    +0.000 OA
ATOM     11  H   UNL     1       0.623  11.166  17.217  0.00  0.00    +0.000 HD
ENDBRANCH   5  10
BRANCH   9  12
ATOM     12  C   UNL     1      -5.375  11.525  18.245  0.00  0.00    +0.000 C 
BRANCH  12  13
ATOM     13  C   UNL     1      -5.932  12.883  17.983  0.00  0.00    +0.000 A 
ATOM     14  C   UNL     1      -6.369  13.903  18.805  0.00  0.00    +0.000 A 
ATOM     15  C   UNL     1      -6.937  14.887  17.958  0.00  0.00    +0.000 A 
ATOM     16  C   UNL     1      -6.791  14.418  16.675  0.00  0.00    +0.000 A 
ATOM     17  O   UNL     1      -6.189  13.201  16.678  0.00  0.00    +0.000 OA
ENDBRANCH  12  13
ENDBRANCH   9  12
ENDBRANCH   1   6
BRANCH   1  18
ATOM     18  C   UNL     1      -0.527  10.983  21.163  0.00  0.00    +0.000 A 
ATOM     19  C   UNL     1       0.277   9.854  20.893  0.00  0.00    +0.000 A 
ATOM     20  C   UNL     1       0.553   8.899  21.871  0.00  0.00    +0.000 A 
ATOM     21  C   UNL     1       0.040   9.052  23.152  0.00  0.00    +0.000 A 
ATOM     22  C   UNL     1      -0.743  10.163  23.455  0.00  0.00    +0.000 A 
ATOM     23  C   UNL     1      -1.025  11.124  22.474  0.00  0.00    +0.000 A 
ATOM     24 CL   UNL     1      -1.961  12.490  22.980  0.00  0.00    +0.000 Cl
ENDBRANCH   1  18
BRANCH   1  25
ATOM     25  N   UNL     1       0.498  12.797  19.809  0.00  0.00    +0.000 NA
ATOM     26  C   UNL     1       1.181  13.395  20.963  0.00  0.00    +0.000 C 
ATOM     27  C   UNL     1       2.683  13.579  20.640  0.00  0.00    +0.000 C 
ATOM     28  N   UNL     1       2.814  14.407  19.432  0.00  0.00    +0.000 N 
ATOM     29  C   UNL     1       2.079  13.894  18.260  0.00  0.00    +0.000 C 
ATOM     30  C   UNL     1       0.595  13.681  18.639  0.00  0.00    +0.000 C 
BRANCH  28  31
ATOM     31  C   UNL     1       3.865  15.283  19.259  0.00  0.00    +0.000 A 
ATOM     32  C   UNL     1       4.949  15.009  18.415  0.00  0.00    +0.000 A 
ATOM     33  C   UNL     1       6.043  15.876  18.332  0.00  0.00    +0.000 A 
ATOM     34  C   UNL     1       6.076  17.034  19.102  0.00  0.00    +0.000 A 
ATOM     35  C   UNL     1       5.008  17.335  19.939  0.00  0.00    +0.000 A 
ATOM     36  C   UNL     1       3.914  16.468  20.005  0.00  0.00    +0.000 A 
ENDBRANCH  28  31
ENDBRANCH   1  25
TORSDOF 7
ENDMDL
MODEL 8
REMARK VINA RESULT:      -7.0      2.965      8.317
REMARK  Name = 
REMARK  8 active torsions:
REMARK  status: ('A' for Active; 'I' for Inactive)
REMARK    1  A    between atoms: C_1  and  C_2
REMARK    2  A    between atoms: C_4  and  O_5
REMARK    3  A    between atoms: C_6  and  C_7
REMARK    4  A    between atoms: C_7  and  C_8
REMARK    5  A    between atoms: C_7  and  N_15
REMARK    6  A    between atoms: N_18  and  C_19
REMARK    7  A    between atoms: N_29  and  C_30
REMARK    8  A    between atoms: C_30  and  C_31
REMARK                            x       y       z     vdW  Elec       q    Type
REMARK                         _______ _______ _______ _____ _____    ______ ____
ROOT
ATOM      1  C   UNL     1       0.623  11.066  18.861  0.00  0.00    +0.000 C 
ENDROOT
BRANCH   1   6
ATOM      2  C   UNL     1       2.263   5.775  20.826  0.00  0.00    +0.000 C 
ATOM      3  C   UNL     1       1.817   7.113  20.300  0.00  0.00    +0.000 A 
ATOM      4  C   UNL     1       1.187   7.958  21.124  0.00  0.00    +0.000 A 
ATOM      5  C   UNL     1       0.750   9.245  20.674  0.00  0.00    +0.000 A 
ATOM      6  C   UNL     1       1.008   9.705  19.439  0.00  0.00    +0.000 A 
ATOM      7  C   UNL     1       1.722   8.767  18.496  0.00  0.00    +0.000 A 
ATOM      8  O   UNL     1       1.960   9.113  17.338  0.00  0.00    +0.000 OA
ATOM      9  N   UNL     1       2.054   7.487  18.976  0.00  0.00    +0.000 N 
BRANCH   5  10
ATOM     10  O   UNL     1      -0.023   9.941  21.569  0.00  0.00    +0.000 OA
ATOM     11  H   UNL     1      -0.533  10.633  21.120  0.00  0.00    +0.000 HD
ENDBRANCH   5  10
BRANCH   9  12
ATOM     12  C   UNL     1       2.549   6.521  17.988  0.00  0.00    +0.000 C 
BRANCH  12  13
ATOM     13  C   UNL     1       4.033   6.518  17.860  0.00  0.00    +0.000 A 
ATOM     14  C   UNL     1       4.911   7.124  16.982  0.00  0.00    +0.000 A 
ATOM     15  C   UNL     1       6.197   6.607  17.278  0.00  0.00    +0.000 A 
ATOM     16  C   UNL     1       6.028   5.738  18.329  0.00  0.00    +0.000 A 
ATOM     17  O   UNL     1       4.720   5.671  18.686  0.00  0.00    +0.000 OA
ENDBRANCH  12  13
ENDBRANCH   9  12
ENDBRANCH   1   6
BRANCH   1  18
ATOM     18  C   UNL     1      -0.861  11.423  19.051  0.00  0.00    +0.000 A 
ATOM     19  C   UNL     1      -1.251  12.401  19.992  0.00  0.00    +0.000 A 
ATOM     20  C   UNL     1      -2.581  12.797  20.131  0.00  0.00    +0.000 A 
ATOM     21  C   UNL     1      -3.559  12.233  19.323  0.00  0.00    +0.000 A 
ATOM     22  C   UNL     1      -3.205  11.278  18.374  0.00  0.00    +0.000 A 
ATOM     23  C   UNL     1      -1.870  10.875  18.233  0.00  0.00    +0.000 A 
ATOM     24 CL   UNL     1      -1.540   9.723  16.982  0.00  0.00    +0.000 Cl
ENDBRANCH   1  18
BRANCH   1  25
ATOM     25  N   UNL     1       1.490  12.224  19.129  0.00  0.00    +0.000 NA
ATOM     26  C   UNL     1       2.491  12.544  18.103  0.00  0.00    +0.000 C 
ATOM     27  C   UNL     1       2.879  14.039  18.203  0.00  0.00    +0.000 C 
ATOM     28  N   UNL     1       3.372  14.314  19.561  0.00  0.00    +0.000 N 
ATOM     29  C   UNL     1       2.436  13.937  20.636  0.00  0.00    +0.000 C 
ATOM     30  C   UNL     1       2.039  12.451  20.472  0.00  0.00    +0.000 C 
BRANCH  28  31
ATOM     31  C   UNL     1       4.364  15.242  19.802  0.00  0.00    +0.000 A 
ATOM     32  C   UNL     1       4.332  16.119  20.893  0.00  0.00    +0.000 A 
ATOM     33  C   UNL     1       5.305  17.110  21.058  0.00  0.00    +0.000 A 
ATOM     34  C   UNL     1       6.328  17.247  20.126  0.00  0.00    +0.000 A 
ATOM     35  C   UNL     1       6.389  16.381  19.040  0.00  0.00    +0.000 A 
ATOM     36  C   UNL     1       5.419  15.387  18.891  0.00  0.00    +0.000 A 
ENDBRANCH  28  31
ENDBRANCH   1  25
TORSDOF 7
ENDMDL
MODEL 9
REMARK VINA RESULT:      -7.0      1.231      1.874
REMARK  Name = 
REMARK  8 active torsions:
REMARK  status: ('A' for Active; 'I' for Inactive)
REMARK    1  A    between atoms: C_1  and  C_2
REMARK    2  A    between atoms: C_4  and  O_5
REMARK    3  A    between atoms: C_6  and  C_7
REMARK    4  A    between atoms: C_7  and  C_8
REMARK    5  A    between atoms: C_7  and  N_15
REMARK    6  A    between atoms: N_18  and  C_19
REMARK    7  A    between atoms: N_29  and  C_30
REMARK    8  A    between atoms: C_30  and  C_31
REMARK                            x       y       z     vdW  Elec       q    Type
REMARK                         _______ _______ _______ _____ _____    ______ ____
ROOT
ATOM      1  C   UNL     1      -0.790  12.175  19.781  0.00  0.00    +0.000 C 
ENDROOT
BRANCH   1   6
ATOM      2  C   UNL     1      -4.707  12.667  24.136  0.00  0.00    +0.000 C 
ATOM      3  C   UNL     1      -3.707  12.579  23.013  0.00  0.00    +0.000 A 
ATOM      4  C   UNL     1      -2.430  12.309  23.302  0.00  0.00    +0.000 A 
ATOM      5  C   UNL     1      -1.442  12.207  22.269  0.00  0.00    +0.000 A 
ATOM      6  C   UNL     1      -1.748  12.299  20.966  0.00  0.00    +0.000 A 
ATOM      7  C   UNL     1      -3.186  12.599  20.620  0.00  0.00    +0.000 A 
ATOM      8  O   UNL     1      -3.529  12.731  19.444  0.00  0.00    +0.000 OA
ATOM      9  N   UNL     1      -4.091  12.766  21.685  0.00  0.00    +0.000 N 
BRANCH   5  10
ATOM     10  O   UNL     1      -0.149  12.091  22.713  0.00  0.00    +0.000 OA
ATOM     11  H   UNL     1      -0.009  12.623  23.512  0.00  0.00    +0.000 HD
ENDBRANCH   5  10
BRANCH   9  12
ATOM     12  C   UNL     1      -5.427  13.266  21.340  0.00  0.00    +0.000 C 
BRANCH  12  13
ATOM     13  C   UNL     1      -6.406  12.181  21.052  0.00  0.00    +0.000 A 
ATOM     14  C   UNL     1      -7.451  11.631  21.769  0.00  0.00    +0.000 A 
ATOM     15  C   UNL     1      -7.909  10.516  21.023  0.00  0.00    +0.000 A 
ATOM     16  C   UNL     1      -7.132  10.468  19.891  0.00  0.00    +0.000 A 
ATOM     17  O   UNL     1      -6.214  11.469  19.900  0.00  0.00    +0.000 OA
ENDBRANCH  12  13
ENDBRANCH   9  12
ENDBRANCH   1   6
BRANCH   1  18
ATOM     18  C   UNL     1      -0.011  13.466  19.475  0.00  0.00    +0.000 A 
ATOM     19  C   UNL     1      -0.631  14.537  18.795  0.00  0.00    +0.000 A 
ATOM     20  C   UNL     1       0.028  15.745  18.572  0.00  0.00    +0.000 A 
ATOM     21  C   UNL     1       1.325  15.921  19.033  0.00  0.00    +0.000 A 
ATOM     22  C   UNL     1       1.960  14.890  19.722  0.00  0.00    +0.000 A 
ATOM     23  C   UNL     1       1.302  13.673  19.946  0.00  0.00    +0.000 A 
ATOM     24 CL   UNL     1       2.168  12.485  20.861  0.00  0.00    +0.000 Cl
ENDBRANCH   1  18
BRANCH   1  25
ATOM     25  N   UNL     1       0.079  10.992  19.689  0.00  0.00    +0.000 NA
ATOM     26  C   UNL     1       0.530  10.613  18.344  0.00  0.00    +0.000 C 
ATOM     27  C   UNL     1       1.843   9.799  18.445  0.00  0.00    +0.000 C 
ATOM     28  N   UNL     1       1.612   8.626  19.302  0.00  0.00    +0.000 N 
ATOM     29  C   UNL     1       1.082   8.945  20.640  0.00  0.00    +0.000 C 
ATOM     30  C   UNL     1      -0.202   9.795  20.494  0.00  0.00    +0.000 C 
BRANCH  28  31
ATOM     31  C   UNL     1       2.253   7.424  19.080  0.00  0.00    +0.000 A 
ATOM     32  C   UNL     1       2.195   6.357  19.984  0.00  0.00    +0.000 A 
ATOM     33  C   UNL     1       2.931   5.186  19.774  0.00  0.00    +0.000 A 
ATOM     34  C   UNL     1       3.748   5.066  18.655  0.00  0.00    +0.000 A 
ATOM     35  C   UNL     1       3.815   6.107  17.737  0.00  0.00    +0.000 A 
ATOM     36  C   UNL     1       3.066   7.267  17.949  0.00  0.00    +0.000 A 
ENDBRANCH  28  31
ENDBRANCH   1  25
TORSDOF 7
ENDMDL
