MODEL 1
REMARK VINA RESULT:      -9.5      0.000      0.000
REMARK  Name = 
REMARK  5 active torsions:
REMARK  status: ('A' for Active; 'I' for Inactive)
REMARK    1  A    between atoms: C_1  and  C_2
REMARK    2  A    between atoms: C_5  and  C_6
REMARK    3  A    between atoms: N_8  and  C_9
REMARK    4  A    between atoms: C_9  and  C_10
REMARK    5  A    between atoms: C_13  and  C_14
REMARK                            x       y       z     vdW  Elec       q    Type
REMARK                         _______ _______ _______ _____ _____    ______ ____
ROOT
ATOM      1  C   UNL     1       2.998   6.488  18.914  0.00  0.00    +0.000 A 
ATOM      2  N   UNL     1       4.149   6.347  18.240  0.00  0.00    +0.000 NA
ATOM      3  N   UNL     1       4.580   5.113  18.589  0.00  0.00    +0.000 N 
ATOM      4  C   UNL     1       3.712   4.433  19.414  0.00  0.00    +0.000 A 
ATOM      5  C   UNL     1       3.748   3.146  19.972  0.00  0.00    +0.000 A 
ATOM      6  C   UNL     1       2.681   2.766  20.793  0.00  0.00    +0.000 A 
ATOM      7  C   UNL     1       1.626   3.636  21.053  0.00  0.00    +0.000 A 
ATOM      8  C   UNL     1       1.607   4.921  20.492  0.00  0.00    +0.000 A 
ATOM      9  C   UNL     1       2.666   5.322  19.653  0.00  0.00    +0.000 A 
ENDROOT
BRANCH   1  14
ATOM     10  C   UNL     1       0.423  10.337  20.597  0.00  0.00    +0.000 C 
ATOM     11  C   UNL     1       1.061   9.512  19.552  0.00  0.00    +0.000 A 
ATOM     12  C   UNL     1       1.271   9.686  18.203  0.00  0.00    +0.000 A 
ATOM     13  C   UNL     1       2.017   8.563  17.772  0.00  0.00    +0.000 A 
ATOM     14  C   UNL     1       2.210   7.757  18.879  0.00  0.00    +0.000 A 
ATOM     15  O   UNL     1       1.595   8.331  19.962  0.00  0.00    +0.000 OA
ENDBRANCH   1  14
BRANCH   3  16
ATOM     16  C   UNL     1       5.897   4.666  18.142  0.00  0.00    +0.000 C 
BRANCH  16  17
ATOM     17  C   UNL     1       5.966   4.546  16.640  0.00  0.00    +0.000 A 
ATOM     18  C   UNL     1       4.896   3.988  15.927  0.00  0.00    +0.000 A 
ATOM     19  C   UNL     1       5.002   3.751  14.556  0.00  0.00    +0.000 A 
ATOM     20  C   UNL     1       6.177   4.079  13.868  0.00  0.00    +0.000 A 
ATOM     21  C   UNL     1       7.213   4.721  14.564  0.00  0.00    +0.000 A 
ATOM     22  C   UNL     1       7.108   4.953  15.937  0.00  0.00    +0.000 A 
BRANCH  20  23
ATOM     23  C   UNL     1       6.354   3.707  12.417  0.00  0.00    +0.000 C 
ATOM     24  F   UNL     1       6.840   2.448  12.230  0.00  0.00    +0.000 F 
ATOM     25  F   UNL     1       5.194   3.770  11.709  0.00  0.00    +0.000 F 
ATOM     26  F   UNL     1       7.227   4.537  11.777  0.00  0.00    +0.000 F 
ENDBRANCH  20  23
ENDBRANCH  16  17
ENDBRANCH   3  16
TORSDOF 4
ENDMDL
MODEL 2
REMARK VINA RESULT:      -9.0      0.339      1.202
REMARK  Name = 
REMARK  5 active torsions:
REMARK  status: ('A' for Active; 'I' for Inactive)
REMARK    1  A    between atoms: C_1  and  C_2
REMARK    2  A    between atoms: C_5  and  C_6
REMARK    3  A    between atoms: N_8  and  C_9
REMARK    4  A    between atoms: C_9  and  C_10
REMARK    5  A    between atoms: C_13  and  C_14
REMARK                            x       y       z     vdW  Elec       q    Type
REMARK                         _______ _______ _______ _____ _____    ______ ____
ROOT
ATOM      1  C   UNL     1       3.036   6.665  18.895  0.00  0.00    +0.000 A 
ATOM      2  N   UNL     1       4.222   6.620  18.270  0.00  0.00    +0.000 NA
ATOM      3  N   UNL     1       4.720   5.408  18.606  0.00  0.00    +0.000 N 
ATOM      4  C   UNL     1       3.864   4.648  19.372  0.00  0.00    +0.000 A 
ATOM      5  C   UNL     1       3.963   3.350  19.897  0.00  0.00    +0.000 A 
ATOM      6  C   UNL     1       2.889   2.877  20.659  0.00  0.00    +0.000 A 
ATOM      7  C   UNL     1       1.768   3.667  20.894  0.00  0.00    +0.000 A 
ATOM      8  C   UNL     1       1.687   4.963  20.366  0.00  0.00    +0.000 A 
ATOM      9  C   UNL     1       2.752   5.458  19.587  0.00  0.00    +0.000 A 
ENDROOT
BRANCH   1  14
ATOM     10  C   UNL     1       0.224  10.347  20.573  0.00  0.00    +0.000 C 
ATOM     11  C   UNL     1       0.909   9.560  19.529  0.00  0.00    +0.000 A 
ATOM     12  C   UNL     1       1.099   9.739  18.178  0.00  0.00    +0.000 A 
ATOM     13  C   UNL     1       1.914   8.665  17.748  0.00  0.00    +0.000 A 
ATOM     14  C   UNL     1       2.166   7.880  18.858  0.00  0.00    +0.000 A 
ATOM     15  O   UNL     1       1.522   8.418  19.942  0.00  0.00    +0.000 OA
ENDBRANCH   1  14
BRANCH   3  16
ATOM     16  C   UNL     1       6.082   5.062  18.207  0.00  0.00    +0.000 C 
BRANCH  16  17
ATOM     17  C   UNL     1       6.141   4.587  16.777  0.00  0.00    +0.000 A 
ATOM     18  C   UNL     1       7.099   5.110  15.898  0.00  0.00    +0.000 A 
ATOM     19  C   UNL     1       7.078   4.777  14.543  0.00  0.00    +0.000 A 
ATOM     20  C   UNL     1       6.107   3.903  14.043  0.00  0.00    +0.000 A 
ATOM     21  C   UNL     1       5.205   3.306  14.938  0.00  0.00    +0.000 A 
ATOM     22  C   UNL     1       5.223   3.645  16.293  0.00  0.00    +0.000 A 
BRANCH  20  23
ATOM     23  C   UNL     1       5.992   3.638  12.562  0.00  0.00    +0.000 C 
ATOM     24  F   UNL     1       6.907   4.315  11.813  0.00  0.00    +0.000 F 
ATOM     25  F   UNL     1       6.146   2.324  12.245  0.00  0.00    +0.000 F 
ATOM     26  F   UNL     1       4.772   4.001  12.069  0.00  0.00    +0.000 F 
ENDBRANCH  20  23
ENDBRANCH  16  17
ENDBRANCH   3  16
TORSDOF 4
ENDMDL
MODEL 3
REMARK VINA RESULT:      -9.0      0.832      1.331
REMARK  Name = 
REMARK  5 active torsions:
REMARK  status: ('A' for Active; 'I' for Inactive)
REMARK    1  A    between atoms: C_1  and  C_2
REMARK    2  A    between atoms: C_5  and  C_6
REMARK    3  A    between atoms: N_8  and  C_9
REMARK    4  A    between atoms: C_9  and  C_10
REMARK    5  A    between atoms: C_13  and  C_14
REMARK                            x       y       z     vdW  Elec       q    Type
REMARK                         _______ _______ _______ _____ _____    ______ ____
ROOT
ATOM      1  C   UNL     1       2.868   6.184  19.237  0.00  0.00    +0.000 A 
ATOM      2  N   UNL     1       4.100   6.203  18.709  0.00  0.00    +0.000 NA
ATOM      3  N   UNL     1       4.429   4.895  18.605  0.00  0.00    +0.000 N 
ATOM      4  C   UNL     1       3.423   4.037  18.989  0.00  0.00    +0.000 A 
ATOM      5  C   UNL     1       3.328   2.636  19.007  0.00  0.00    +0.000 A 
ATOM      6  C   UNL     1       2.137   2.074  19.478  0.00  0.00    +0.000 A 
ATOM      7  C   UNL     1       1.088   2.874  19.921  0.00  0.00    +0.000 A 
ATOM      8  C   UNL     1       1.200   4.271  19.902  0.00  0.00    +0.000 A 
ATOM      9  C   UNL     1       2.387   4.860  19.421  0.00  0.00    +0.000 A 
ENDROOT
BRANCH   1  14
ATOM     10  C   UNL     1       0.700  10.567  18.629  0.00  0.00    +0.000 C 
ATOM     11  C   UNL     1       1.143   9.394  19.407  0.00  0.00    +0.000 A 
ATOM     12  C   UNL     1       0.930   8.979  20.702  0.00  0.00    +0.000 A 
ATOM     13  C   UNL     1       1.563   7.719  20.823  0.00  0.00    +0.000 A 
ATOM     14  C   UNL     1       2.141   7.438  19.598  0.00  0.00    +0.000 A 
ATOM     15  O   UNL     1       1.905   8.484  18.743  0.00  0.00    +0.000 OA
ENDBRANCH   1  14
BRANCH   3  16
ATOM     16  C   UNL     1       5.781   4.531  18.187  0.00  0.00    +0.000 C 
BRANCH  16  17
ATOM     17  C   UNL     1       5.904   4.474  16.685  0.00  0.00    +0.000 A 
ATOM     18  C   UNL     1       4.819   4.053  15.903  0.00  0.00    +0.000 A 
ATOM     19  C   UNL     1       4.962   3.870  14.527  0.00  0.00    +0.000 A 
ATOM     20  C   UNL     1       6.191   4.115  13.904  0.00  0.00    +0.000 A 
ATOM     21  C   UNL     1       7.251   4.624  14.670  0.00  0.00    +0.000 A 
ATOM     22  C   UNL     1       7.108   4.802  16.048  0.00  0.00    +0.000 A 
BRANCH  20  23
ATOM     23  C   UNL     1       6.396   3.794  12.444  0.00  0.00    +0.000 C 
ATOM     24  F   UNL     1       5.255   3.864  11.703  0.00  0.00    +0.000 F 
ATOM     25  F   UNL     1       7.287   4.626  11.839  0.00  0.00    +0.000 F 
ATOM     26  F   UNL     1       6.879   2.531  12.258  0.00  0.00    +0.000 F 
ENDBRANCH  20  23
ENDBRANCH  16  17
ENDBRANCH   3  16
TORSDOF 4
ENDMDL
MODEL 4
REMARK VINA RESULT:      -8.8      0.947      1.563
REMARK  Name = 
REMARK  5 active torsions:
REMARK  status: ('A' for Active; 'I' for Inactive)
REMARK    1  A    between atoms: C_1  and  C_2
REMARK    2  A    between atoms: C_5  and  C_6
REMARK    3  A    between atoms: N_8  and  C_9
REMARK    4  A    between atoms: C_9  and  C_10
REMARK    5  A    between atoms: C_13  and  C_14
REMARK                            x       y       z     vdW  Elec       q    Type
REMARK                         _______ _______ _______ _____ _____    ______ ____
ROOT
ATOM      1  C   UNL     1       2.688   6.493  19.760  0.00  0.00    +0.000 A 
ATOM      2  N   UNL     1       3.936   6.526  19.269  0.00  0.00    +0.000 NA
ATOM      3  N   UNL     1       4.339   5.236  19.323  0.00  0.00    +0.000 N 
ATOM      4  C   UNL     1       3.368   4.368  19.771  0.00  0.00    +0.000 A 
ATOM      5  C   UNL     1       3.350   2.975  19.944  0.00  0.00    +0.000 A 
ATOM      6  C   UNL     1       2.175   2.400  20.441  0.00  0.00    +0.000 A 
ATOM      7  C   UNL     1       1.069   3.182  20.760  0.00  0.00    +0.000 A 
ATOM      8  C   UNL     1       1.105   4.572  20.586  0.00  0.00    +0.000 A 
ATOM      9  C   UNL     1       2.274   5.173  20.077  0.00  0.00    +0.000 A 
ENDROOT
BRANCH   1  14
ATOM     10  C   UNL     1       0.289  10.637  18.595  0.00  0.00    +0.000 C 
ATOM     11  C   UNL     1       0.778   9.592  19.515  0.00  0.00    +0.000 A 
ATOM     12  C   UNL     1       0.555   9.319  20.845  0.00  0.00    +0.000 A 
ATOM     13  C   UNL     1       1.256   8.123  21.127  0.00  0.00    +0.000 A 
ATOM     14  C   UNL     1       1.881   7.736  19.955  0.00  0.00    +0.000 A 
ATOM     15  O   UNL     1       1.608   8.658  18.978  0.00  0.00    +0.000 OA
ENDBRANCH   1  14
BRANCH   3  16
ATOM     16  C   UNL     1       5.723   4.908  18.989  0.00  0.00    +0.000 C 
BRANCH  16  17
ATOM     17  C   UNL     1       5.869   4.516  17.540  0.00  0.00    +0.000 A 
ATOM     18  C   UNL     1       7.103   4.659  16.891  0.00  0.00    +0.000 A 
ATOM     19  C   UNL     1       7.217   4.426  15.520  0.00  0.00    +0.000 A 
ATOM     20  C   UNL     1       6.101   4.033  14.772  0.00  0.00    +0.000 A 
ATOM     21  C   UNL     1       4.887   3.801  15.437  0.00  0.00    +0.000 A 
ATOM     22  C   UNL     1       4.772   4.040  16.808  0.00  0.00    +0.000 A 
BRANCH  20  23
ATOM     23  C   UNL     1       6.180   3.907  13.271  0.00  0.00    +0.000 C 
ATOM     24  F   UNL     1       6.586   2.678  12.846  0.00  0.00    +0.000 F 
ATOM     25  F   UNL     1       4.989   4.142  12.657  0.00  0.00    +0.000 F 
ATOM     26  F   UNL     1       7.062   4.795  12.727  0.00  0.00    +0.000 F 
ENDBRANCH  20  23
ENDBRANCH  16  17
ENDBRANCH   3  16
TORSDOF 4
ENDMDL
MODEL 5
REMARK VINA RESULT:      -8.7      0.895      1.376
REMARK  Name = 
REMARK  5 active torsions:
REMARK  status: ('A' for Active; 'I' for Inactive)
REMARK    1  A    between atoms: C_1  and  C_2
REMARK    2  A    between atoms: C_5  and  C_6
REMARK    3  A    between atoms: N_8  and  C_9
REMARK    4  A    between atoms: C_9  and  C_10
REMARK    5  A    between atoms: C_13  and  C_14
REMARK                            x       y       z     vdW  Elec       q    Type
REMARK                         _______ _______ _______ _____ _____    ______ ____
ROOT
ATOM      1  C   UNL     1       2.688   6.454  19.795  0.00  0.00    +0.000 A 
ATOM      2  N   UNL     1       3.924   6.514  19.275  0.00  0.00    +0.000 NA
ATOM      3  N   UNL     1       4.364   5.236  19.339  0.00  0.00    +0.000 N 
ATOM      4  C   UNL     1       3.429   4.349  19.823  0.00  0.00    +0.000 A 
ATOM      5  C   UNL     1       3.454   2.959  20.018  0.00  0.00    +0.000 A 
ATOM      6  C   UNL     1       2.307   2.360  20.551  0.00  0.00    +0.000 A 
ATOM      7  C   UNL     1       1.187   3.115  20.883  0.00  0.00    +0.000 A 
ATOM      8  C   UNL     1       1.180   4.503  20.687  0.00  0.00    +0.000 A 
ATOM      9  C   UNL     1       2.319   5.128  20.142  0.00  0.00    +0.000 A 
ENDROOT
BRANCH   1  14
ATOM     10  C   UNL     1      -0.056   9.810  22.136  0.00  0.00    +0.000 C 
ATOM     11  C   UNL     1       0.626   9.226  20.965  0.00  0.00    +0.000 A 
ATOM     12  C   UNL     1       0.845   9.664  19.679  0.00  0.00    +0.000 A 
ATOM     13  C   UNL     1       1.639   8.673  19.054  0.00  0.00    +0.000 A 
ATOM     14  C   UNL     1       1.852   7.677  19.989  0.00  0.00    +0.000 A 
ATOM     15  O   UNL     1       1.202   8.008  21.150  0.00  0.00    +0.000 OA
ENDBRANCH   1  14
BRANCH   3  16
ATOM     16  C   UNL     1       5.748   4.941  18.978  0.00  0.00    +0.000 C 
BRANCH  16  17
ATOM     17  C   UNL     1       5.874   4.540  17.530  0.00  0.00    +0.000 A 
ATOM     18  C   UNL     1       7.113   4.622  16.879  0.00  0.00    +0.000 A 
ATOM     19  C   UNL     1       7.213   4.380  15.509  0.00  0.00    +0.000 A 
ATOM     20  C   UNL     1       6.079   4.040  14.763  0.00  0.00    +0.000 A 
ATOM     21  C   UNL     1       4.856   3.867  15.430  0.00  0.00    +0.000 A 
ATOM     22  C   UNL     1       4.755   4.115  16.801  0.00  0.00    +0.000 A 
BRANCH  20  23
ATOM     23  C   UNL     1       6.149   3.906  13.262  0.00  0.00    +0.000 C 
ATOM     24  F   UNL     1       6.594   2.689  12.841  0.00  0.00    +0.000 F 
ATOM     25  F   UNL     1       4.946   4.096  12.657  0.00  0.00    +0.000 F 
ATOM     26  F   UNL     1       6.997   4.819  12.705  0.00  0.00    +0.000 F 
ENDBRANCH  20  23
ENDBRANCH  16  17
ENDBRANCH   3  16
TORSDOF 4
ENDMDL
MODEL 6
REMARK VINA RESULT:      -8.4      4.721      7.251
REMARK  Name = 
REMARK  5 active torsions:
REMARK  status: ('A' for Active; 'I' for Inactive)
REMARK    1  A    between atoms: C_1  and  C_2
REMARK    2  A    between atoms: C_5  and  C_6
REMARK    3  A    between atoms: N_8  and  C_9
REMARK    4  A    between atoms: C_9  and  C_10
REMARK    5  A    between atoms: C_13  and  C_14
REMARK                            x       y       z     vdW  Elec       q    Type
REMARK                         _______ _______ _______ _____ _____    ______ ____
ROOT
ATOM      1  C   UNL     1       6.308   5.380  16.322  0.00  0.00    +0.000 A 
ATOM      2  N   UNL     1       5.181   4.805  16.769  0.00  0.00    +0.000 NA
ATOM      3  N   UNL     1       4.718   4.122  15.697  0.00  0.00    +0.000 N 
ATOM      4  C   UNL     1       5.545   4.188  14.597  0.00  0.00    +0.000 A 
ATOM      5  C   UNL     1       5.467   3.612  13.319  0.00  0.00    +0.000 A 
ATOM      6  C   UNL     1       6.497   3.900  12.416  0.00  0.00    +0.000 A 
ATOM      7  C   UNL     1       7.554   4.734  12.770  0.00  0.00    +0.000 A 
ATOM      8  C   UNL     1       7.614   5.305  14.049  0.00  0.00    +0.000 A 
ATOM      9  C   UNL     1       6.593   5.021  14.979  0.00  0.00    +0.000 A 
ENDROOT
BRANCH   1  14
ATOM     10  C   UNL     1       8.330   9.598  17.872  0.00  0.00    +0.000 C 
ATOM     11  C   UNL     1       8.046   8.151  17.938  0.00  0.00    +0.000 A 
ATOM     12  C   UNL     1       8.310   7.173  18.870  0.00  0.00    +0.000 A 
ATOM     13  C   UNL     1       7.706   5.990  18.383  0.00  0.00    +0.000 A 
ATOM     14  C   UNL     1       7.116   6.306  17.173  0.00  0.00    +0.000 A 
ATOM     15  O   UNL     1       7.354   7.626  16.891  0.00  0.00    +0.000 OA
ENDBRANCH   1  14
BRANCH   3  16
ATOM     16  C   UNL     1       3.413   3.472  15.776  0.00  0.00    +0.000 C 
BRANCH  16  17
ATOM     17  C   UNL     1       2.975   3.271  17.205  0.00  0.00    +0.000 A 
ATOM     18  C   UNL     1       2.035   4.135  17.784  0.00  0.00    +0.000 A 
ATOM     19  C   UNL     1       1.722   4.040  19.140  0.00  0.00    +0.000 A 
ATOM     20  C   UNL     1       2.335   3.071  19.943  0.00  0.00    +0.000 A 
ATOM     21  C   UNL     1       3.206   2.147  19.345  0.00  0.00    +0.000 A 
ATOM     22  C   UNL     1       3.522   2.246  17.988  0.00  0.00    +0.000 A 
BRANCH  20  23
ATOM     23  C   UNL     1       2.106   3.043  21.434  0.00  0.00    +0.000 C 
ATOM     24  F   UNL     1       2.913   2.166  22.095  0.00  0.00    +0.000 F 
ATOM     25  F   UNL     1       2.305   4.253  22.023  0.00  0.00    +0.000 F 
ATOM     26  F   UNL     1       0.830   2.678  21.751  0.00  0.00    +0.000 F 
ENDBRANCH  20  23
ENDBRANCH  16  17
ENDBRANCH   3  16
TORSDOF 4
ENDMDL
MODEL 7
REMARK VINA RESULT:      -8.2      4.767      7.134
REMARK  Name = 
REMARK  5 active torsions:
REMARK  status: ('A' for Active; 'I' for Inactive)
REMARK    1  A    between atoms: C_1  and  C_2
REMARK    2  A    between atoms: C_5  and  C_6
REMARK    3  A    between atoms: N_8  and  C_9
REMARK    4  A    between atoms: C_9  and  C_10
REMARK    5  A    between atoms: C_13  and  C_14
REMARK                            x       y       z     vdW  Elec       q    Type
REMARK                         _______ _______ _______ _____ _____    ______ ____
ROOT
ATOM      1  C   UNL     1      -0.978  10.202  18.039  0.00  0.00    +0.000 A 
ATOM      2  N   UNL     1       0.046   9.419  17.667  0.00  0.00    +0.000 NA
ATOM      3  N   UNL     1       0.886   9.460  18.726  0.00  0.00    +0.000 N 
ATOM      4  C   UNL     1       0.406  10.190  19.790  0.00  0.00    +0.000 A 
ATOM      5  C   UNL     1       0.924  10.456  21.067  0.00  0.00    +0.000 A 
ATOM      6  C   UNL     1       0.163  11.264  21.919  0.00  0.00    +0.000 A 
ATOM      7  C   UNL     1      -1.059  11.791  21.511  0.00  0.00    +0.000 A 
ATOM      8  C   UNL     1      -1.560  11.520  20.230  0.00  0.00    +0.000 A 
ATOM      9  C   UNL     1      -0.816  10.701  19.358  0.00  0.00    +0.000 A 
ENDROOT
BRANCH   1  14
ATOM     10  C   UNL     1      -3.753  10.065  13.970  0.00  0.00    +0.000 C 
ATOM     11  C   UNL     1      -3.420  10.487  15.344  0.00  0.00    +0.000 A 
ATOM     12  C   UNL     1      -4.098  11.196  16.309  0.00  0.00    +0.000 A 
ATOM     13  C   UNL     1      -3.266  11.200  17.454  0.00  0.00    +0.000 A 
ATOM     14  C   UNL     1      -2.117  10.505  17.121  0.00  0.00    +0.000 A 
ATOM     15  O   UNL     1      -2.205  10.096  15.816  0.00  0.00    +0.000 OA
ENDBRANCH   1  14
BRANCH   3  16
ATOM     16  C   UNL     1       2.195   8.818  18.621  0.00  0.00    +0.000 C 
BRANCH  16  17
ATOM     17  C   UNL     1       2.134   7.361  19.005  0.00  0.00    +0.000 A 
ATOM     18  C   UNL     1       2.270   6.367  18.025  0.00  0.00    +0.000 A 
ATOM     19  C   UNL     1       2.084   5.022  18.347  0.00  0.00    +0.000 A 
ATOM     20  C   UNL     1       1.771   4.643  19.657  0.00  0.00    +0.000 A 
ATOM     21  C   UNL     1       1.726   5.628  20.656  0.00  0.00    +0.000 A 
ATOM     22  C   UNL     1       1.907   6.975  20.332  0.00  0.00    +0.000 A 
BRANCH  20  23
ATOM     23  C   UNL     1       1.438   3.210  19.990  0.00  0.00    +0.000 C 
ATOM     24  F   UNL     1       2.512   2.373  19.943  0.00  0.00    +0.000 F 
ATOM     25  F   UNL     1       0.904   3.065  21.233  0.00  0.00    +0.000 F 
ATOM     26  F   UNL     1       0.523   2.682  19.126  0.00  0.00    +0.000 F 
ENDBRANCH  20  23
ENDBRANCH  16  17
ENDBRANCH   3  16
TORSDOF 4
ENDMDL
MODEL 8
REMARK VINA RESULT:      -8.2      4.594      7.548
REMARK  Name = 
REMARK  5 active torsions:
REMARK  status: ('A' for Active; 'I' for Inactive)
REMARK    1  A    between atoms: C_1  and  C_2
REMARK    2  A    between atoms: C_5  and  C_6
REMARK    3  A    between atoms: N_8  and  C_9
REMARK    4  A    between atoms: C_9  and  C_10
REMARK    5  A    between atoms: C_13  and  C_14
REMARK                            x       y       z     vdW  Elec       q    Type
REMARK                         _______ _______ _______ _____ _____    ______ ____
ROOT
ATOM      1  C   UNL     1       3.549   5.529  18.060  0.00  0.00    +0.000 A 
ATOM      2  N   UNL     1       3.500   6.566  18.910  0.00  0.00    +0.000 NA
ATOM      3  N   UNL     1       2.522   6.227  19.780  0.00  0.00    +0.000 N 
ATOM      4  C   UNL     1       1.986   4.978  19.555  0.00  0.00    +0.000 A 
ATOM      5  C   UNL     1       0.999   4.236  20.223  0.00  0.00    +0.000 A 
ATOM      6  C   UNL     1       0.679   2.975  19.711  0.00  0.00    +0.000 A 
ATOM      7  C   UNL     1       1.311   2.476  18.575  0.00  0.00    +0.000 A 
ATOM      8  C   UNL     1       2.291   3.232  17.916  0.00  0.00    +0.000 A 
ATOM      9  C   UNL     1       2.637   4.502  18.420  0.00  0.00    +0.000 A 
ENDROOT
BRANCH   1  14
ATOM     10  C   UNL     1       6.041   3.740  14.204  0.00  0.00    +0.000 C 
ATOM     11  C   UNL     1       5.591   4.801  15.127  0.00  0.00    +0.000 A 
ATOM     12  C   UNL     1       5.739   6.169  15.143  0.00  0.00    +0.000 A 
ATOM     13  C   UNL     1       5.003   6.632  16.260  0.00  0.00    +0.000 A 
ATOM     14  C   UNL     1       4.456   5.520  16.873  0.00  0.00    +0.000 A 
ATOM     15  O   UNL     1       4.846   4.397  16.190  0.00  0.00    +0.000 OA
ENDBRANCH   1  14
BRANCH   3  16
ATOM     16  C   UNL     1       2.092   7.198  20.783  0.00  0.00    +0.000 C 
BRANCH  16  17
ATOM     17  C   UNL     1       1.322   8.337  20.163  0.00  0.00    +0.000 A 
ATOM     18  C   UNL     1       0.345   9.015  20.905  0.00  0.00    +0.000 A 
ATOM     19  C   UNL     1      -0.463   9.980  20.303  0.00  0.00    +0.000 A 
ATOM     20  C   UNL     1      -0.303  10.295  18.949  0.00  0.00    +0.000 A 
ATOM     21  C   UNL     1       0.735   9.683  18.229  0.00  0.00    +0.000 A 
ATOM     22  C   UNL     1       1.541   8.714  18.831  0.00  0.00    +0.000 A 
BRANCH  20  23
ATOM     23  C   UNL     1      -1.255  11.237  18.255  0.00  0.00    +0.000 C 
ATOM     24  F   UNL     1      -0.723  12.466  18.004  0.00  0.00    +0.000 F 
ATOM     25  F   UNL     1      -1.687  10.763  17.055  0.00  0.00    +0.000 F 
ATOM     26  F   UNL     1      -2.379  11.466  18.993  0.00  0.00    +0.000 F 
ENDBRANCH  20  23
ENDBRANCH  16  17
ENDBRANCH   3  16
TORSDOF 4
ENDMDL
MODEL 9
REMARK VINA RESULT:      -8.1      1.142      1.496
REMARK  Name = 
REMARK  5 active torsions:
REMARK  status: ('A' for Active; 'I' for Inactive)
REMARK    1  A    between atoms: C_1  and  C_2
REMARK    2  A    between atoms: C_5  and  C_6
REMARK    3  A    between atoms: N_8  and  C_9
REMARK    4  A    between atoms: C_9  and  C_10
REMARK    5  A    between atoms: C_13  and  C_14
REMARK                            x       y       z     vdW  Elec       q    Type
REMARK                         _______ _______ _______ _____ _____    ______ ____
ROOT
ATOM      1  C   UNL     1       2.632   6.669  19.535  0.00  0.00    +0.000 A 
ATOM      2  N   UNL     1       3.857   6.915  19.049  0.00  0.00    +0.000 NA
ATOM      3  N   UNL     1       4.377   5.684  18.841  0.00  0.00    +0.000 N 
ATOM      4  C   UNL     1       3.501   4.657  19.116  0.00  0.00    +0.000 A 
ATOM      5  C   UNL     1       3.613   3.261  19.007  0.00  0.00    +0.000 A 
ATOM      6  C   UNL     1       2.510   2.492  19.391  0.00  0.00    +0.000 A 
ATOM      7  C   UNL     1       1.347   3.087  19.870  0.00  0.00    +0.000 A 
ATOM      8  C   UNL     1       1.253   4.482  19.977  0.00  0.00    +0.000 A 
ATOM      9  C   UNL     1       2.348   5.278  19.587  0.00  0.00    +0.000 A 
ENDROOT
BRANCH   1  14
ATOM     10  C   UNL     1      -0.303   9.264  22.524  0.00  0.00    +0.000 C 
ATOM     11  C   UNL     1       0.408   8.990  21.260  0.00  0.00    +0.000 A 
ATOM     12  C   UNL     1       0.593   9.708  20.101  0.00  0.00    +0.000 A 
ATOM     13  C   UNL     1       1.443   8.927  19.283  0.00  0.00    +0.000 A 
ATOM     14  C   UNL     1       1.722   7.766  19.983  0.00  0.00    +0.000 A 
ATOM     15  O   UNL     1       1.059   7.798  21.182  0.00  0.00    +0.000 OA
ENDBRANCH   1  14
BRANCH   3  16
ATOM     16  C   UNL     1       5.774   5.560  18.434  0.00  0.00    +0.000 C 
BRANCH  16  17
ATOM     17  C   UNL     1       5.900   5.160  16.985  0.00  0.00    +0.000 A 
ATOM     18  C   UNL     1       5.414   6.001  15.975  0.00  0.00    +0.000 A 
ATOM     19  C   UNL     1       5.406   5.583  14.644  0.00  0.00    +0.000 A 
ATOM     20  C   UNL     1       5.895   4.319  14.294  0.00  0.00    +0.000 A 
ATOM     21  C   UNL     1       6.466   3.513  15.292  0.00  0.00    +0.000 A 
ATOM     22  C   UNL     1       6.470   3.931  16.625  0.00  0.00    +0.000 A 
BRANCH  20  23
ATOM     23  C   UNL     1       5.771   3.804  12.882  0.00  0.00    +0.000 C 
ATOM     24  F   UNL     1       4.509   3.897  12.375  0.00  0.00    +0.000 F 
ATOM     25  F   UNL     1       6.577   4.461  12.006  0.00  0.00    +0.000 F 
ATOM     26  F   UNL     1       6.110   2.486  12.785  0.00  0.00    +0.000 F 
ENDBRANCH  20  23
ENDBRANCH  16  17
ENDBRANCH   3  16
TORSDOF 4
ENDMDL
