MODEL 1
REMARK VINA RESULT:      -7.3      0.000      0.000
REMARK  Name = 
REMARK  8 active torsions:
REMARK  status: ('A' for Active; 'I' for Inactive)
REMARK    1  A    between atoms: C_1  and  C_2
REMARK    2  A    between atoms: N_5  and  C_6
REMARK    3  A    between atoms: C_6  and  C_7
REMARK    4  A    between atoms: C_10  and  C_11
REMARK    5  A    between atoms: C_11  and  N_12
REMARK    6  A    between atoms: C_15  and  C_16
REMARK    7  A    between atoms: C_17  and  C_18
REMARK    8  A    between atoms: C_21  and  C_22
REMARK                            x       y       z     vdW  Elec       q    Type
REMARK                         _______ _______ _______ _____ _____    ______ ____
ROOT
ATOM      1  C   UNL     1       2.501   7.488  19.154  0.00  0.00    +0.000 A 
ATOM      2  C   UNL     1       2.512   8.210  17.954  0.00  0.00    +0.000 A 
ATOM      3  C   UNL     1       1.737   9.363  17.811  0.00  0.00    +0.000 A 
ATOM      4  C   UNL     1       0.935   9.820  18.865  0.00  0.00    +0.000 A 
ATOM      5  C   UNL     1       0.936   9.102  20.069  0.00  0.00    +0.000 A 
ATOM      6  C   UNL     1       1.716   7.952  20.215  0.00  0.00    +0.000 A 
ENDROOT
BRANCH   1   7
ATOM      7  C   UNL     1       3.311   6.226  19.298  0.00  0.00    +0.000 C 
BRANCH   7  12
ATOM      8  C   UNL     1       0.595   2.044  18.725  0.00  0.00    +0.000 C 
ATOM      9  C   UNL     1       1.498   3.202  18.532  0.00  0.00    +0.000 A 
ATOM     10  N   UNL     1       2.110   3.424  17.326  0.00  0.00    +0.000 NA
ATOM     11  C   UNL     1       2.827   4.512  17.489  0.00  0.00    +0.000 A 
ATOM     12  N   UNL     1       2.701   5.019  18.751  0.00  0.00    +0.000 N 
ATOM     13  C   UNL     1       1.861   4.173  19.448  0.00  0.00    +0.000 A 
ATOM     14  C   UNL     1       1.472   4.331  20.872  0.00  0.00    +0.000 C 
ENDBRANCH   7  12
ENDBRANCH   1   7
BRANCH   4  15
ATOM     15  C   UNL     1       0.101  11.068  18.699  0.00  0.00    +0.000 C 
BRANCH  15  16
ATOM     16  N   UNL     1      -1.269  10.786  18.309  0.00  0.00    +0.000 N 
ATOM     17  C   UNL     1      -1.631   9.916  17.315  0.00  0.00    +0.000 A 
ATOM     18  N   UNL     1      -2.920   9.957  17.077  0.00  0.00    +0.000 NA
ATOM     19  C   UNL     1      -3.425  10.894  17.946  0.00  0.00    +0.000 A 
ATOM     20  C   UNL     1      -4.869  11.223  17.947  0.00  0.00    +0.000 C 
ATOM     21  C   UNL     1      -2.414  11.421  18.733  0.00  0.00    +0.000 A 
ATOM     22  C   UNL     1      -2.464  12.440  19.807  0.00  0.00    +0.000 C 
ENDBRANCH  15  16
ENDBRANCH   4  15
TORSDOF 4
ENDMDL
MODEL 2
REMARK VINA RESULT:      -7.3      0.152      7.173
REMARK  Name = 
REMARK  8 active torsions:
REMARK  status: ('A' for Active; 'I' for Inactive)
REMARK    1  A    between atoms: C_1  and  C_2
REMARK    2  A    between atoms: N_5  and  C_6
REMARK    3  A    between atoms: C_6  and  C_7
REMARK    4  A    between atoms: C_10  and  C_11
REMARK    5  A    between atoms: C_11  and  N_12
REMARK    6  A    between atoms: C_15  and  C_16
REMARK    7  A    between atoms: C_17  and  C_18
REMARK    8  A    between atoms: C_21  and  C_22
REMARK                            x       y       z     vdW  Elec       q    Type
REMARK                         _______ _______ _______ _____ _____    ______ ____
ROOT
ATOM      1  C   UNL     1       1.012   9.681  18.891  0.00  0.00    +0.000 A 
ATOM      2  C   UNL     1       1.787   9.222  17.819  0.00  0.00    +0.000 A 
ATOM      3  C   UNL     1       2.578   8.078  17.953  0.00  0.00    +0.000 A 
ATOM      4  C   UNL     1       2.610   7.368  19.160  0.00  0.00    +0.000 A 
ATOM      5  C   UNL     1       1.823   7.823  20.227  0.00  0.00    +0.000 A 
ATOM      6  C   UNL     1       1.026   8.963  20.093  0.00  0.00    +0.000 A 
ENDROOT
BRANCH   1   7
ATOM      7  C   UNL     1       0.184  10.932  18.760  0.00  0.00    +0.000 C 
BRANCH   7  12
ATOM      8  C   UNL     1      -4.757  11.355  17.984  0.00  0.00    +0.000 C 
ATOM      9  C   UNL     1      -3.331  10.956  17.947  0.00  0.00    +0.000 A 
ATOM     10  N   UNL     1      -2.893   9.993  17.076  0.00  0.00    +0.000 NA
ATOM     11  C   UNL     1      -1.603   9.880  17.295  0.00  0.00    +0.000 A 
ATOM     12  N   UNL     1      -1.175  10.740  18.266  0.00  0.00    +0.000 N 
ATOM     13  C   UNL     1      -2.284  11.431  18.716  0.00  0.00    +0.000 A 
ATOM     14  C   UNL     1      -2.281  12.451  19.795  0.00  0.00    +0.000 C 
ENDBRANCH   7  12
ENDBRANCH   1   7
BRANCH   4  15
ATOM     15  C   UNL     1       3.469   6.133  19.293  0.00  0.00    +0.000 C 
BRANCH  15  16
ATOM     16  N   UNL     1       2.806   4.930  18.821  0.00  0.00    +0.000 N 
ATOM     17  C   UNL     1       2.783   4.515  17.516  0.00  0.00    +0.000 A 
ATOM     18  N   UNL     1       1.998   3.477  17.348  0.00  0.00    +0.000 NA
ATOM     19  C   UNL     1       1.483   3.202  18.591  0.00  0.00    +0.000 A 
ATOM     20  C   UNL     1       0.527   2.087  18.782  0.00  0.00    +0.000 C 
ATOM     21  C   UNL     1       1.978   4.090  19.531  0.00  0.00    +0.000 A 
ATOM     22  C   UNL     1       1.726   4.189  20.988  0.00  0.00    +0.000 C 
ENDBRANCH  15  16
ENDBRANCH   4  15
TORSDOF 4
ENDMDL
MODEL 3
REMARK VINA RESULT:      -7.3      0.173      1.042
REMARK  Name = 
REMARK  8 active torsions:
REMARK  status: ('A' for Active; 'I' for Inactive)
REMARK    1  A    between atoms: C_1  and  C_2
REMARK    2  A    between atoms: N_5  and  C_6
REMARK    3  A    between atoms: C_6  and  C_7
REMARK    4  A    between atoms: C_10  and  C_11
REMARK    5  A    between atoms: C_11  and  N_12
REMARK    6  A    between atoms: C_15  and  C_16
REMARK    7  A    between atoms: C_17  and  C_18
REMARK    8  A    between atoms: C_21  and  C_22
REMARK                            x       y       z     vdW  Elec       q    Type
REMARK                         _______ _______ _______ _____ _____    ______ ____
ROOT
ATOM      1  C   UNL     1       2.411   7.504  19.205  0.00  0.00    +0.000 A 
ATOM      2  C   UNL     1       1.616   7.993  20.249  0.00  0.00    +0.000 A 
ATOM      3  C   UNL     1       0.891   9.177  20.095  0.00  0.00    +0.000 A 
ATOM      4  C   UNL     1       0.945   9.897  18.895  0.00  0.00    +0.000 A 
ATOM      5  C   UNL     1       1.732   9.398  17.847  0.00  0.00    +0.000 A 
ATOM      6  C   UNL     1       2.451   8.210  17.997  0.00  0.00    +0.000 A 
ENDROOT
BRANCH   1   7
ATOM      7  C   UNL     1       3.219   6.244  19.380  0.00  0.00    +0.000 C 
BRANCH   7  12
ATOM      8  C   UNL     1       0.617   2.004  18.711  0.00  0.00    +0.000 C 
ATOM      9  C   UNL     1       1.484   3.193  18.544  0.00  0.00    +0.000 A 
ATOM     10  N   UNL     1       2.076   3.468  17.338  0.00  0.00    +0.000 NA
ATOM     11  C   UNL     1       2.764   4.571  17.525  0.00  0.00    +0.000 A 
ATOM     12  N   UNL     1       2.637   5.037  18.803  0.00  0.00    +0.000 N 
ATOM     13  C   UNL     1       1.829   4.147  19.484  0.00  0.00    +0.000 A 
ATOM     14  C   UNL     1       1.452   4.252  20.916  0.00  0.00    +0.000 C 
ENDBRANCH   7  12
ENDBRANCH   1   7
BRANCH   4  15
ATOM     15  C   UNL     1       0.156  11.176  18.740  0.00  0.00    +0.000 C 
BRANCH  15  16
ATOM     16  N   UNL     1      -1.238  10.944  18.407  0.00  0.00    +0.000 N 
ATOM     17  C   UNL     1      -1.674  10.076  17.441  0.00  0.00    +0.000 A 
ATOM     18  N   UNL     1      -2.969  10.166  17.254  0.00  0.00    +0.000 NA
ATOM     19  C   UNL     1      -3.401  11.133  18.129  0.00  0.00    +0.000 A 
ATOM     20  C   UNL     1      -4.830  11.519  18.183  0.00  0.00    +0.000 C 
ATOM     21  C   UNL     1      -2.340  11.629  18.868  0.00  0.00    +0.000 A 
ATOM     22  C   UNL     1      -2.306  12.663  19.929  0.00  0.00    +0.000 C 
ENDBRANCH  15  16
ENDBRANCH   4  15
TORSDOF 4
ENDMDL
MODEL 4
REMARK VINA RESULT:      -7.2      0.792      1.401
REMARK  Name = 
REMARK  8 active torsions:
REMARK  status: ('A' for Active; 'I' for Inactive)
REMARK    1  A    between atoms: C_1  and  C_2
REMARK    2  A    between atoms: N_5  and  C_6
REMARK    3  A    between atoms: C_6  and  C_7
REMARK    4  A    between atoms: C_10  and  C_11
REMARK    5  A    between atoms: C_11  and  N_12
REMARK    6  A    between atoms: C_15  and  C_16
REMARK    7  A    between atoms: C_17  and  C_18
REMARK    8  A    between atoms: C_21  and  C_22
REMARK                            x       y       z     vdW  Elec       q    Type
REMARK                         _______ _______ _______ _____ _____    ______ ____
ROOT
ATOM      1  C   UNL     1       2.303   7.561  19.366  0.00  0.00    +0.000 A 
ATOM      2  C   UNL     1       2.293   8.144  18.094  0.00  0.00    +0.000 A 
ATOM      3  C   UNL     1       1.528   9.285  17.842  0.00  0.00    +0.000 A 
ATOM      4  C   UNL     1       0.757   9.868  18.856  0.00  0.00    +0.000 A 
ATOM      5  C   UNL     1       0.779   9.288  20.133  0.00  0.00    +0.000 A 
ATOM      6  C   UNL     1       1.550   8.151  20.388  0.00  0.00    +0.000 A 
ENDROOT
BRANCH   1   7
ATOM      7  C   UNL     1       3.102   6.311  19.632  0.00  0.00    +0.000 C 
BRANCH   7  12
ATOM      8  C   UNL     1       0.582   2.020  18.975  0.00  0.00    +0.000 C 
ATOM      9  C   UNL     1       1.234   3.225  19.536  0.00  0.00    +0.000 A 
ATOM     10  N   UNL     1       1.236   3.460  20.886  0.00  0.00    +0.000 NA
ATOM     11  C   UNL     1       1.886   4.590  21.048  0.00  0.00    +0.000 A 
ATOM     12  N   UNL     1       2.321   5.100  19.858  0.00  0.00    +0.000 N 
ATOM     13  C   UNL     1       1.891   4.241  18.865  0.00  0.00    +0.000 A 
ATOM     14  C   UNL     1       2.120   4.427  17.410  0.00  0.00    +0.000 C 
ENDBRANCH   7  12
ENDBRANCH   1   7
BRANCH   4  15
ATOM     15  C   UNL     1      -0.066  11.102  18.572  0.00  0.00    +0.000 C 
BRANCH  15  16
ATOM     16  N   UNL     1      -1.436  10.795  18.201  0.00  0.00    +0.000 N 
ATOM     17  C   UNL     1      -1.796   9.939  17.194  0.00  0.00    +0.000 A 
ATOM     18  N   UNL     1      -3.091   9.954  16.982  0.00  0.00    +0.000 NA
ATOM     19  C   UNL     1      -3.600  10.858  17.882  0.00  0.00    +0.000 A 
ATOM     20  C   UNL     1      -5.052  11.151  17.918  0.00  0.00    +0.000 C 
ATOM     21  C   UNL     1      -2.588  11.391  18.661  0.00  0.00    +0.000 A 
ATOM     22  C   UNL     1      -2.642  12.385  19.760  0.00  0.00    +0.000 C 
ENDBRANCH  15  16
ENDBRANCH   4  15
TORSDOF 4
ENDMDL
MODEL 5
REMARK VINA RESULT:      -7.1      0.854      7.343
REMARK  Name = 
REMARK  8 active torsions:
REMARK  status: ('A' for Active; 'I' for Inactive)
REMARK    1  A    between atoms: C_1  and  C_2
REMARK    2  A    between atoms: N_5  and  C_6
REMARK    3  A    between atoms: C_6  and  C_7
REMARK    4  A    between atoms: C_10  and  C_11
REMARK    5  A    between atoms: C_11  and  N_12
REMARK    6  A    between atoms: C_15  and  C_16
REMARK    7  A    between atoms: C_17  and  C_18
REMARK    8  A    between atoms: C_21  and  C_22
REMARK                            x       y       z     vdW  Elec       q    Type
REMARK                         _______ _______ _______ _____ _____    ______ ____
ROOT
ATOM      1  C   UNL     1       0.628   9.906  18.877  0.00  0.00    +0.000 A 
ATOM      2  C   UNL     1       0.667   9.393  20.179  0.00  0.00    +0.000 A 
ATOM      3  C   UNL     1       1.430   8.261  20.474  0.00  0.00    +0.000 A 
ATOM      4  C   UNL     1       2.172   7.618  19.474  0.00  0.00    +0.000 A 
ATOM      5  C   UNL     1       2.141   8.141  18.174  0.00  0.00    +0.000 A 
ATOM      6  C   UNL     1       1.383   9.278  17.879  0.00  0.00    +0.000 A 
ENDROOT
BRANCH   1   7
ATOM      7  C   UNL     1      -0.220  11.107  18.549  0.00  0.00    +0.000 C 
BRANCH   7  12
ATOM      8  C   UNL     1      -5.211  11.186  18.020  0.00  0.00    +0.000 C 
ATOM      9  C   UNL     1      -3.765  10.884  17.915  0.00  0.00    +0.000 A 
ATOM     10  N   UNL     1      -3.306   9.943  17.030  0.00  0.00    +0.000 NA
ATOM     11  C   UNL     1      -2.002   9.920  17.184  0.00  0.00    +0.000 A 
ATOM     12  N   UNL     1      -1.586  10.818  18.126  0.00  0.00    +0.000 N 
ATOM     13  C   UNL     1      -2.715  11.437  18.626  0.00  0.00    +0.000 A 
ATOM     14  C   UNL     1      -2.728  12.466  19.696  0.00  0.00    +0.000 C 
ENDBRANCH   7  12
ENDBRANCH   1   7
BRANCH   4  15
ATOM     15  C   UNL     1       2.994   6.395  19.806  0.00  0.00    +0.000 C 
BRANCH  15  16
ATOM     16  N   UNL     1       2.195   5.186  19.904  0.00  0.00    +0.000 N 
ATOM     17  C   UNL     1       1.784   4.619  21.081  0.00  0.00    +0.000 A 
ATOM     18  N   UNL     1       1.199   3.462  20.886  0.00  0.00    +0.000 NA
ATOM     19  C   UNL     1       1.230   3.258  19.528  0.00  0.00    +0.000 A 
ATOM     20  C   UNL     1       0.665   2.024  18.936  0.00  0.00    +0.000 C 
ATOM     21  C   UNL     1       1.839   4.326  18.891  0.00  0.00    +0.000 A 
ATOM     22  C   UNL     1       2.096   4.567  17.451  0.00  0.00    +0.000 C 
ENDBRANCH  15  16
ENDBRANCH   4  15
TORSDOF 4
ENDMDL
MODEL 6
REMARK VINA RESULT:      -7.0      2.151      3.544
REMARK  Name = 
REMARK  8 active torsions:
REMARK  status: ('A' for Active; 'I' for Inactive)
REMARK    1  A    between atoms: C_1  and  C_2
REMARK    2  A    between atoms: N_5  and  C_6
REMARK    3  A    between atoms: C_6  and  C_7
REMARK    4  A    between atoms: C_10  and  C_11
REMARK    5  A    between atoms: C_11  and  N_12
REMARK    6  A    between atoms: C_15  and  C_16
REMARK    7  A    between atoms: C_17  and  C_18
REMARK    8  A    between atoms: C_21  and  C_22
REMARK                            x       y       z     vdW  Elec       q    Type
REMARK                         _______ _______ _______ _____ _____    ______ ____
ROOT
ATOM      1  C   UNL     1       2.546   7.346  19.132  0.00  0.00    +0.000 A 
ATOM      2  C   UNL     1       1.837   7.782  20.258  0.00  0.00    +0.000 A 
ATOM      3  C   UNL     1       1.100   8.967  20.218  0.00  0.00    +0.000 A 
ATOM      4  C   UNL     1       1.054   9.742  19.052  0.00  0.00    +0.000 A 
ATOM      5  C   UNL     1       1.755   9.297  17.923  0.00  0.00    +0.000 A 
ATOM      6  C   UNL     1       2.487   8.108  17.959  0.00  0.00    +0.000 A 
ENDROOT
BRANCH   1   7
ATOM      7  C   UNL     1       3.369   6.085  19.182  0.00  0.00    +0.000 C 
BRANCH   7  12
ATOM      8  C   UNL     1       0.558   1.947  18.774  0.00  0.00    +0.000 C 
ATOM      9  C   UNL     1       1.471   3.087  18.529  0.00  0.00    +0.000 A 
ATOM     10  N   UNL     1       2.031   3.287  17.294  0.00  0.00    +0.000 NA
ATOM     11  C   UNL     1       2.774   4.364  17.413  0.00  0.00    +0.000 A 
ATOM     12  N   UNL     1       2.714   4.885  18.675  0.00  0.00    +0.000 N 
ATOM     13  C   UNL     1       1.892   4.060  19.418  0.00  0.00    +0.000 A 
ATOM     14  C   UNL     1       1.570   4.238  20.856  0.00  0.00    +0.000 C 
ENDBRANCH   7  12
ENDBRANCH   1   7
BRANCH   4  15
ATOM     15  C   UNL     1       0.252  11.022  19.021  0.00  0.00    +0.000 C 
BRANCH  15  16
ATOM     16  N   UNL     1       0.814  12.062  19.864  0.00  0.00    +0.000 N 
ATOM     17  C   UNL     1       0.340  12.399  21.104  0.00  0.00    +0.000 A 
ATOM     18  N   UNL     1       0.942  13.462  21.584  0.00  0.00    +0.000 NA
ATOM     19  C   UNL     1       1.845  13.839  20.620  0.00  0.00    +0.000 A 
ATOM     20  C   UNL     1       2.702  15.031  20.813  0.00  0.00    +0.000 C 
ATOM     21  C   UNL     1       1.791  12.976  19.539  0.00  0.00    +0.000 A 
ATOM     22  C   UNL     1       2.567  12.965  18.276  0.00  0.00    +0.000 C 
ENDBRANCH  15  16
ENDBRANCH   4  15
TORSDOF 4
ENDMDL
MODEL 7
REMARK VINA RESULT:      -6.9      1.462      7.823
REMARK  Name = 
REMARK  8 active torsions:
REMARK  status: ('A' for Active; 'I' for Inactive)
REMARK    1  A    between atoms: C_1  and  C_2
REMARK    2  A    between atoms: N_5  and  C_6
REMARK    3  A    between atoms: C_6  and  C_7
REMARK    4  A    between atoms: C_10  and  C_11
REMARK    5  A    between atoms: C_11  and  N_12
REMARK    6  A    between atoms: C_15  and  C_16
REMARK    7  A    between atoms: C_17  and  C_18
REMARK    8  A    between atoms: C_21  and  C_22
REMARK                            x       y       z     vdW  Elec       q    Type
REMARK                         _______ _______ _______ _____ _____    ______ ____
ROOT
ATOM      1  C   UNL     1       1.349   9.300  18.978  0.00  0.00    +0.000 A 
ATOM      2  C   UNL     1       1.252   8.745  20.260  0.00  0.00    +0.000 A 
ATOM      3  C   UNL     1       1.782   7.481  20.528  0.00  0.00    +0.000 A 
ATOM      4  C   UNL     1       2.420   6.745  19.522  0.00  0.00    +0.000 A 
ATOM      5  C   UNL     1       2.527   7.309  18.243  0.00  0.00    +0.000 A 
ATOM      6  C   UNL     1       2.003   8.577  17.975  0.00  0.00    +0.000 A 
ENDROOT
BRANCH   1   7
ATOM      7  C   UNL     1       0.749  10.650  18.678  0.00  0.00    +0.000 C 
BRANCH   7  12
ATOM      8  C   UNL     1      -4.145  11.756  18.556  0.00  0.00    +0.000 C 
ATOM      9  C   UNL     1      -2.805  11.165  18.335  0.00  0.00    +0.000 A 
ATOM     10  N   UNL     1      -2.622  10.161  17.421  0.00  0.00    +0.000 NA
ATOM     11  C   UNL     1      -1.342   9.870  17.468  0.00  0.00    +0.000 A 
ATOM     12  N   UNL     1      -0.676  10.652  18.369  0.00  0.00    +0.000 N 
ATOM     13  C   UNL     1      -1.610  11.483  18.955  0.00  0.00    +0.000 A 
ATOM     14  C   UNL     1      -1.326  12.481  20.018  0.00  0.00    +0.000 C 
ENDBRANCH   7  12
ENDBRANCH   1   7
BRANCH   4  15
ATOM     15  C   UNL     1       2.990   5.379  19.824  0.00  0.00    +0.000 C 
BRANCH  15  16
ATOM     16  N   UNL     1       4.057   4.998  18.916  0.00  0.00    +0.000 N 
ATOM     17  C   UNL     1       5.357   5.414  19.024  0.00  0.00    +0.000 A 
ATOM     18  N   UNL     1       6.077   5.034  17.995  0.00  0.00    +0.000 NA
ATOM     19  C   UNL     1       5.216   4.344  17.178  0.00  0.00    +0.000 A 
ATOM     20  C   UNL     1       5.686   3.776  15.894  0.00  0.00    +0.000 C 
ATOM     21  C   UNL     1       3.949   4.299  17.734  0.00  0.00    +0.000 A 
ATOM     22  C   UNL     1       2.702   3.670  17.239  0.00  0.00    +0.000 C 
ENDBRANCH  15  16
ENDBRANCH   4  15
TORSDOF 4
ENDMDL
MODEL 8
REMARK VINA RESULT:      -6.9      2.137      3.349
REMARK  Name = 
REMARK  8 active torsions:
REMARK  status: ('A' for Active; 'I' for Inactive)
REMARK    1  A    between atoms: C_1  and  C_2
REMARK    2  A    between atoms: N_5  and  C_6
REMARK    3  A    between atoms: C_6  and  C_7
REMARK    4  A    between atoms: C_10  and  C_11
REMARK    5  A    between atoms: C_11  and  N_12
REMARK    6  A    between atoms: C_15  and  C_16
REMARK    7  A    between atoms: C_17  and  C_18
REMARK    8  A    between atoms: C_21  and  C_22
REMARK                            x       y       z     vdW  Elec       q    Type
REMARK                         _______ _______ _______ _____ _____    ______ ____
ROOT
ATOM      1  C   UNL     1       2.624   7.322  19.146  0.00  0.00    +0.000 A 
ATOM      2  C   UNL     1       2.581   8.103  17.984  0.00  0.00    +0.000 A 
ATOM      3  C   UNL     1       1.816   9.270  17.941  0.00  0.00    +0.000 A 
ATOM      4  C   UNL     1       1.078   9.683  19.058  0.00  0.00    +0.000 A 
ATOM      5  C   UNL     1       1.133   8.906  20.224  0.00  0.00    +0.000 A 
ATOM      6  C   UNL     1       1.904   7.741  20.270  0.00  0.00    +0.000 A 
ENDROOT
BRANCH   1   7
ATOM      7  C   UNL     1       3.422   6.045  19.184  0.00  0.00    +0.000 C 
BRANCH   7  12
ATOM      8  C   UNL     1       0.538   1.956  18.781  0.00  0.00    +0.000 C 
ATOM      9  C   UNL     1       1.466   3.084  18.533  0.00  0.00    +0.000 A 
ATOM     10  N   UNL     1       2.011   3.286  17.292  0.00  0.00    +0.000 NA
ATOM     11  C   UNL     1       2.773   4.349  17.410  0.00  0.00    +0.000 A 
ATOM     12  N   UNL     1       2.740   4.859  18.676  0.00  0.00    +0.000 N 
ATOM     13  C   UNL     1       1.916   4.042  19.424  0.00  0.00    +0.000 A 
ATOM     14  C   UNL     1       1.618   4.212  20.869  0.00  0.00    +0.000 C 
ENDBRANCH   7  12
ENDBRANCH   1   7
BRANCH   4  15
ATOM     15  C   UNL     1       0.254  10.948  19.000  0.00  0.00    +0.000 C 
BRANCH  15  16
ATOM     16  N   UNL     1       0.780  12.004  19.845  0.00  0.00    +0.000 N 
ATOM     17  C   UNL     1       0.292  12.326  21.084  0.00  0.00    +0.000 A 
ATOM     18  N   UNL     1       0.858  13.406  21.566  0.00  0.00    +0.000 NA
ATOM     19  C   UNL     1       1.752  13.813  20.605  0.00  0.00    +0.000 A 
ATOM     20  C   UNL     1       2.570  15.031  20.803  0.00  0.00    +0.000 C 
ATOM     21  C   UNL     1       1.729  12.949  19.524  0.00  0.00    +0.000 A 
ATOM     22  C   UNL     1       2.509  12.964  18.264  0.00  0.00    +0.000 C 
ENDBRANCH  15  16
ENDBRANCH   4  15
TORSDOF 4
ENDMDL
MODEL 9
REMARK VINA RESULT:      -6.9      0.899      7.355
REMARK  Name = 
REMARK  8 active torsions:
REMARK  status: ('A' for Active; 'I' for Inactive)
REMARK    1  A    between atoms: C_1  and  C_2
REMARK    2  A    between atoms: N_5  and  C_6
REMARK    3  A    between atoms: C_6  and  C_7
REMARK    4  A    between atoms: C_10  and  C_11
REMARK    5  A    between atoms: C_11  and  N_12
REMARK    6  A    between atoms: C_15  and  C_16
REMARK    7  A    between atoms: C_17  and  C_18
REMARK    8  A    between atoms: C_21  and  C_22
REMARK                            x       y       z     vdW  Elec       q    Type
REMARK                         _______ _______ _______ _____ _____    ______ ____
ROOT
ATOM      1  C   UNL     1       0.642   9.862  19.371  0.00  0.00    +0.000 A 
ATOM      2  C   UNL     1       1.408   9.400  18.294  0.00  0.00    +0.000 A 
ATOM      3  C   UNL     1       2.196   8.254  18.423  0.00  0.00    +0.000 A 
ATOM      4  C   UNL     1       2.234   7.544  19.630  0.00  0.00    +0.000 A 
ATOM      5  C   UNL     1       1.456   8.002  20.703  0.00  0.00    +0.000 A 
ATOM      6  C   UNL     1       0.662   9.145  20.573  0.00  0.00    +0.000 A 
ENDROOT
BRANCH   1   7
ATOM      7  C   UNL     1      -0.182  11.117  19.245  0.00  0.00    +0.000 C 
BRANCH   7  12
ATOM      8  C   UNL     1      -4.978  11.625  17.854  0.00  0.00    +0.000 C 
ATOM      9  C   UNL     1      -3.561  11.215  17.984  0.00  0.00    +0.000 A 
ATOM     10  N   UNL     1      -3.015  10.293  17.129  0.00  0.00    +0.000 NA
ATOM     11  C   UNL     1      -1.765  10.157  17.507  0.00  0.00    +0.000 A 
ATOM     12  N   UNL     1      -1.466  10.963  18.569  0.00  0.00    +0.000 N 
ATOM     13  C   UNL     1      -2.622  11.640  18.905  0.00  0.00    +0.000 A 
ATOM     14  C   UNL     1      -2.757  12.604  20.026  0.00  0.00    +0.000 C 
ENDBRANCH   7  12
ENDBRANCH   1   7
BRANCH   4  15
ATOM     15  C   UNL     1       3.088   6.305  19.757  0.00  0.00    +0.000 C 
BRANCH  15  16
ATOM     16  N   UNL     1       2.306   5.093  19.925  0.00  0.00    +0.000 N 
ATOM     17  C   UNL     1       2.079   4.474  21.125  0.00  0.00    +0.000 A 
ATOM     18  N   UNL     1       1.462   3.327  20.972  0.00  0.00    +0.000 NA
ATOM     19  C   UNL     1       1.280   3.185  19.618  0.00  0.00    +0.000 A 
ATOM     20  C   UNL     1       0.622   1.978  19.068  0.00  0.00    +0.000 C 
ATOM     21  C   UNL     1       1.790   4.279  18.942  0.00  0.00    +0.000 A 
ATOM     22  C   UNL     1       1.822   4.585  17.492  0.00  0.00    +0.000 C 
ENDBRANCH  15  16
ENDBRANCH   4  15
TORSDOF 4
ENDMDL
