MODEL 1
REMARK VINA RESULT:      -8.9      0.000      0.000
REMARK  Name = 
REMARK  5 active torsions:
REMARK  status: ('A' for Active; 'I' for Inactive)
REMARK    1  A    between atoms: C_4  and  C_5
REMARK    2  A    between atoms: C_5  and  S_6
REMARK    3  A    between atoms: S_6  and  C_7
REMARK    4  A    between atoms: C_10  and  C_11
REMARK    5  A    between atoms: N_14  and  C_15
REMARK                            x       y       z     vdW  Elec       q    Type
REMARK                         _______ _______ _______ _____ _____    ______ ____
ROOT
ATOM      1  S   UNL     1       2.681   7.091  18.617  0.00  0.00    +0.000 S 
ENDROOT
BRANCH   1   2
ATOM      2  C   UNL     1       3.970   6.636  17.524  0.00  0.00    +0.000 A 
ATOM      3  N   UNL     1       4.590   7.484  16.731  0.00  0.00    +0.000 NA
ATOM      4  N   UNL     1       5.375   6.768  15.861  0.00  0.00    +0.000 NA
ATOM      5  C   UNL     1       5.276   5.493  16.176  0.00  0.00    +0.000 A 
ATOM      6  N   UNL     1       4.362   5.331  17.219  0.00  0.00    +0.000 N 
BRANCH   6   7
ATOM      7  C   UNL     1       3.909   4.084  17.750  0.00  0.00    +0.000 A 
ATOM      8  C   UNL     1       2.837   3.395  17.180  0.00  0.00    +0.000 A 
ATOM      9  C   UNL     1       2.405   2.180  17.739  0.00  0.00    +0.000 A 
ATOM     10  C   UNL     1       3.021   1.663  18.876  0.00  0.00    +0.000 A 
ATOM     11  C   UNL     1       4.085   2.341  19.451  0.00  0.00    +0.000 A 
ATOM     12  C   UNL     1       4.539   3.531  18.881  0.00  0.00    +0.000 A 
ENDBRANCH   6   7
BRANCH   5  13
ATOM     13  C   UNL     1       6.101   4.394  15.489  0.00  0.00    +0.000 C 
ATOM     14  C   UNL     1       6.972   4.648  14.284  0.00  0.00    +0.000 C 
ATOM     15  C   UNL     1       5.641   3.994  14.101  0.00  0.00    +0.000 C 
ENDBRANCH   5  13
ENDBRANCH   1   2
BRANCH   1  16
ATOM     16  C   UNL     1       1.998   8.590  17.840  0.00  0.00    +0.000 C 
BRANCH  16  20
ATOM     17  O   UNL     1      -0.721  12.388  18.680  0.00  0.00    +0.000 OA
ATOM     18  C   UNL     1      -0.195  11.381  19.139  0.00  0.00    +0.000 A 
ATOM     19  N   UNL     1       0.590  10.554  18.371  0.00  0.00    +0.000 N 
ATOM     20  C   UNL     1       1.213   9.428  18.852  0.00  0.00    +0.000 A 
ATOM     21  N   UNL     1       1.095   9.044  20.086  0.00  0.00    +0.000 NA
ATOM     22  C   UNL     1       0.296   9.815  20.956  0.00  0.00    +0.000 A 
ATOM     23  C   UNL     1       0.138   9.404  22.283  0.00  0.00    +0.000 A 
ATOM     24  C   UNL     1      -0.657  10.137  23.174  0.00  0.00    +0.000 A 
ATOM     25  C   UNL     1      -1.302  11.298  22.747  0.00  0.00    +0.000 A 
ATOM     26  C   UNL     1      -1.155  11.723  21.427  0.00  0.00    +0.000 A 
ATOM     27  C   UNL     1      -0.360  10.979  20.546  0.00  0.00    +0.000 A 
ATOM     28  H   UNL     1       0.712  10.837  17.410  0.00  0.00    +0.000 HD
ENDBRANCH  16  20
ENDBRANCH   1  16
TORSDOF 5
ENDMDL
MODEL 2
REMARK VINA RESULT:      -8.6      1.741      2.906
REMARK  Name = 
REMARK  5 active torsions:
REMARK  status: ('A' for Active; 'I' for Inactive)
REMARK    1  A    between atoms: C_4  and  C_5
REMARK    2  A    between atoms: C_5  and  S_6
REMARK    3  A    between atoms: S_6  and  C_7
REMARK    4  A    between atoms: C_10  and  C_11
REMARK    5  A    between atoms: N_14  and  C_15
REMARK                            x       y       z     vdW  Elec       q    Type
REMARK                         _______ _______ _______ _____ _____    ______ ____
ROOT
ATOM      1  S   UNL     1       2.807   6.462  19.274  0.00  0.00    +0.000 S 
ENDROOT
BRANCH   1   2
ATOM      2  C   UNL     1       3.325   5.363  18.013  0.00  0.00    +0.000 A 
ATOM      3  N   UNL     1       2.561   4.418  17.508  0.00  0.00    +0.000 NA
ATOM      4  N   UNL     1       3.340   3.611  16.715  0.00  0.00    +0.000 NA
ATOM      5  C   UNL     1       4.557   4.112  16.692  0.00  0.00    +0.000 A 
ATOM      6  N   UNL     1       4.629   5.226  17.532  0.00  0.00    +0.000 N 
BRANCH   6   7
ATOM      7  C   UNL     1       5.812   5.960  17.853  0.00  0.00    +0.000 A 
ATOM      8  C   UNL     1       6.122   7.160  17.212  0.00  0.00    +0.000 A 
ATOM      9  C   UNL     1       7.304   7.847  17.539  0.00  0.00    +0.000 A 
ATOM     10  C   UNL     1       8.187   7.330  18.482  0.00  0.00    +0.000 A 
ATOM     11  C   UNL     1       7.889   6.137  19.123  0.00  0.00    +0.000 A 
ATOM     12  C   UNL     1       6.702   5.467  18.826  0.00  0.00    +0.000 A 
ENDBRANCH   6   7
BRANCH   5  13
ATOM     13  C   UNL     1       5.684   3.539  15.819  0.00  0.00    +0.000 C 
ATOM     14  C   UNL     1       6.833   4.371  15.304  0.00  0.00    +0.000 C 
ATOM     15  C   UNL     1       5.712   4.019  14.380  0.00  0.00    +0.000 C 
ENDBRANCH   5  13
ENDBRANCH   1   2
BRANCH   1  16
ATOM     16  C   UNL     1       2.319   7.949  18.342  0.00  0.00    +0.000 C 
BRANCH  16  20
ATOM     17  O   UNL     1       0.557  12.321  18.900  0.00  0.00    +0.000 OA
ATOM     18  C   UNL     1       0.717  11.209  19.389  0.00  0.00    +0.000 A 
ATOM     19  N   UNL     1       1.388  10.210  18.726  0.00  0.00    +0.000 N 
ATOM     20  C   UNL     1       1.606   8.957  19.247  0.00  0.00    +0.000 A 
ATOM     21  N   UNL     1       1.174   8.611  20.421  0.00  0.00    +0.000 NA
ATOM     22  C   UNL     1       0.457   9.559  21.180  0.00  0.00    +0.000 A 
ATOM     23  C   UNL     1      -0.037   9.196  22.437  0.00  0.00    +0.000 A 
ATOM     24  C   UNL     1      -0.764  10.107  23.216  0.00  0.00    +0.000 A 
ATOM     25  C   UNL     1      -1.003  11.398  22.745  0.00  0.00    +0.000 A 
ATOM     26  C   UNL     1      -0.517  11.778  21.494  0.00  0.00    +0.000 A 
ATOM     27  C   UNL     1       0.205  10.856  20.725  0.00  0.00    +0.000 A 
ATOM     28  H   UNL     1       1.749  10.457  17.816  0.00  0.00    +0.000 HD
ENDBRANCH  16  20
ENDBRANCH   1  16
TORSDOF 5
ENDMDL
MODEL 3
REMARK VINA RESULT:      -8.3      1.145      1.797
REMARK  Name = 
REMARK  5 active torsions:
REMARK  status: ('A' for Active; 'I' for Inactive)
REMARK    1  A    between atoms: C_4  and  C_5
REMARK    2  A    between atoms: C_5  and  S_6
REMARK    3  A    between atoms: S_6  and  C_7
REMARK    4  A    between atoms: C_10  and  C_11
REMARK    5  A    between atoms: N_14  and  C_15
REMARK                            x       y       z     vdW  Elec       q    Type
REMARK                         _______ _______ _______ _____ _____    ______ ____
ROOT
ATOM      1  S   UNL     1       2.619   7.055  18.712  0.00  0.00    +0.000 S 
ENDROOT
BRANCH   1   2
ATOM      2  C   UNL     1       3.903   6.633  17.600  0.00  0.00    +0.000 A 
ATOM      3  N   UNL     1       4.505   7.500  16.815  0.00  0.00    +0.000 NA
ATOM      4  N   UNL     1       5.291   6.807  15.928  0.00  0.00    +0.000 NA
ATOM      5  C   UNL     1       5.211   5.526  16.224  0.00  0.00    +0.000 A 
ATOM      6  N   UNL     1       4.309   5.337  17.274  0.00  0.00    +0.000 N 
BRANCH   6   7
ATOM      7  C   UNL     1       3.876   4.077  17.790  0.00  0.00    +0.000 A 
ATOM      8  C   UNL     1       2.823   3.372  17.204  0.00  0.00    +0.000 A 
ATOM      9  C   UNL     1       2.410   2.143  17.750  0.00  0.00    +0.000 A 
ATOM     10  C   UNL     1       3.026   1.630  18.888  0.00  0.00    +0.000 A 
ATOM     11  C   UNL     1       4.071   2.324  19.478  0.00  0.00    +0.000 A 
ATOM     12  C   UNL     1       4.506   3.528  18.922  0.00  0.00    +0.000 A 
ENDBRANCH   6   7
BRANCH   5  13
ATOM     13  C   UNL     1       6.043   4.447  15.515  0.00  0.00    +0.000 C 
ATOM     14  C   UNL     1       6.932   4.737  14.331  0.00  0.00    +0.000 C 
ATOM     15  C   UNL     1       5.602   4.094  14.107  0.00  0.00    +0.000 C 
ENDBRANCH   5  13
ENDBRANCH   1   2
BRANCH   1  16
ATOM     16  C   UNL     1       1.997   8.629  18.035  0.00  0.00    +0.000 C 
BRANCH  16  20
ATOM     17  O   UNL     1       1.113   9.647  22.586  0.00  0.00    +0.000 OA
ATOM     18  C   UNL     1       0.803   9.830  21.414  0.00  0.00    +0.000 A 
ATOM     19  N   UNL     1       1.453   9.200  20.380  0.00  0.00    +0.000 N 
ATOM     20  C   UNL     1       1.124   9.362  19.056  0.00  0.00    +0.000 A 
ATOM     21  N   UNL     1       0.166  10.148  18.673  0.00  0.00    +0.000 NA
ATOM     22  C   UNL     1      -0.557  10.857  19.655  0.00  0.00    +0.000 A 
ATOM     23  C   UNL     1      -1.576  11.727  19.259  0.00  0.00    +0.000 A 
ATOM     24  C   UNL     1      -2.308  12.458  20.205  0.00  0.00    +0.000 A 
ATOM     25  C   UNL     1      -2.029  12.323  21.565  0.00  0.00    +0.000 A 
ATOM     26  C   UNL     1      -1.015  11.459  21.978  0.00  0.00    +0.000 A 
ATOM     27  C   UNL     1      -0.290  10.737  21.022  0.00  0.00    +0.000 A 
ATOM     28  H   UNL     1       2.194   8.569  20.651  0.00  0.00    +0.000 HD
ENDBRANCH  16  20
ENDBRANCH   1  16
TORSDOF 5
ENDMDL
MODEL 4
REMARK VINA RESULT:      -8.2      0.934      1.347
REMARK  Name = 
REMARK  5 active torsions:
REMARK  status: ('A' for Active; 'I' for Inactive)
REMARK    1  A    between atoms: C_4  and  C_5
REMARK    2  A    between atoms: C_5  and  S_6
REMARK    3  A    between atoms: S_6  and  C_7
REMARK    4  A    between atoms: C_10  and  C_11
REMARK    5  A    between atoms: N_14  and  C_15
REMARK                            x       y       z     vdW  Elec       q    Type
REMARK                         _______ _______ _______ _____ _____    ______ ____
ROOT
ATOM      1  S   UNL     1       2.290   7.534  18.999  0.00  0.00    +0.000 S 
ENDROOT
BRANCH   1   2
ATOM      2  C   UNL     1       3.494   6.811  17.954  0.00  0.00    +0.000 A 
ATOM      3  N   UNL     1       4.234   7.495  17.109  0.00  0.00    +0.000 NA
ATOM      4  N   UNL     1       4.901   6.607  16.301  0.00  0.00    +0.000 NA
ATOM      5  C   UNL     1       4.611   5.388  16.706  0.00  0.00    +0.000 A 
ATOM      6  N   UNL     1       3.683   5.442  17.749  0.00  0.00    +0.000 N 
BRANCH   6   7
ATOM      7  C   UNL     1       3.047   4.321  18.364  0.00  0.00    +0.000 A 
ATOM      8  C   UNL     1       3.644   3.634  19.423  0.00  0.00    +0.000 A 
ATOM      9  C   UNL     1       2.998   2.523  19.993  0.00  0.00    +0.000 A 
ATOM     10  C   UNL     1       1.775   2.081  19.497  0.00  0.00    +0.000 A 
ATOM     11  C   UNL     1       1.175   2.756  18.444  0.00  0.00    +0.000 A 
ATOM     12  C   UNL     1       1.796   3.879  17.895  0.00  0.00    +0.000 A 
ENDBRANCH   6   7
BRANCH   5  13
ATOM     13  C   UNL     1       5.259   4.129  16.109  0.00  0.00    +0.000 C 
ATOM     14  C   UNL     1       6.677   4.095  15.598  0.00  0.00    +0.000 C 
ATOM     15  C   UNL     1       5.550   4.179  14.622  0.00  0.00    +0.000 C 
ENDBRANCH   5  13
ENDBRANCH   1   2
BRANCH   1  16
ATOM     16  C   UNL     1       1.810   9.036  18.086  0.00  0.00    +0.000 C 
BRANCH  16  20
ATOM     17  O   UNL     1      -1.569  12.369  18.171  0.00  0.00    +0.000 OA
ATOM     18  C   UNL     1      -0.879  11.590  18.819  0.00  0.00    +0.000 A 
ATOM     19  N   UNL     1       0.059  10.779  18.225  0.00  0.00    +0.000 N 
ATOM     20  C   UNL     1       0.865   9.908  18.917  0.00  0.00    +0.000 A 
ATOM     21  N   UNL     1       0.791   9.771  20.206  0.00  0.00    +0.000 NA
ATOM     22  C   UNL     1      -0.152  10.547  20.912  0.00  0.00    +0.000 A 
ATOM     23  C   UNL     1      -0.262  10.396  22.297  0.00  0.00    +0.000 A 
ATOM     24  C   UNL     1      -1.195  11.140  23.031  0.00  0.00    +0.000 A 
ATOM     25  C   UNL     1      -2.030  12.051  22.385  0.00  0.00    +0.000 A 
ATOM     26  C   UNL     1      -1.934  12.216  21.003  0.00  0.00    +0.000 A 
ATOM     27  C   UNL     1      -0.998  11.463  20.281  0.00  0.00    +0.000 A 
ATOM     28  H   UNL     1       0.148  10.876  17.224  0.00  0.00    +0.000 HD
ENDBRANCH  16  20
ENDBRANCH   1  16
TORSDOF 5
ENDMDL
MODEL 5
REMARK VINA RESULT:      -8.2      2.086      3.411
REMARK  Name = 
REMARK  5 active torsions:
REMARK  status: ('A' for Active; 'I' for Inactive)
REMARK    1  A    between atoms: C_4  and  C_5
REMARK    2  A    between atoms: C_5  and  S_6
REMARK    3  A    between atoms: S_6  and  C_7
REMARK    4  A    between atoms: C_10  and  C_11
REMARK    5  A    between atoms: N_14  and  C_15
REMARK                            x       y       z     vdW  Elec       q    Type
REMARK                         _______ _______ _______ _____ _____    ______ ____
ROOT
ATOM      1  S   UNL     1       2.861   6.454  19.410  0.00  0.00    +0.000 S 
ENDROOT
BRANCH   1   2
ATOM      2  C   UNL     1       3.324   5.391  18.099  0.00  0.00    +0.000 A 
ATOM      3  N   UNL     1       2.535   4.468  17.592  0.00  0.00    +0.000 NA
ATOM      4  N   UNL     1       3.277   3.680  16.748  0.00  0.00    +0.000 NA
ATOM      5  C   UNL     1       4.498   4.170  16.698  0.00  0.00    +0.000 A 
ATOM      6  N   UNL     1       4.610   5.256  17.569  0.00  0.00    +0.000 N 
BRANCH   6   7
ATOM      7  C   UNL     1       5.811   5.969  17.871  0.00  0.00    +0.000 A 
ATOM      8  C   UNL     1       6.136   7.159  17.218  0.00  0.00    +0.000 A 
ATOM      9  C   UNL     1       7.335   7.825  17.526  0.00  0.00    +0.000 A 
ATOM     10  C   UNL     1       8.219   7.297  18.463  0.00  0.00    +0.000 A 
ATOM     11  C   UNL     1       7.906   6.115  19.116  0.00  0.00    +0.000 A 
ATOM     12  C   UNL     1       6.702   5.466  18.838  0.00  0.00    +0.000 A 
ENDBRANCH   6   7
BRANCH   5  13
ATOM     13  C   UNL     1       5.588   3.614  15.769  0.00  0.00    +0.000 C 
ATOM     14  C   UNL     1       6.738   4.446  15.257  0.00  0.00    +0.000 C 
ATOM     15  C   UNL     1       5.586   4.155  14.352  0.00  0.00    +0.000 C 
ENDBRANCH   5  13
ENDBRANCH   1   2
BRANCH   1  16
ATOM     16  C   UNL     1       2.280   7.945  18.539  0.00  0.00    +0.000 C 
BRANCH  16  20
ATOM     17  O   UNL     1       1.186   9.319  22.948  0.00  0.00    +0.000 OA
ATOM     18  C   UNL     1       0.974   9.453  21.748  0.00  0.00    +0.000 A 
ATOM     19  N   UNL     1       1.633   8.706  20.802  0.00  0.00    +0.000 N 
ATOM     20  C   UNL     1       1.410   8.812  19.451  0.00  0.00    +0.000 A 
ATOM     21  N   UNL     1       0.553   9.651  18.955  0.00  0.00    +0.000 NA
ATOM     22  C   UNL     1      -0.168  10.480  19.840  0.00  0.00    +0.000 A 
ATOM     23  C   UNL     1      -1.077  11.407  19.323  0.00  0.00    +0.000 A 
ATOM     24  C   UNL     1      -1.803  12.255  20.170  0.00  0.00    +0.000 A 
ATOM     25  C   UNL     1      -1.628  12.182  21.552  0.00  0.00    +0.000 A 
ATOM     26  C   UNL     1      -0.726  11.263  22.087  0.00  0.00    +0.000 A 
ATOM     27  C   UNL     1      -0.005  10.423  21.228  0.00  0.00    +0.000 A 
ATOM     28  H   UNL     1       2.295   8.033  21.162  0.00  0.00    +0.000 HD
ENDBRANCH  16  20
ENDBRANCH   1  16
TORSDOF 5
ENDMDL
MODEL 6
REMARK VINA RESULT:      -8.1      1.822      2.368
REMARK  Name = 
REMARK  5 active torsions:
REMARK  status: ('A' for Active; 'I' for Inactive)
REMARK    1  A    between atoms: C_4  and  C_5
REMARK    2  A    between atoms: C_5  and  S_6
REMARK    3  A    between atoms: S_6  and  C_7
REMARK    4  A    between atoms: C_10  and  C_11
REMARK    5  A    between atoms: N_14  and  C_15
REMARK                            x       y       z     vdW  Elec       q    Type
REMARK                         _______ _______ _______ _____ _____    ______ ____
ROOT
ATOM      1  S   UNL     1       1.913   7.962  18.298  0.00  0.00    +0.000 S 
ENDROOT
BRANCH   1   2
ATOM      2  C   UNL     1       3.385   7.165  17.786  0.00  0.00    +0.000 A 
ATOM      3  N   UNL     1       4.330   7.755  17.086  0.00  0.00    +0.000 NA
ATOM      4  N   UNL     1       5.222   6.798  16.670  0.00  0.00    +0.000 NA
ATOM      5  C   UNL     1       4.847   5.641  17.176  0.00  0.00    +0.000 A 
ATOM      6  N   UNL     1       3.651   5.798  17.882  0.00  0.00    +0.000 N 
BRANCH   6   7
ATOM      7  C   UNL     1       2.881   4.747  18.470  0.00  0.00    +0.000 A 
ATOM      8  C   UNL     1       1.888   4.081  17.750  0.00  0.00    +0.000 A 
ATOM      9  C   UNL     1       1.136   3.065  18.365  0.00  0.00    +0.000 A 
ATOM     10  C   UNL     1       1.355   2.728  19.698  0.00  0.00    +0.000 A 
ATOM     11  C   UNL     1       2.338   3.386  20.422  0.00  0.00    +0.000 A 
ATOM     12  C   UNL     1       3.109   4.373  19.807  0.00  0.00    +0.000 A 
ENDBRANCH   6   7
BRANCH   5  13
ATOM     13  C   UNL     1       5.665   4.351  17.017  0.00  0.00    +0.000 C 
ATOM     14  C   UNL     1       6.980   4.294  16.281  0.00  0.00    +0.000 C 
ATOM     15  C   UNL     1       5.744   3.789  15.611  0.00  0.00    +0.000 C 
ENDBRANCH   5  13
ENDBRANCH   1   2
BRANCH   1  16
ATOM     16  C   UNL     1       1.992   7.835  20.114  0.00  0.00    +0.000 C 
BRANCH  16  20
ATOM     17  O   UNL     1       0.235   9.671  24.122  0.00  0.00    +0.000 OA
ATOM     18  C   UNL     1       0.241   9.698  22.896  0.00  0.00    +0.000 A 
ATOM     19  N   UNL     1       1.010   8.837  22.151  0.00  0.00    +0.000 N 
ATOM     20  C   UNL     1       1.029   8.821  20.778  0.00  0.00    +0.000 A 
ATOM     21  N   UNL     1       0.321   9.644  20.067  0.00  0.00    +0.000 NA
ATOM     22  C   UNL     1      -0.493  10.583  20.734  0.00  0.00    +0.000 A 
ATOM     23  C   UNL     1      -1.244  11.492  19.985  0.00  0.00    +0.000 A 
ATOM     24  C   UNL     1      -2.055  12.447  20.612  0.00  0.00    +0.000 A 
ATOM     25  C   UNL     1      -2.127  12.501  22.004  0.00  0.00    +0.000 A 
ATOM     26  C   UNL     1      -1.384  11.600  22.769  0.00  0.00    +0.000 A 
ATOM     27  C   UNL     1      -0.576  10.653  22.128  0.00  0.00    +0.000 A 
ATOM     28  H   UNL     1       1.559   8.174  22.680  0.00  0.00    +0.000 HD
ENDBRANCH  16  20
ENDBRANCH   1  16
TORSDOF 5
ENDMDL
MODEL 7
REMARK VINA RESULT:      -8.1      1.269      1.756
REMARK  Name = 
REMARK  5 active torsions:
REMARK  status: ('A' for Active; 'I' for Inactive)
REMARK    1  A    between atoms: C_4  and  C_5
REMARK    2  A    between atoms: C_5  and  S_6
REMARK    3  A    between atoms: S_6  and  C_7
REMARK    4  A    between atoms: C_10  and  C_11
REMARK    5  A    between atoms: N_14  and  C_15
REMARK                            x       y       z     vdW  Elec       q    Type
REMARK                         _______ _______ _______ _____ _____    ______ ____
ROOT
ATOM      1  S   UNL     1       2.583   7.013  18.843  0.00  0.00    +0.000 S 
ENDROOT
BRANCH   1   2
ATOM      2  C   UNL     1       3.862   6.621  17.715  0.00  0.00    +0.000 A 
ATOM      3  N   UNL     1       4.456   7.508  16.947  0.00  0.00    +0.000 NA
ATOM      4  N   UNL     1       5.239   6.838  16.039  0.00  0.00    +0.000 NA
ATOM      5  C   UNL     1       5.165   5.551  16.305  0.00  0.00    +0.000 A 
ATOM      6  N   UNL     1       4.269   5.334  17.355  0.00  0.00    +0.000 N 
BRANCH   6   7
ATOM      7  C   UNL     1       3.843   4.061  17.844  0.00  0.00    +0.000 A 
ATOM      8  C   UNL     1       2.794   3.363  17.243  0.00  0.00    +0.000 A 
ATOM      9  C   UNL     1       2.388   2.121  17.761  0.00  0.00    +0.000 A 
ATOM     10  C   UNL     1       3.006   1.586  18.888  0.00  0.00    +0.000 A 
ATOM     11  C   UNL     1       4.048   2.273  19.493  0.00  0.00    +0.000 A 
ATOM     12  C   UNL     1       4.476   3.491  18.964  0.00  0.00    +0.000 A 
ENDBRANCH   6   7
BRANCH   5  13
ATOM     13  C   UNL     1       5.996   4.491  15.565  0.00  0.00    +0.000 C 
ATOM     14  C   UNL     1       6.850   4.806  14.362  0.00  0.00    +0.000 C 
ATOM     15  C   UNL     1       5.525   4.143  14.166  0.00  0.00    +0.000 C 
ENDBRANCH   5  13
ENDBRANCH   1   2
BRANCH   1  16
ATOM     16  C   UNL     1       2.120   8.708  18.361  0.00  0.00    +0.000 C 
BRANCH  16  20
ATOM     17  O   UNL     1      -0.685   8.205  22.156  0.00  0.00    +0.000 OA
ATOM     18  C   UNL     1      -0.126   8.980  21.388  0.00  0.00    +0.000 A 
ATOM     19  N   UNL     1       0.636   8.539  20.333  0.00  0.00    +0.000 N 
ATOM     20  C   UNL     1       1.262   9.373  19.439  0.00  0.00    +0.000 A 
ATOM     21  N   UNL     1       1.192  10.665  19.533  0.00  0.00    +0.000 NA
ATOM     22  C   UNL     1       0.447  11.224  20.593  0.00  0.00    +0.000 A 
ATOM     23  C   UNL     1       0.381  12.614  20.724  0.00  0.00    +0.000 A 
ATOM     24  C   UNL     1      -0.340  13.206  21.770  0.00  0.00    +0.000 A 
ATOM     25  C   UNL     1      -1.008  12.409  22.700  0.00  0.00    +0.000 A 
ATOM     26  C   UNL     1      -0.954  11.020  22.584  0.00  0.00    +0.000 A 
ATOM     27  C   UNL     1      -0.228  10.442  21.535  0.00  0.00    +0.000 A 
ATOM     28  H   UNL     1       0.694   7.536  20.226  0.00  0.00    +0.000 HD
ENDBRANCH  16  20
ENDBRANCH   1  16
TORSDOF 5
ENDMDL
MODEL 8
REMARK VINA RESULT:      -8.0      2.048      3.496
REMARK  Name = 
REMARK  5 active torsions:
REMARK  status: ('A' for Active; 'I' for Inactive)
REMARK    1  A    between atoms: C_4  and  C_5
REMARK    2  A    between atoms: C_5  and  S_6
REMARK    3  A    between atoms: S_6  and  C_7
REMARK    4  A    between atoms: C_10  and  C_11
REMARK    5  A    between atoms: N_14  and  C_15
REMARK                            x       y       z     vdW  Elec       q    Type
REMARK                         _______ _______ _______ _____ _____    ______ ____
ROOT
ATOM      1  S   UNL     1       2.749   6.620  19.157  0.00  0.00    +0.000 S 
ENDROOT
BRANCH   1   2
ATOM      2  C   UNL     1       3.266   5.459  17.953  0.00  0.00    +0.000 A 
ATOM      3  N   UNL     1       2.491   4.512  17.471  0.00  0.00    +0.000 NA
ATOM      4  N   UNL     1       3.266   3.655  16.728  0.00  0.00    +0.000 NA
ATOM      5  C   UNL     1       4.495   4.127  16.710  0.00  0.00    +0.000 A 
ATOM      6  N   UNL     1       4.576   5.272  17.506  0.00  0.00    +0.000 N 
BRANCH   6   7
ATOM      7  C   UNL     1       5.770   5.991  17.822  0.00  0.00    +0.000 A 
ATOM      8  C   UNL     1       6.111   7.167  17.151  0.00  0.00    +0.000 A 
ATOM      9  C   UNL     1       7.303   7.840  17.473  0.00  0.00    +0.000 A 
ATOM     10  C   UNL     1       8.164   7.332  18.443  0.00  0.00    +0.000 A 
ATOM     11  C   UNL     1       7.834   6.164  19.113  0.00  0.00    +0.000 A 
ATOM     12  C   UNL     1       6.637   5.509  18.820  0.00  0.00    +0.000 A 
ENDBRANCH   6   7
BRANCH   5  13
ATOM     13  C   UNL     1       5.625   3.493  15.884  0.00  0.00    +0.000 C 
ATOM     14  C   UNL     1       6.816   4.271  15.382  0.00  0.00    +0.000 C 
ATOM     15  C   UNL     1       5.710   3.933  14.436  0.00  0.00    +0.000 C 
ENDBRANCH   5  13
ENDBRANCH   1   2
BRANCH   1  16
ATOM     16  C   UNL     1       2.640   8.171  18.207  0.00  0.00    +0.000 C 
BRANCH  16  20
ATOM     17  O   UNL     1       0.826  10.760  21.747  0.00  0.00    +0.000 OA
ATOM     18  C   UNL     1       0.702  10.371  20.591  0.00  0.00    +0.000 A 
ATOM     19  N   UNL     1       1.613   9.527  20.003  0.00  0.00    +0.000 N 
ATOM     20  C   UNL     1       1.499   9.052  18.719  0.00  0.00    +0.000 A 
ATOM     21  N   UNL     1       0.512   9.382  17.944  0.00  0.00    +0.000 NA
ATOM     22  C   UNL     1      -0.473  10.258  18.445  0.00  0.00    +0.000 A 
ATOM     23  C   UNL     1      -1.531  10.644  17.617  0.00  0.00    +0.000 A 
ATOM     24  C   UNL     1      -2.522  11.522  18.075  0.00  0.00    +0.000 A 
ATOM     25  C   UNL     1      -2.467  12.025  19.375  0.00  0.00    +0.000 A 
ATOM     26  C   UNL     1      -1.419  11.651  20.216  0.00  0.00    +0.000 A 
ATOM     27  C   UNL     1      -0.434  10.774  19.744  0.00  0.00    +0.000 A 
ATOM     28  H   UNL     1       2.384   9.241  20.589  0.00  0.00    +0.000 HD
ENDBRANCH  16  20
ENDBRANCH   1  16
TORSDOF 5
ENDMDL
MODEL 9
REMARK VINA RESULT:      -8.0      2.412      3.142
REMARK  Name = 
REMARK  5 active torsions:
REMARK  status: ('A' for Active; 'I' for Inactive)
REMARK    1  A    between atoms: C_4  and  C_5
REMARK    2  A    between atoms: C_5  and  S_6
REMARK    3  A    between atoms: S_6  and  C_7
REMARK    4  A    between atoms: C_10  and  C_11
REMARK    5  A    between atoms: N_14  and  C_15
REMARK                            x       y       z     vdW  Elec       q    Type
REMARK                         _______ _______ _______ _____ _____    ______ ____
ROOT
ATOM      1  S   UNL     1       1.405   8.190  19.476  0.00  0.00    +0.000 S 
ENDROOT
BRANCH   1   2
ATOM      2  C   UNL     1       2.722   7.374  18.662  0.00  0.00    +0.000 A 
ATOM      3  N   UNL     1       3.483   7.942  17.751  0.00  0.00    +0.000 NA
ATOM      4  N   UNL     1       4.257   6.970  17.166  0.00  0.00    +0.000 NA
ATOM      5  C   UNL     1       4.007   5.828  17.773  0.00  0.00    +0.000 A 
ATOM      6  N   UNL     1       3.004   6.008  18.728  0.00  0.00    +0.000 N 
BRANCH   6   7
ATOM      7  C   UNL     1       2.388   4.975  19.501  0.00  0.00    +0.000 A 
ATOM      8  C   UNL     1       2.739   4.756  20.835  0.00  0.00    +0.000 A 
ATOM      9  C   UNL     1       2.127   3.720  21.561  0.00  0.00    +0.000 A 
ATOM     10  C   UNL     1       1.187   2.889  20.957  0.00  0.00    +0.000 A 
ATOM     11  C   UNL     1       0.834   3.098  19.632  0.00  0.00    +0.000 A 
ATOM     12  C   UNL     1       1.414   4.145  18.916  0.00  0.00    +0.000 A 
ENDBRANCH   6   7
BRANCH   5  13
ATOM     13  C   UNL     1       4.768   4.530  17.463  0.00  0.00    +0.000 C 
ATOM     14  C   UNL     1       5.327   4.207  16.100  0.00  0.00    +0.000 C 
ATOM     15  C   UNL     1       4.059   3.553  16.545  0.00  0.00    +0.000 C 
ENDBRANCH   5  13
ENDBRANCH   1   2
BRANCH   1  16
ATOM     16  C   UNL     1       1.374   9.822  18.665  0.00  0.00    +0.000 C 
BRANCH  16  20
ATOM     17  O   UNL     1      -2.675   9.778  16.190  0.00  0.00    +0.000 OA
ATOM     18  C   UNL     1      -2.079  10.194  17.177  0.00  0.00    +0.000 A 
ATOM     19  N   UNL     1      -0.767   9.872  17.428  0.00  0.00    +0.000 N 
ATOM     20  C   UNL     1      -0.059  10.334  18.511  0.00  0.00    +0.000 A 
ATOM     21  N   UNL     1      -0.590  11.112  19.404  0.00  0.00    +0.000 NA
ATOM     22  C   UNL     1      -1.939  11.491  19.249  0.00  0.00    +0.000 A 
ATOM     23  C   UNL     1      -2.534  12.310  20.214  0.00  0.00    +0.000 A 
ATOM     24  C   UNL     1      -3.876  12.698  20.101  0.00  0.00    +0.000 A 
ATOM     25  C   UNL     1      -4.641  12.272  19.015  0.00  0.00    +0.000 A 
ATOM     26  C   UNL     1      -4.063  11.456  18.042  0.00  0.00    +0.000 A 
ATOM     27  C   UNL     1      -2.722  11.073  18.169  0.00  0.00    +0.000 A 
ATOM     28  H   UNL     1      -0.325   9.280  16.740  0.00  0.00    +0.000 HD
ENDBRANCH  16  20
ENDBRANCH   1  16
TORSDOF 5
ENDMDL
