MODEL 1
REMARK VINA RESULT:      -9.6      0.000      0.000
REMARK  Name = 
REMARK  5 active torsions:
REMARK  status: ('A' for Active; 'I' for Inactive)
REMARK    1  A    between atoms: C_2  and  C_18
REMARK    2  A    between atoms: N_3  and  C_4
REMARK    3  A    between atoms: C_4  and  C_5
REMARK    4  A    between atoms: C_12  and  C_13
REMARK    5  A    between atoms: C_21  and  C_22
REMARK                            x       y       z     vdW  Elec       q    Type
REMARK                         _______ _______ _______ _____ _____    ______ ____
ROOT
ATOM      1  O   UNL     1       2.904   5.404  20.319  0.00  0.00    +0.000 OA
ATOM      2  C   UNL     1       2.756   5.965  19.240  0.00  0.00    +0.000 C 
ATOM      3  N   UNL     1       3.103   5.389  18.042  0.00  0.00    +0.000 N 
ATOM      4  H   UNL     1       3.140   5.926  17.181  0.00  0.00    +0.000 HD
ENDROOT
BRANCH   2   5
ATOM      5  C   UNL     1       2.208   7.345  19.192  0.00  0.00    +0.000 A 
ATOM      6  C   UNL     1       2.336   8.073  18.008  0.00  0.00    +0.000 A 
ATOM      7  C   UNL     1       1.854   9.385  17.930  0.00  0.00    +0.000 A 
ATOM      8  C   UNL     1       1.234  10.007  19.029  0.00  0.00    +0.000 A 
ATOM      9  C   UNL     1       1.127   9.250  20.214  0.00  0.00    +0.000 A 
ATOM     10  C   UNL     1       1.612   7.939  20.302  0.00  0.00    +0.000 A 
BRANCH   8  11
ATOM     11  C   UNL     1       0.706  11.393  18.950  0.00  0.00    +0.000 A 
ATOM     12  C   UNL     1       1.554  12.497  18.739  0.00  0.00    +0.000 A 
ATOM     13  C   UNL     1       1.053  13.800  18.634  0.00  0.00    +0.000 A 
ATOM     14  C   UNL     1      -0.316  14.030  18.727  0.00  0.00    +0.000 A 
ATOM     15  C   UNL     1      -1.179  12.962  18.945  0.00  0.00    +0.000 A 
ATOM     16  C   UNL     1      -0.671  11.664  19.066  0.00  0.00    +0.000 A 
ENDBRANCH   8  11
ENDBRANCH   2   5
BRANCH   3  17
ATOM     17  C   UNL     1       3.725   4.078  18.026  0.00  0.00    +0.000 C 
BRANCH  17  18
ATOM     18  C   UNL     1       5.145   4.094  18.609  0.00  0.00    +0.000 C 
ATOM     19  O   UNL     1       5.477   3.257  19.454  0.00  0.00    +0.000 OA
ATOM     20  N   UNL     1       6.006   5.100  18.170  0.00  0.00    +0.000 N 
ATOM     21  C   UNL     1       7.401   5.075  18.616  0.00  0.00    +0.000 C 
ATOM     22  C   UNL     1       7.995   6.471  18.803  0.00  0.00    +0.000 C 
ATOM     23  C   UNL     1       7.694   7.433  17.657  0.00  0.00    +0.000 C 
ATOM     24  C   UNL     1       6.219   7.392  17.266  0.00  0.00    +0.000 C 
ATOM     25  C   UNL     1       5.711   5.969  17.010  0.00  0.00    +0.000 C 
BRANCH  25  26
ATOM     26  C   UNL     1       6.247   5.354  15.734  0.00  0.00    +0.000 A 
ATOM     27  N   UNL     1       5.555   4.415  15.003  0.00  0.00    +0.000 NA
ATOM     28  C   UNL     1       6.342   4.175  13.985  0.00  0.00    +0.000 A 
ATOM     29  N   UNL     1       7.467   4.934  14.100  0.00  0.00    +0.000 N 
ATOM     30  N   UNL     1       7.429   5.695  15.205  0.00  0.00    +0.000 NA
ATOM     31  H   UNL     1       8.269   4.981  13.483  0.00  0.00    +0.000 HD
ENDBRANCH  25  26
ENDBRANCH  17  18
ENDBRANCH   3  17
TORSDOF 5
ENDMDL
MODEL 2
REMARK VINA RESULT:      -9.5      0.377      1.146
REMARK  Name = 
REMARK  5 active torsions:
REMARK  status: ('A' for Active; 'I' for Inactive)
REMARK    1  A    between atoms: C_2  and  C_18
REMARK    2  A    between atoms: N_3  and  C_4
REMARK    3  A    between atoms: C_4  and  C_5
REMARK    4  A    between atoms: C_12  and  C_13
REMARK    5  A    between atoms: C_21  and  C_22
REMARK                            x       y       z     vdW  Elec       q    Type
REMARK                         _______ _______ _______ _____ _____    ______ ____
ROOT
ATOM      1  O   UNL     1       2.530   5.410  20.357  0.00  0.00    +0.000 OA
ATOM      2  C   UNL     1       2.531   6.007  19.286  0.00  0.00    +0.000 C 
ATOM      3  N   UNL     1       2.997   5.451  18.119  0.00  0.00    +0.000 N 
ATOM      4  H   UNL     1       3.154   6.010  17.287  0.00  0.00    +0.000 HD
ENDROOT
BRANCH   2   5
ATOM      5  C   UNL     1       2.043   7.408  19.220  0.00  0.00    +0.000 A 
ATOM      6  C   UNL     1       2.189   8.109  18.020  0.00  0.00    +0.000 A 
ATOM      7  C   UNL     1       1.763   9.439  17.924  0.00  0.00    +0.000 A 
ATOM      8  C   UNL     1       1.184  10.107  19.019  0.00  0.00    +0.000 A 
ATOM      9  C   UNL     1       1.058   9.376  20.218  0.00  0.00    +0.000 A 
ATOM     10  C   UNL     1       1.487   8.047  20.325  0.00  0.00    +0.000 A 
BRANCH   8  11
ATOM     11  C   UNL     1       0.716  11.513  18.920  0.00  0.00    +0.000 A 
ATOM     12  C   UNL     1      -0.636  11.859  19.100  0.00  0.00    +0.000 A 
ATOM     13  C   UNL     1      -1.070  13.188  19.038  0.00  0.00    +0.000 A 
ATOM     14  C   UNL     1      -0.156  14.210  18.804  0.00  0.00    +0.000 A 
ATOM     15  C   UNL     1       1.186  13.901  18.613  0.00  0.00    +0.000 A 
ATOM     16  C   UNL     1       1.612  12.569  18.660  0.00  0.00    +0.000 A 
ENDBRANCH   8  11
ENDBRANCH   2   5
BRANCH   3  17
ATOM     17  C   UNL     1       3.568   4.117  18.134  0.00  0.00    +0.000 C 
BRANCH  17  18
ATOM     18  C   UNL     1       4.994   4.094  18.702  0.00  0.00    +0.000 C 
ATOM     19  O   UNL     1       5.295   3.287  19.587  0.00  0.00    +0.000 OA
ATOM     20  N   UNL     1       5.897   5.034  18.202  0.00  0.00    +0.000 N 
ATOM     21  C   UNL     1       7.294   4.964  18.636  0.00  0.00    +0.000 C 
ATOM     22  C   UNL     1       7.956   6.338  18.743  0.00  0.00    +0.000 C 
ATOM     23  C   UNL     1       7.687   7.252  17.552  0.00  0.00    +0.000 C 
ATOM     24  C   UNL     1       6.208   7.263  17.177  0.00  0.00    +0.000 C 
ATOM     25  C   UNL     1       5.629   5.854  17.002  0.00  0.00    +0.000 C 
BRANCH  25  26
ATOM     26  C   UNL     1       6.120   5.149  15.754  0.00  0.00    +0.000 A 
ATOM     27  N   UNL     1       7.171   5.611  14.992  0.00  0.00    +0.000 NA
ATOM     28  C   UNL     1       7.283   4.713  14.047  0.00  0.00    +0.000 A 
ATOM     29  N   UNL     1       6.336   3.751  14.225  0.00  0.00    +0.000 N 
ATOM     30  N   UNL     1       5.584   4.006  15.308  0.00  0.00    +0.000 NA
ATOM     31  H   UNL     1       6.154   2.925  13.669  0.00  0.00    +0.000 HD
ENDBRANCH  25  26
ENDBRANCH  17  18
ENDBRANCH   3  17
TORSDOF 5
ENDMDL
MODEL 3
REMARK VINA RESULT:      -9.2      0.850      1.561
REMARK  Name = 
REMARK  5 active torsions:
REMARK  status: ('A' for Active; 'I' for Inactive)
REMARK    1  A    between atoms: C_2  and  C_18
REMARK    2  A    between atoms: N_3  and  C_4
REMARK    3  A    between atoms: C_4  and  C_5
REMARK    4  A    between atoms: C_12  and  C_13
REMARK    5  A    between atoms: C_21  and  C_22
REMARK                            x       y       z     vdW  Elec       q    Type
REMARK                         _______ _______ _______ _____ _____    ______ ____
ROOT
ATOM      1  O   UNL     1       2.783   5.165  20.589  0.00  0.00    +0.000 OA
ATOM      2  C   UNL     1       2.621   5.807  19.559  0.00  0.00    +0.000 C 
ATOM      3  N   UNL     1       2.977   5.335  18.318  0.00  0.00    +0.000 N 
ATOM      4  H   UNL     1       3.001   5.940  17.503  0.00  0.00    +0.000 HD
ENDROOT
BRANCH   2   5
ATOM      5  C   UNL     1       2.048   7.175  19.622  0.00  0.00    +0.000 A 
ATOM      6  C   UNL     1       1.484   7.608  20.823  0.00  0.00    +0.000 A 
ATOM      7  C   UNL     1       0.912   8.883  20.917  0.00  0.00    +0.000 A 
ATOM      8  C   UNL     1       0.886   9.759  19.816  0.00  0.00    +0.000 A 
ATOM      9  C   UNL     1       1.455   9.291  18.614  0.00  0.00    +0.000 A 
ATOM     10  C   UNL     1       2.023   8.015  18.510  0.00  0.00    +0.000 A 
BRANCH   8  11
ATOM     11  C   UNL     1       0.294  11.118  19.911  0.00  0.00    +0.000 A 
ATOM     12  C   UNL     1      -0.848  11.482  19.173  0.00  0.00    +0.000 A 
ATOM     13  C   UNL     1      -1.423  12.753  19.287  0.00  0.00    +0.000 A 
ATOM     14  C   UNL     1      -0.873  13.692  20.154  0.00  0.00    +0.000 A 
ATOM     15  C   UNL     1       0.261  13.367  20.890  0.00  0.00    +0.000 A 
ATOM     16  C   UNL     1       0.841  12.101  20.760  0.00  0.00    +0.000 A 
ENDBRANCH   8  11
ENDBRANCH   2   5
BRANCH   3  17
ATOM     17  C   UNL     1       3.623   4.041  18.198  0.00  0.00    +0.000 C 
BRANCH  17  18
ATOM     18  C   UNL     1       5.059   4.049  18.739  0.00  0.00    +0.000 C 
ATOM     19  O   UNL     1       5.396   3.246  19.615  0.00  0.00    +0.000 OA
ATOM     20  N   UNL     1       5.931   5.010  18.226  0.00  0.00    +0.000 N 
ATOM     21  C   UNL     1       7.338   4.971  18.633  0.00  0.00    +0.000 C 
ATOM     22  C   UNL     1       7.970   6.359  18.734  0.00  0.00    +0.000 C 
ATOM     23  C   UNL     1       7.659   7.271  17.551  0.00  0.00    +0.000 C 
ATOM     24  C   UNL     1       6.172   7.249  17.204  0.00  0.00    +0.000 C 
ATOM     25  C   UNL     1       5.623   5.829  17.034  0.00  0.00    +0.000 C 
BRANCH  25  26
ATOM     26  C   UNL     1       6.106   5.139  15.775  0.00  0.00    +0.000 A 
ATOM     27  N   UNL     1       7.208   5.559  15.062  0.00  0.00    +0.000 NA
ATOM     28  C   UNL     1       7.291   4.692  14.086  0.00  0.00    +0.000 A 
ATOM     29  N   UNL     1       6.279   3.788  14.200  0.00  0.00    +0.000 N 
ATOM     30  N   UNL     1       5.512   4.051  15.270  0.00  0.00    +0.000 NA
ATOM     31  H   UNL     1       6.062   2.996  13.607  0.00  0.00    +0.000 HD
ENDBRANCH  25  26
ENDBRANCH  17  18
ENDBRANCH   3  17
TORSDOF 5
ENDMDL
MODEL 4
REMARK VINA RESULT:      -9.1      1.888      2.462
REMARK  Name = 
REMARK  5 active torsions:
REMARK  status: ('A' for Active; 'I' for Inactive)
REMARK    1  A    between atoms: C_2  and  C_18
REMARK    2  A    between atoms: N_3  and  C_4
REMARK    3  A    between atoms: C_4  and  C_5
REMARK    4  A    between atoms: C_12  and  C_13
REMARK    5  A    between atoms: C_21  and  C_22
REMARK                            x       y       z     vdW  Elec       q    Type
REMARK                         _______ _______ _______ _____ _____    ______ ____
ROOT
ATOM      1  O   UNL     1       2.926   8.329  17.112  0.00  0.00    +0.000 OA
ATOM      2  C   UNL     1       2.291   7.932  18.082  0.00  0.00    +0.000 C 
ATOM      3  N   UNL     1       2.314   6.625  18.507  0.00  0.00    +0.000 N 
ATOM      4  H   UNL     1       1.653   6.276  19.195  0.00  0.00    +0.000 HD
ENDROOT
BRANCH   2   5
ATOM      5  C   UNL     1       1.421   8.872  18.833  0.00  0.00    +0.000 A 
ATOM      6  C   UNL     1       1.322   8.728  20.218  0.00  0.00    +0.000 A 
ATOM      7  C   UNL     1       0.494   9.579  20.960  0.00  0.00    +0.000 A 
ATOM      8  C   UNL     1      -0.257  10.595  20.341  0.00  0.00    +0.000 A 
ATOM      9  C   UNL     1      -0.144  10.711  18.941  0.00  0.00    +0.000 A 
ATOM     10  C   UNL     1       0.677   9.859  18.191  0.00  0.00    +0.000 A 
BRANCH   8  11
ATOM     11  C   UNL     1      -1.127  11.512  21.123  0.00  0.00    +0.000 A 
ATOM     12  C   UNL     1      -1.230  11.421  22.524  0.00  0.00    +0.000 A 
ATOM     13  C   UNL     1      -2.025  12.305  23.261  0.00  0.00    +0.000 A 
ATOM     14  C   UNL     1      -2.731  13.314  22.614  0.00  0.00    +0.000 A 
ATOM     15  C   UNL     1      -2.658  13.425  21.230  0.00  0.00    +0.000 A 
ATOM     16  C   UNL     1      -1.874  12.528  20.496  0.00  0.00    +0.000 A 
ENDBRANCH   8  11
ENDBRANCH   2   5
BRANCH   3  17
ATOM     17  C   UNL     1       3.074   5.638  17.763  0.00  0.00    +0.000 C 
BRANCH  17  18
ATOM     18  C   UNL     1       4.228   5.045  18.583  0.00  0.00    +0.000 C 
ATOM     19  O   UNL     1       4.005   4.164  19.419  0.00  0.00    +0.000 OA
ATOM     20  N   UNL     1       5.504   5.566  18.363  0.00  0.00    +0.000 N 
ATOM     21  C   UNL     1       6.643   4.944  19.042  0.00  0.00    +0.000 C 
ATOM     22  C   UNL     1       7.736   5.945  19.415  0.00  0.00    +0.000 C 
ATOM     23  C   UNL     1       8.095   6.919  18.297  0.00  0.00    +0.000 C 
ATOM     24  C   UNL     1       6.847   7.518  17.654  0.00  0.00    +0.000 C 
ATOM     25  C   UNL     1       5.830   6.454  17.227  0.00  0.00    +0.000 C 
BRANCH  25  26
ATOM     26  C   UNL     1       6.272   5.641  16.026  0.00  0.00    +0.000 A 
ATOM     27  N   UNL     1       5.477   4.687  15.430  0.00  0.00    +0.000 NA
ATOM     28  C   UNL     1       6.210   4.255  14.436  0.00  0.00    +0.000 A 
ATOM     29  N   UNL     1       7.400   4.915  14.435  0.00  0.00    +0.000 N 
ATOM     30  N   UNL     1       7.462   5.805  15.438  0.00  0.00    +0.000 NA
ATOM     31  H   UNL     1       8.184   4.813  13.802  0.00  0.00    +0.000 HD
ENDBRANCH  25  26
ENDBRANCH  17  18
ENDBRANCH   3  17
TORSDOF 5
ENDMDL
MODEL 5
REMARK VINA RESULT:      -9.1      1.856      2.273
REMARK  Name = 
REMARK  5 active torsions:
REMARK  status: ('A' for Active; 'I' for Inactive)
REMARK    1  A    between atoms: C_2  and  C_18
REMARK    2  A    between atoms: N_3  and  C_4
REMARK    3  A    between atoms: C_4  and  C_5
REMARK    4  A    between atoms: C_12  and  C_13
REMARK    5  A    between atoms: C_21  and  C_22
REMARK                            x       y       z     vdW  Elec       q    Type
REMARK                         _______ _______ _______ _____ _____    ______ ____
ROOT
ATOM      1  O   UNL     1       3.329   8.199  17.673  0.00  0.00    +0.000 OA
ATOM      2  C   UNL     1       2.476   7.724  18.413  0.00  0.00    +0.000 C 
ATOM      3  N   UNL     1       2.299   6.371  18.580  0.00  0.00    +0.000 N 
ATOM      4  H   UNL     1       1.484   5.994  19.052  0.00  0.00    +0.000 HD
ENDROOT
BRANCH   2   5
ATOM      5  C   UNL     1       1.552   8.622  19.151  0.00  0.00    +0.000 A 
ATOM      6  C   UNL     1       0.948   9.673  18.458  0.00  0.00    +0.000 A 
ATOM      7  C   UNL     1       0.089  10.556  19.123  0.00  0.00    +0.000 A 
ATOM      8  C   UNL     1      -0.190  10.417  20.495  0.00  0.00    +0.000 A 
ATOM      9  C   UNL     1       0.441   9.352  21.170  0.00  0.00    +0.000 A 
ATOM     10  C   UNL     1       1.307   8.468  20.513  0.00  0.00    +0.000 A 
BRANCH   8  11
ATOM     11  C   UNL     1      -1.112  11.341  21.205  0.00  0.00    +0.000 A 
ATOM     12  C   UNL     1      -1.912  12.268  20.510  0.00  0.00    +0.000 A 
ATOM     13  C   UNL     1      -2.802  13.116  21.178  0.00  0.00    +0.000 A 
ATOM     14  C   UNL     1      -2.923  13.051  22.562  0.00  0.00    +0.000 A 
ATOM     15  C   UNL     1      -2.140  12.152  23.278  0.00  0.00    +0.000 A 
ATOM     16  C   UNL     1      -1.239  11.318  22.607  0.00  0.00    +0.000 A 
ENDBRANCH   8  11
ENDBRANCH   2   5
BRANCH   3  17
ATOM     17  C   UNL     1       3.111   5.439  17.820  0.00  0.00    +0.000 C 
BRANCH  17  18
ATOM     18  C   UNL     1       4.323   4.932  18.613  0.00  0.00    +0.000 C 
ATOM     19  O   UNL     1       4.175   4.075  19.490  0.00  0.00    +0.000 OA
ATOM     20  N   UNL     1       5.563   5.503  18.322  0.00  0.00    +0.000 N 
ATOM     21  C   UNL     1       6.756   4.962  18.976  0.00  0.00    +0.000 C 
ATOM     22  C   UNL     1       7.814   6.026  19.266  0.00  0.00    +0.000 C 
ATOM     23  C   UNL     1       8.082   6.971  18.099  0.00  0.00    +0.000 C 
ATOM     24  C   UNL     1       6.782   7.486  17.486  0.00  0.00    +0.000 C 
ATOM     25  C   UNL     1       5.802   6.360  17.141  0.00  0.00    +0.000 C 
BRANCH  25  26
ATOM     26  C   UNL     1       6.234   5.523  15.954  0.00  0.00    +0.000 A 
ATOM     27  N   UNL     1       5.448   4.535  15.404  0.00  0.00    +0.000 NA
ATOM     28  C   UNL     1       6.167   4.089  14.406  0.00  0.00    +0.000 A 
ATOM     29  N   UNL     1       7.343   4.775  14.359  0.00  0.00    +0.000 N 
ATOM     30  N   UNL     1       7.408   5.695  15.334  0.00  0.00    +0.000 NA
ATOM     31  H   UNL     1       8.115   4.671  13.711  0.00  0.00    +0.000 HD
ENDBRANCH  25  26
ENDBRANCH  17  18
ENDBRANCH   3  17
TORSDOF 5
ENDMDL
MODEL 6
REMARK VINA RESULT:      -9.0      1.868      2.540
REMARK  Name = 
REMARK  5 active torsions:
REMARK  status: ('A' for Active; 'I' for Inactive)
REMARK    1  A    between atoms: C_2  and  C_18
REMARK    2  A    between atoms: N_3  and  C_4
REMARK    3  A    between atoms: C_4  and  C_5
REMARK    4  A    between atoms: C_12  and  C_13
REMARK    5  A    between atoms: C_21  and  C_22
REMARK                            x       y       z     vdW  Elec       q    Type
REMARK                         _______ _______ _______ _____ _____    ______ ____
ROOT
ATOM      1  O   UNL     1       2.968   8.258  17.226  0.00  0.00    +0.000 OA
ATOM      2  C   UNL     1       2.281   7.883  18.169  0.00  0.00    +0.000 C 
ATOM      3  N   UNL     1       2.244   6.578  18.596  0.00  0.00    +0.000 N 
ATOM      4  H   UNL     1       1.545   6.252  19.256  0.00  0.00    +0.000 HD
ENDROOT
BRANCH   2   5
ATOM      5  C   UNL     1       1.412   8.853  18.882  0.00  0.00    +0.000 A 
ATOM      6  C   UNL     1       1.221   8.692  20.256  0.00  0.00    +0.000 A 
ATOM      7  C   UNL     1       0.389   9.572  20.961  0.00  0.00    +0.000 A 
ATOM      8  C   UNL     1      -0.273  10.632  20.317  0.00  0.00    +0.000 A 
ATOM      9  C   UNL     1      -0.067  10.764  18.928  0.00  0.00    +0.000 A 
ATOM     10  C   UNL     1       0.757   9.885  18.214  0.00  0.00    +0.000 A 
BRANCH   8  11
ATOM     11  C   UNL     1      -1.145  11.578  21.060  0.00  0.00    +0.000 A 
ATOM     12  C   UNL     1      -2.015  12.462  20.394  0.00  0.00    +0.000 A 
ATOM     13  C   UNL     1      -2.858  13.331  21.096  0.00  0.00    +0.000 A 
ATOM     14  C   UNL     1      -2.860  13.330  22.487  0.00  0.00    +0.000 A 
ATOM     15  C   UNL     1      -2.005  12.475  23.174  0.00  0.00    +0.000 A 
ATOM     16  C   UNL     1      -1.152  11.620  22.467  0.00  0.00    +0.000 A 
ENDBRANCH   8  11
ENDBRANCH   2   5
BRANCH   3  17
ATOM     17  C   UNL     1       3.002   5.565  17.886  0.00  0.00    +0.000 C 
BRANCH  17  18
ATOM     18  C   UNL     1       4.190   5.038  18.702  0.00  0.00    +0.000 C 
ATOM     19  O   UNL     1       4.001   4.240  19.626  0.00  0.00    +0.000 OA
ATOM     20  N   UNL     1       5.457   5.525  18.377  0.00  0.00    +0.000 N 
ATOM     21  C   UNL     1       6.623   4.957  19.057  0.00  0.00    +0.000 C 
ATOM     22  C   UNL     1       7.738   5.977  19.285  0.00  0.00    +0.000 C 
ATOM     23  C   UNL     1       8.050   6.841  18.066  0.00  0.00    +0.000 C 
ATOM     24  C   UNL     1       6.775   7.390  17.429  0.00  0.00    +0.000 C 
ATOM     25  C   UNL     1       5.735   6.301  17.149  0.00  0.00    +0.000 C 
BRANCH  25  26
ATOM     26  C   UNL     1       6.115   5.378  16.010  0.00  0.00    +0.000 A 
ATOM     27  N   UNL     1       7.147   5.645  15.137  0.00  0.00    +0.000 NA
ATOM     28  C   UNL     1       7.155   4.605  14.343  0.00  0.00    +0.000 A 
ATOM     29  N   UNL     1       6.166   3.747  14.717  0.00  0.00    +0.000 N 
ATOM     30  N   UNL     1       5.491   4.217  15.778  0.00  0.00    +0.000 NA
ATOM     31  H   UNL     1       5.907   2.857  14.309  0.00  0.00    +0.000 HD
ENDBRANCH  25  26
ENDBRANCH  17  18
ENDBRANCH   3  17
TORSDOF 5
ENDMDL
MODEL 7
REMARK VINA RESULT:      -9.0      2.856      4.246
REMARK  Name = 
REMARK  5 active torsions:
REMARK  status: ('A' for Active; 'I' for Inactive)
REMARK    1  A    between atoms: C_2  and  C_18
REMARK    2  A    between atoms: N_3  and  C_4
REMARK    3  A    between atoms: C_4  and  C_5
REMARK    4  A    between atoms: C_12  and  C_13
REMARK    5  A    between atoms: C_21  and  C_22
REMARK                            x       y       z     vdW  Elec       q    Type
REMARK                         _______ _______ _______ _____ _____    ______ ____
ROOT
ATOM      1  O   UNL     1       1.409   6.585  21.269  0.00  0.00    +0.000 OA
ATOM      2  C   UNL     1       1.412   7.646  20.657  0.00  0.00    +0.000 C 
ATOM      3  N   UNL     1       2.084   7.825  19.472  0.00  0.00    +0.000 N 
ATOM      4  H   UNL     1       2.223   8.748  19.071  0.00  0.00    +0.000 HD
ENDROOT
BRANCH   2   5
ATOM      5  C   UNL     1       0.694   8.822  21.211  0.00  0.00    +0.000 A 
ATOM      6  C   UNL     1       0.121   8.717  22.480  0.00  0.00    +0.000 A 
ATOM      7  C   UNL     1      -0.585   9.795  23.028  0.00  0.00    +0.000 A 
ATOM      8  C   UNL     1      -0.739  11.005  22.326  0.00  0.00    +0.000 A 
ATOM      9  C   UNL     1      -0.156  11.078  21.044  0.00  0.00    +0.000 A 
ATOM     10  C   UNL     1       0.545  10.002  20.486  0.00  0.00    +0.000 A 
BRANCH   8  11
ATOM     11  C   UNL     1      -1.473  12.159  22.906  0.00  0.00    +0.000 A 
ATOM     12  C   UNL     1      -0.904  13.446  22.964  0.00  0.00    +0.000 A 
ATOM     13  C   UNL     1      -1.609  14.538  23.483  0.00  0.00    +0.000 A 
ATOM     14  C   UNL     1      -2.909  14.372  23.948  0.00  0.00    +0.000 A 
ATOM     15  C   UNL     1      -3.496  13.112  23.914  0.00  0.00    +0.000 A 
ATOM     16  C   UNL     1      -2.781  12.020  23.409  0.00  0.00    +0.000 A 
ENDBRANCH   8  11
ENDBRANCH   2   5
BRANCH   3  17
ATOM     17  C   UNL     1       2.877   6.742  18.922  0.00  0.00    +0.000 C 
BRANCH  17  18
ATOM     18  C   UNL     1       3.531   7.111  17.584  0.00  0.00    +0.000 C 
ATOM     19  O   UNL     1       3.233   8.169  17.020  0.00  0.00    +0.000 OA
ATOM     20  N   UNL     1       4.430   6.195  17.036  0.00  0.00    +0.000 N 
ATOM     21  C   UNL     1       5.159   6.567  15.822  0.00  0.00    +0.000 C 
ATOM     22  C   UNL     1       5.426   5.380  14.897  0.00  0.00    +0.000 C 
ATOM     23  C   UNL     1       5.945   4.137  15.615  0.00  0.00    +0.000 C 
ATOM     24  C   UNL     1       5.122   3.827  16.863  0.00  0.00    +0.000 C 
ATOM     25  C   UNL     1       4.966   5.039  17.787  0.00  0.00    +0.000 C 
BRANCH  25  26
ATOM     26  C   UNL     1       6.242   5.419  18.510  0.00  0.00    +0.000 A 
ATOM     27  N   UNL     1       7.143   6.336  18.015  0.00  0.00    +0.000 NA
ATOM     28  C   UNL     1       8.067   6.390  18.940  0.00  0.00    +0.000 A 
ATOM     29  N   UNL     1       7.742   5.536  19.949  0.00  0.00    +0.000 N 
ATOM     30  N   UNL     1       6.582   4.907  19.699  0.00  0.00    +0.000 NA
ATOM     31  H   UNL     1       8.245   5.342  20.806  0.00  0.00    +0.000 HD
ENDBRANCH  25  26
ENDBRANCH  17  18
ENDBRANCH   3  17
TORSDOF 5
ENDMDL
MODEL 8
REMARK VINA RESULT:      -8.9      1.877      2.366
REMARK  Name = 
REMARK  5 active torsions:
REMARK  status: ('A' for Active; 'I' for Inactive)
REMARK    1  A    between atoms: C_2  and  C_18
REMARK    2  A    between atoms: N_3  and  C_4
REMARK    3  A    between atoms: C_4  and  C_5
REMARK    4  A    between atoms: C_12  and  C_13
REMARK    5  A    between atoms: C_21  and  C_22
REMARK                            x       y       z     vdW  Elec       q    Type
REMARK                         _______ _______ _______ _____ _____    ______ ____
ROOT
ATOM      1  O   UNL     1       3.191   8.192  17.627  0.00  0.00    +0.000 OA
ATOM      2  C   UNL     1       2.382   7.745  18.432  0.00  0.00    +0.000 C 
ATOM      3  N   UNL     1       2.228   6.400  18.670  0.00  0.00    +0.000 N 
ATOM      4  H   UNL     1       1.442   6.039  19.201  0.00  0.00    +0.000 HD
ENDROOT
BRANCH   2   5
ATOM      5  C   UNL     1       1.490   8.670  19.176  0.00  0.00    +0.000 A 
ATOM      6  C   UNL     1       0.919   9.743  18.489  0.00  0.00    +0.000 A 
ATOM      7  C   UNL     1       0.091  10.651  19.160  0.00  0.00    +0.000 A 
ATOM      8  C   UNL     1      -0.190  10.515  20.532  0.00  0.00    +0.000 A 
ATOM      9  C   UNL     1       0.408   9.426  21.200  0.00  0.00    +0.000 A 
ATOM     10  C   UNL     1       1.243   8.517  20.538  0.00  0.00    +0.000 A 
BRANCH   8  11
ATOM     11  C   UNL     1      -1.079  11.465  21.248  0.00  0.00    +0.000 A 
ATOM     12  C   UNL     1      -1.056  11.588  22.650  0.00  0.00    +0.000 A 
ATOM     13  C   UNL     1      -1.872  12.505  23.321  0.00  0.00    +0.000 A 
ATOM     14  C   UNL     1      -2.728  13.334  22.602  0.00  0.00    +0.000 A 
ATOM     15  C   UNL     1      -2.781  13.231  21.217  0.00  0.00    +0.000 A 
ATOM     16  C   UNL     1      -1.975  12.300  20.552  0.00  0.00    +0.000 A 
ENDBRANCH   8  11
ENDBRANCH   2   5
BRANCH   3  17
ATOM     17  C   UNL     1       3.007   5.440  17.911  0.00  0.00    +0.000 C 
BRANCH  17  18
ATOM     18  C   UNL     1       4.234   4.936  18.684  0.00  0.00    +0.000 C 
ATOM     19  O   UNL     1       4.098   4.104  19.586  0.00  0.00    +0.000 OA
ATOM     20  N   UNL     1       5.473   5.482  18.345  0.00  0.00    +0.000 N 
ATOM     21  C   UNL     1       6.676   4.939  18.981  0.00  0.00    +0.000 C 
ATOM     22  C   UNL     1       7.756   5.996  19.215  0.00  0.00    +0.000 C 
ATOM     23  C   UNL     1       8.005   6.907  18.017  0.00  0.00    +0.000 C 
ATOM     24  C   UNL     1       6.696   7.425  17.426  0.00  0.00    +0.000 C 
ATOM     25  C   UNL     1       5.691   6.305  17.136  0.00  0.00    +0.000 C 
BRANCH  25  26
ATOM     26  C   UNL     1       6.080   5.431  15.961  0.00  0.00    +0.000 A 
ATOM     27  N   UNL     1       7.224   5.632  15.220  0.00  0.00    +0.000 NA
ATOM     28  C   UNL     1       7.194   4.664  14.340  0.00  0.00    +0.000 A 
ATOM     29  N   UNL     1       6.075   3.913  14.536  0.00  0.00    +0.000 N 
ATOM     30  N   UNL     1       5.350   4.381  15.565  0.00  0.00    +0.000 NA
ATOM     31  H   UNL     1       5.758   3.097  14.026  0.00  0.00    +0.000 HD
ENDBRANCH  25  26
ENDBRANCH  17  18
ENDBRANCH   3  17
TORSDOF 5
ENDMDL
MODEL 9
REMARK VINA RESULT:      -8.7      2.157      2.804
REMARK  Name = 
REMARK  5 active torsions:
REMARK  status: ('A' for Active; 'I' for Inactive)
REMARK    1  A    between atoms: C_2  and  C_18
REMARK    2  A    between atoms: N_3  and  C_4
REMARK    3  A    between atoms: C_4  and  C_5
REMARK    4  A    between atoms: C_12  and  C_13
REMARK    5  A    between atoms: C_21  and  C_22
REMARK                            x       y       z     vdW  Elec       q    Type
REMARK                         _______ _______ _______ _____ _____    ______ ____
ROOT
ATOM      1  O   UNL     1       2.710   8.318  17.547  0.00  0.00    +0.000 OA
ATOM      2  C   UNL     1       2.193   7.996  18.610  0.00  0.00    +0.000 C 
ATOM      3  N   UNL     1       2.212   6.710  19.093  0.00  0.00    +0.000 N 
ATOM      4  H   UNL     1       1.635   6.425  19.878  0.00  0.00    +0.000 HD
ENDROOT
BRANCH   2   5
ATOM      5  C   UNL     1       1.476   9.012  19.423  0.00  0.00    +0.000 A 
ATOM      6  C   UNL     1       1.248   8.745  20.774  0.00  0.00    +0.000 A 
ATOM      7  C   UNL     1       0.555   9.667  21.568  0.00  0.00    +0.000 A 
ATOM      8  C   UNL     1       0.071  10.877  21.038  0.00  0.00    +0.000 A 
ATOM      9  C   UNL     1       0.309  11.114  19.669  0.00  0.00    +0.000 A 
ATOM     10  C   UNL     1       0.995  10.194  18.866  0.00  0.00    +0.000 A 
BRANCH   8  11
ATOM     11  C   UNL     1      -0.652  11.867  21.877  0.00  0.00    +0.000 A 
ATOM     12  C   UNL     1      -1.772  11.505  22.650  0.00  0.00    +0.000 A 
ATOM     13  C   UNL     1      -2.433  12.431  23.464  0.00  0.00    +0.000 A 
ATOM     14  C   UNL     1      -1.983  13.745  23.534  0.00  0.00    +0.000 A 
ATOM     15  C   UNL     1      -0.885  14.137  22.776  0.00  0.00    +0.000 A 
ATOM     16  C   UNL     1      -0.237  13.211  21.951  0.00  0.00    +0.000 A 
ENDBRANCH   8  11
ENDBRANCH   2   5
BRANCH   3  17
ATOM     17  C   UNL     1       2.819   5.654  18.305  0.00  0.00    +0.000 C 
BRANCH  17  18
ATOM     18  C   UNL     1       4.060   5.054  18.980  0.00  0.00    +0.000 C 
ATOM     19  O   UNL     1       3.932   4.229  19.890  0.00  0.00    +0.000 OA
ATOM     20  N   UNL     1       5.307   5.507  18.547  0.00  0.00    +0.000 N 
ATOM     21  C   UNL     1       6.511   4.872  19.087  0.00  0.00    +0.000 C 
ATOM     22  C   UNL     1       7.682   5.843  19.237  0.00  0.00    +0.000 C 
ATOM     23  C   UNL     1       7.906   6.740  18.023  0.00  0.00    +0.000 C 
ATOM     24  C   UNL     1       6.598   7.358  17.536  0.00  0.00    +0.000 C 
ATOM     25  C   UNL     1       5.493   6.318  17.324  0.00  0.00    +0.000 C 
BRANCH  25  26
ATOM     26  C   UNL     1       5.722   5.425  16.122  0.00  0.00    +0.000 A 
ATOM     27  N   UNL     1       6.430   5.827  15.011  0.00  0.00    +0.000 NA
ATOM     28  C   UNL     1       6.416   4.770  14.239  0.00  0.00    +0.000 A 
ATOM     29  N   UNL     1       5.723   3.773  14.855  0.00  0.00    +0.000 N 
ATOM     30  N   UNL     1       5.273   4.166  16.057  0.00  0.00    +0.000 NA
ATOM     31  H   UNL     1       5.529   2.836  14.526  0.00  0.00    +0.000 HD
ENDBRANCH  25  26
ENDBRANCH  17  18
ENDBRANCH   3  17
TORSDOF 5
ENDMDL
