MODEL 1
REMARK VINA RESULT:      -9.2      0.000      0.000
REMARK  Name = 
REMARK  3 active torsions:
REMARK  status: ('A' for Active; 'I' for Inactive)
REMARK    1  A    between atoms: C_2  and  C_3
REMARK    2  A    between atoms: C_5  and  C_6
REMARK    3  A    between atoms: C_22  and  C_23
REMARK                            x       y       z     vdW  Elec       q    Type
REMARK                         _______ _______ _______ _____ _____    ______ ____
ROOT
ATOM      1  C   UNL     1       1.332  10.132  18.741  0.00  0.00    +0.000 A 
ATOM      2  C   UNL     1       1.333   8.746  19.041  0.00  0.00    +0.000 A 
ATOM      3  C   UNL     1       2.255   8.168  18.186  0.00  0.00    +0.000 A 
ATOM      4  N   UNL     1       2.732   9.209  17.442  0.00  0.00    +0.000 N 
ATOM      5  N   UNL     1       2.213  10.392  17.758  0.00  0.00    +0.000 NA
ATOM      6  H   UNL     1       3.438   9.192  16.717  0.00  0.00    +0.000 HD
ENDROOT
BRANCH   3   7
ATOM      7  C   UNL     1       2.704   6.794  18.004  0.00  0.00    +0.000 A 
ATOM      8  C   UNL     1       3.967   6.550  17.469  0.00  0.00    +0.000 A 
ATOM      9  C   UNL     1       4.443   5.242  17.338  0.00  0.00    +0.000 A 
ATOM     10  C   UNL     1       3.651   4.154  17.721  0.00  0.00    +0.000 A 
ATOM     11  C   UNL     1       4.123   2.833  17.606  0.00  0.00    +0.000 A 
ATOM     12  C   UNL     1       3.327   1.758  17.993  0.00  0.00    +0.000 A 
ATOM     13  C   UNL     1       2.051   1.985  18.493  0.00  0.00    +0.000 A 
ATOM     14  C   UNL     1       1.564   3.282  18.622  0.00  0.00    +0.000 A 
ATOM     15  C   UNL     1       2.361   4.381  18.244  0.00  0.00    +0.000 A 
ATOM     16  C   UNL     1       1.901   5.704  18.378  0.00  0.00    +0.000 A 
ENDBRANCH   3   7
BRANCH   1  18
ATOM     17  O   UNL     1       0.082  12.126  18.784  0.00  0.00    +0.000 OA
ATOM     18  C   UNL     1       0.585  11.195  19.437  0.00  0.00    +0.000 C 
ATOM     19  N   UNL     1       0.448  11.123  20.830  0.00  0.00    +0.000 N 
ATOM     20  C   UNL     1       1.080  10.122  21.684  0.00  0.00    +0.000 C 
ATOM     21  C   UNL     1       0.026   9.338  22.451  0.00  0.00    +0.000 C 
ATOM     22  C   UNL     1      -0.875  10.283  23.246  0.00  0.00    +0.000 C 
ATOM     23  C   UNL     1      -1.452  11.417  22.368  0.00  0.00    +0.000 C 
ATOM     24  C   UNL     1      -0.352  12.111  21.548  0.00  0.00    +0.000 C 
BRANCH  23  25
ATOM     25  C   UNL     1      -2.217  12.421  23.205  0.00  0.00    +0.000 A 
ATOM     26  C   UNL     1      -1.698  13.694  23.437  0.00  0.00    +0.000 A 
ATOM     27  C   UNL     1      -2.434  14.596  24.200  0.00  0.00    +0.000 A 
ATOM     28  C   UNL     1      -3.665  14.209  24.714  0.00  0.00    +0.000 A 
ATOM     29  C   UNL     1      -4.108  12.927  24.445  0.00  0.00    +0.000 A 
ATOM     30  N   UNL     1      -3.415  12.030  23.709  0.00  0.00    +0.000 NA
ENDBRANCH  23  25
ENDBRANCH   1  18
TORSDOF 3
ENDMDL
MODEL 2
REMARK VINA RESULT:      -9.2      3.146      4.186
REMARK  Name = 
REMARK  3 active torsions:
REMARK  status: ('A' for Active; 'I' for Inactive)
REMARK    1  A    between atoms: C_2  and  C_3
REMARK    2  A    between atoms: C_5  and  C_6
REMARK    3  A    between atoms: C_22  and  C_23
REMARK                            x       y       z     vdW  Elec       q    Type
REMARK                         _______ _______ _______ _____ _____    ______ ____
ROOT
ATOM      1  C   UNL     1       0.771   9.896  18.975  0.00  0.00    +0.000 A 
ATOM      2  C   UNL     1       1.390   9.130  17.955  0.00  0.00    +0.000 A 
ATOM      3  C   UNL     1       2.021   8.077  18.593  0.00  0.00    +0.000 A 
ATOM      4  N   UNL     1       1.757   8.271  19.919  0.00  0.00    +0.000 N 
ATOM      5  N   UNL     1       1.004   9.338  20.177  0.00  0.00    +0.000 NA
ATOM      6  H   UNL     1       2.034   7.698  20.706  0.00  0.00    +0.000 HD
ENDROOT
BRANCH   3   7
ATOM      7  C   UNL     1       2.818   6.961  18.100  0.00  0.00    +0.000 A 
ATOM      8  C   UNL     1       2.350   5.659  18.263  0.00  0.00    +0.000 A 
ATOM      9  C   UNL     1       3.068   4.575  17.749  0.00  0.00    +0.000 A 
ATOM     10  C   UNL     1       4.282   4.778  17.081  0.00  0.00    +0.000 A 
ATOM     11  C   UNL     1       5.009   3.697  16.548  0.00  0.00    +0.000 A 
ATOM     12  C   UNL     1       6.213   3.910  15.883  0.00  0.00    +0.000 A 
ATOM     13  C   UNL     1       6.710   5.200  15.746  0.00  0.00    +0.000 A 
ATOM     14  C   UNL     1       6.007   6.286  16.260  0.00  0.00    +0.000 A 
ATOM     15  C   UNL     1       4.782   6.087  16.927  0.00  0.00    +0.000 A 
ATOM     16  C   UNL     1       4.041   7.167  17.442  0.00  0.00    +0.000 A 
ENDBRANCH   3   7
BRANCH   1  18
ATOM     17  O   UNL     1      -1.334  10.941  18.867  0.00  0.00    +0.000 OA
ATOM     18  C   UNL     1      -0.100  11.072  18.804  0.00  0.00    +0.000 C 
ATOM     19  N   UNL     1       0.491  12.325  18.586  0.00  0.00    +0.000 N 
ATOM     20  C   UNL     1       1.921  12.557  18.408  0.00  0.00    +0.000 C 
ATOM     21  C   UNL     1       2.441  13.510  19.473  0.00  0.00    +0.000 C 
ATOM     22  C   UNL     1       1.643  14.814  19.463  0.00  0.00    +0.000 C 
ATOM     23  C   UNL     1       0.118  14.567  19.533  0.00  0.00    +0.000 C 
ATOM     24  C   UNL     1      -0.332  13.526  18.494  0.00  0.00    +0.000 C 
BRANCH  23  25
ATOM     25  C   UNL     1      -0.653  15.861  19.371  0.00  0.00    +0.000 A 
ATOM     26  C   UNL     1      -0.351  16.742  18.334  0.00  0.00    +0.000 A 
ATOM     27  C   UNL     1      -1.090  17.916  18.208  0.00  0.00    +0.000 A 
ATOM     28  C   UNL     1      -2.106  18.183  19.116  0.00  0.00    +0.000 A 
ATOM     29  C   UNL     1      -2.339  17.262  20.121  0.00  0.00    +0.000 A 
ATOM     30  N   UNL     1      -1.638  16.116  20.269  0.00  0.00    +0.000 NA
ENDBRANCH  23  25
ENDBRANCH   1  18
TORSDOF 3
ENDMDL
MODEL 3
REMARK VINA RESULT:      -9.0      1.799      2.907
REMARK  Name = 
REMARK  3 active torsions:
REMARK  status: ('A' for Active; 'I' for Inactive)
REMARK    1  A    between atoms: C_2  and  C_3
REMARK    2  A    between atoms: C_5  and  C_6
REMARK    3  A    between atoms: C_22  and  C_23
REMARK                            x       y       z     vdW  Elec       q    Type
REMARK                         _______ _______ _______ _____ _____    ______ ____
ROOT
ATOM      1  C   UNL     1       1.095   9.224  20.383  0.00  0.00    +0.000 A 
ATOM      2  C   UNL     1       1.717   7.951  20.320  0.00  0.00    +0.000 A 
ATOM      3  C   UNL     1       2.159   7.802  19.017  0.00  0.00    +0.000 A 
ATOM      4  N   UNL     1       1.782   8.957  18.393  0.00  0.00    +0.000 N 
ATOM      5  N   UNL     1       1.159   9.829  19.183  0.00  0.00    +0.000 NA
ATOM      6  H   UNL     1       1.942   9.235  17.433  0.00  0.00    +0.000 HD
ENDROOT
BRANCH   3   7
ATOM      7  C   UNL     1       2.863   6.727  18.331  0.00  0.00    +0.000 A 
ATOM      8  C   UNL     1       2.373   5.426  18.410  0.00  0.00    +0.000 A 
ATOM      9  C   UNL     1       2.998   4.387  17.714  0.00  0.00    +0.000 A 
ATOM     10  C   UNL     1       4.140   4.632  16.943  0.00  0.00    +0.000 A 
ATOM     11  C   UNL     1       4.772   3.597  16.228  0.00  0.00    +0.000 A 
ATOM     12  C   UNL     1       5.906   3.853  15.462  0.00  0.00    +0.000 A 
ATOM     13  C   UNL     1       6.428   5.140  15.405  0.00  0.00    +0.000 A 
ATOM     14  C   UNL     1       5.818   6.180  16.099  0.00  0.00    +0.000 A 
ATOM     15  C   UNL     1       4.664   5.939  16.870  0.00  0.00    +0.000 A 
ATOM     16  C   UNL     1       4.017   6.974  17.569  0.00  0.00    +0.000 A 
ENDBRANCH   3   7
BRANCH   1  18
ATOM     17  O   UNL     1       0.995   9.616  22.701  0.00  0.00    +0.000 OA
ATOM     18  C   UNL     1       0.542   9.889  21.576  0.00  0.00    +0.000 C 
ATOM     19  N   UNL     1      -0.482  10.831  21.410  0.00  0.00    +0.000 N 
ATOM     20  C   UNL     1      -1.135  11.145  20.144  0.00  0.00    +0.000 C 
ATOM     21  C   UNL     1      -0.963  12.619  19.810  0.00  0.00    +0.000 C 
ATOM     22  C   UNL     1      -1.480  13.493  20.952  0.00  0.00    +0.000 C 
ATOM     23  C   UNL     1      -0.879  13.085  22.317  0.00  0.00    +0.000 C 
ATOM     24  C   UNL     1      -1.000  11.571  22.557  0.00  0.00    +0.000 C 
BRANCH  23  25
ATOM     25  C   UNL     1      -1.517  13.864  23.450  0.00  0.00    +0.000 A 
ATOM     26  C   UNL     1      -2.847  13.642  23.803  0.00  0.00    +0.000 A 
ATOM     27  C   UNL     1      -3.396  14.366  24.858  0.00  0.00    +0.000 A 
ATOM     28  C   UNL     1      -2.611  15.293  25.531  0.00  0.00    +0.000 A 
ATOM     29  C   UNL     1      -1.302  15.460  25.116  0.00  0.00    +0.000 A 
ATOM     30  N   UNL     1      -0.743  14.773  24.095  0.00  0.00    +0.000 NA
ENDBRANCH  23  25
ENDBRANCH   1  18
TORSDOF 3
ENDMDL
MODEL 4
REMARK VINA RESULT:      -8.9      1.866      2.743
REMARK  Name = 
REMARK  3 active torsions:
REMARK  status: ('A' for Active; 'I' for Inactive)
REMARK    1  A    between atoms: C_2  and  C_3
REMARK    2  A    between atoms: C_5  and  C_6
REMARK    3  A    between atoms: C_22  and  C_23
REMARK                            x       y       z     vdW  Elec       q    Type
REMARK                         _______ _______ _______ _____ _____    ______ ____
ROOT
ATOM      1  C   UNL     1      -0.163  11.105  18.872  0.00  0.00    +0.000 A 
ATOM      2  C   UNL     1       0.083   9.726  19.098  0.00  0.00    +0.000 A 
ATOM      3  C   UNL     1       1.377   9.490  18.668  0.00  0.00    +0.000 A 
ATOM      4  N   UNL     1       1.815  10.702  18.217  0.00  0.00    +0.000 N 
ATOM      5  N   UNL     1       0.927  11.686  18.338  0.00  0.00    +0.000 NA
ATOM      6  H   UNL     1       2.723  10.942  17.838  0.00  0.00    +0.000 HD
ENDROOT
BRANCH   3   7
ATOM      7  C   UNL     1       2.201   8.289  18.635  0.00  0.00    +0.000 A 
ATOM      8  C   UNL     1       2.097   7.356  19.663  0.00  0.00    +0.000 A 
ATOM      9  C   UNL     1       2.835   6.169  19.625  0.00  0.00    +0.000 A 
ATOM     10  C   UNL     1       3.709   5.908  18.563  0.00  0.00    +0.000 A 
ATOM     11  C   UNL     1       4.449   4.712  18.505  0.00  0.00    +0.000 A 
ATOM     12  C   UNL     1       5.313   4.462  17.443  0.00  0.00    +0.000 A 
ATOM     13  C   UNL     1       5.455   5.400  16.428  0.00  0.00    +0.000 A 
ATOM     14  C   UNL     1       4.730   6.588  16.460  0.00  0.00    +0.000 A 
ATOM     15  C   UNL     1       3.844   6.852  17.523  0.00  0.00    +0.000 A 
ATOM     16  C   UNL     1       3.087   8.037  17.574  0.00  0.00    +0.000 A 
ENDBRANCH   3   7
BRANCH   1  18
ATOM     17  O   UNL     1      -2.258  12.066  18.402  0.00  0.00    +0.000 OA
ATOM     18  C   UNL     1      -1.366  11.869  19.245  0.00  0.00    +0.000 C 
ATOM     19  N   UNL     1      -1.481  12.350  20.556  0.00  0.00    +0.000 N 
ATOM     20  C   UNL     1      -0.447  12.247  21.581  0.00  0.00    +0.000 C 
ATOM     21  C   UNL     1      -0.968  11.477  22.785  0.00  0.00    +0.000 C 
ATOM     22  C   UNL     1      -2.246  12.121  23.323  0.00  0.00    +0.000 C 
ATOM     23  C   UNL     1      -3.301  12.341  22.215  0.00  0.00    +0.000 C 
ATOM     24  C   UNL     1      -2.693  13.041  20.988  0.00  0.00    +0.000 C 
BRANCH  23  25
ATOM     25  C   UNL     1      -4.494  13.114  22.741  0.00  0.00    +0.000 A 
ATOM     26  C   UNL     1      -4.338  14.406  23.240  0.00  0.00    +0.000 A 
ATOM     27  C   UNL     1      -5.458  15.091  23.703  0.00  0.00    +0.000 A 
ATOM     28  C   UNL     1      -6.701  14.474  23.660  0.00  0.00    +0.000 A 
ATOM     29  C   UNL     1      -6.771  13.188  23.157  0.00  0.00    +0.000 A 
ATOM     30  N   UNL     1      -5.702  12.498  22.702  0.00  0.00    +0.000 NA
ENDBRANCH  23  25
ENDBRANCH   1  18
TORSDOF 3
ENDMDL
MODEL 5
REMARK VINA RESULT:      -8.8      1.112      1.180
REMARK  Name = 
REMARK  3 active torsions:
REMARK  status: ('A' for Active; 'I' for Inactive)
REMARK    1  A    between atoms: C_2  and  C_3
REMARK    2  A    between atoms: C_5  and  C_6
REMARK    3  A    between atoms: C_22  and  C_23
REMARK                            x       y       z     vdW  Elec       q    Type
REMARK                         _______ _______ _______ _____ _____    ______ ____
ROOT
ATOM      1  C   UNL     1       0.764  10.745  18.590  0.00  0.00    +0.000 A 
ATOM      2  C   UNL     1       0.693   9.329  18.591  0.00  0.00    +0.000 A 
ATOM      3  C   UNL     1       1.926   8.881  18.151  0.00  0.00    +0.000 A 
ATOM      4  N   UNL     1       2.640  10.021  17.914  0.00  0.00    +0.000 N 
ATOM      5  N   UNL     1       1.980  11.146  18.179  0.00  0.00    +0.000 NA
ATOM      6  H   UNL     1       3.597  10.109  17.597  0.00  0.00    +0.000 HD
ENDROOT
BRANCH   3   7
ATOM      7  C   UNL     1       2.471   7.547  17.935  0.00  0.00    +0.000 A 
ATOM      8  C   UNL     1       3.793   7.404  17.522  0.00  0.00    +0.000 A 
ATOM      9  C   UNL     1       4.356   6.134  17.363  0.00  0.00    +0.000 A 
ATOM     10  C   UNL     1       3.593   4.984  17.596  0.00  0.00    +0.000 A 
ATOM     11  C   UNL     1       4.151   3.699  17.452  0.00  0.00    +0.000 A 
ATOM     12  C   UNL     1       3.384   2.562  17.690  0.00  0.00    +0.000 A 
ATOM     13  C   UNL     1       2.053   2.689  18.067  0.00  0.00    +0.000 A 
ATOM     14  C   UNL     1       1.481   3.948  18.221  0.00  0.00    +0.000 A 
ATOM     15  C   UNL     1       2.246   5.109  17.994  0.00  0.00    +0.000 A 
ATOM     16  C   UNL     1       1.699   6.395  18.157  0.00  0.00    +0.000 A 
ENDBRANCH   3   7
BRANCH   1  18
ATOM     17  O   UNL     1      -1.000  12.262  18.240  0.00  0.00    +0.000 OA
ATOM     18  C   UNL     1      -0.264  11.691  19.061  0.00  0.00    +0.000 C 
ATOM     19  N   UNL     1      -0.394  11.915  20.439  0.00  0.00    +0.000 N 
ATOM     20  C   UNL     1       0.483  11.361  21.466  0.00  0.00    +0.000 C 
ATOM     21  C   UNL     1      -0.316  10.518  22.448  0.00  0.00    +0.000 C 
ATOM     22  C   UNL     1      -1.459  11.334  23.051  0.00  0.00    +0.000 C 
ATOM     23  C   UNL     1      -2.322  12.021  21.967  0.00  0.00    +0.000 C 
ATOM     24  C   UNL     1      -1.453  12.780  20.952  0.00  0.00    +0.000 C 
BRANCH  23  25
ATOM     25  C   UNL     1      -3.352  12.940  22.591  0.00  0.00    +0.000 A 
ATOM     26  C   UNL     1      -3.226  14.324  22.482  0.00  0.00    +0.000 A 
ATOM     27  C   UNL     1      -4.199  15.138  23.056  0.00  0.00    +0.000 A 
ATOM     28  C   UNL     1      -5.269  14.556  23.723  0.00  0.00    +0.000 A 
ATOM     29  C   UNL     1      -5.319  13.176  23.793  0.00  0.00    +0.000 A 
ATOM     30  N   UNL     1      -4.389  12.361  23.247  0.00  0.00    +0.000 NA
ENDBRANCH  23  25
ENDBRANCH   1  18
TORSDOF 3
ENDMDL
MODEL 6
REMARK VINA RESULT:      -8.6      3.548     10.702
REMARK  Name = 
REMARK  3 active torsions:
REMARK  status: ('A' for Active; 'I' for Inactive)
REMARK    1  A    between atoms: C_2  and  C_3
REMARK    2  A    between atoms: C_5  and  C_6
REMARK    3  A    between atoms: C_22  and  C_23
REMARK                            x       y       z     vdW  Elec       q    Type
REMARK                         _______ _______ _______ _____ _____    ______ ____
ROOT
ATOM      1  C   UNL     1       2.436   5.573  19.089  0.00  0.00    +0.000 A 
ATOM      2  C   UNL     1       1.769   6.824  19.056  0.00  0.00    +0.000 A 
ATOM      3  C   UNL     1       1.527   7.166  20.375  0.00  0.00    +0.000 A 
ATOM      4  N   UNL     1       2.041   6.129  21.099  0.00  0.00    +0.000 N 
ATOM      5  N   UNL     1       2.601   5.172  20.363  0.00  0.00    +0.000 NA
ATOM      6  H   UNL     1       2.072   6.018  22.104  0.00  0.00    +0.000 HD
ENDROOT
BRANCH   3   7
ATOM      7  C   UNL     1       0.882   8.318  20.993  0.00  0.00    +0.000 A 
ATOM      8  C   UNL     1       0.071   8.134  22.109  0.00  0.00    +0.000 A 
ATOM      9  C   UNL     1      -0.513   9.229  22.753  0.00  0.00    +0.000 A 
ATOM     10  C   UNL     1      -0.309  10.529  22.274  0.00  0.00    +0.000 A 
ATOM     11  C   UNL     1      -0.880  11.641  22.920  0.00  0.00    +0.000 A 
ATOM     12  C   UNL     1      -0.668  12.929  22.437  0.00  0.00    +0.000 A 
ATOM     13  C   UNL     1       0.108  13.125  21.302  0.00  0.00    +0.000 A 
ATOM     14  C   UNL     1       0.688  12.041  20.648  0.00  0.00    +0.000 A 
ATOM     15  C   UNL     1       0.492  10.732  21.132  0.00  0.00    +0.000 A 
ATOM     16  C   UNL     1       1.078   9.619  20.501  0.00  0.00    +0.000 A 
ENDBRANCH   3   7
BRANCH   1  18
ATOM     17  O   UNL     1       2.289   3.977  17.367  0.00  0.00    +0.000 OA
ATOM     18  C   UNL     1       2.988   4.826  17.946  0.00  0.00    +0.000 C 
ATOM     19  N   UNL     1       4.297   5.103  17.527  0.00  0.00    +0.000 N 
ATOM     20  C   UNL     1       5.219   6.012  18.201  0.00  0.00    +0.000 C 
ATOM     21  C   UNL     1       5.651   7.124  17.258  0.00  0.00    +0.000 C 
ATOM     22  C   UNL     1       6.255   6.542  15.980  0.00  0.00    +0.000 C 
ATOM     23  C   UNL     1       5.331   5.488  15.326  0.00  0.00    +0.000 C 
ATOM     24  C   UNL     1       4.853   4.444  16.349  0.00  0.00    +0.000 C 
BRANCH  23  25
ATOM     25  C   UNL     1       6.013   4.819  14.150  0.00  0.00    +0.000 A 
ATOM     26  C   UNL     1       5.394   3.767  13.476  0.00  0.00    +0.000 A 
ATOM     27  C   UNL     1       6.044   3.185  12.391  0.00  0.00    +0.000 A 
ATOM     28  C   UNL     1       7.290   3.662  12.005  0.00  0.00    +0.000 A 
ATOM     29  C   UNL     1       7.839   4.704  12.729  0.00  0.00    +0.000 A 
ATOM     30  N   UNL     1       7.233   5.288  13.787  0.00  0.00    +0.000 NA
ENDBRANCH  23  25
ENDBRANCH   1  18
TORSDOF 3
ENDMDL
MODEL 7
REMARK VINA RESULT:      -8.6      1.759      2.363
REMARK  Name = 
REMARK  3 active torsions:
REMARK  status: ('A' for Active; 'I' for Inactive)
REMARK    1  A    between atoms: C_2  and  C_3
REMARK    2  A    between atoms: C_5  and  C_6
REMARK    3  A    between atoms: C_22  and  C_23
REMARK                            x       y       z     vdW  Elec       q    Type
REMARK                         _______ _______ _______ _____ _____    ______ ____
ROOT
ATOM      1  C   UNL     1      -0.167  11.289  18.998  0.00  0.00    +0.000 A 
ATOM      2  C   UNL     1      -0.005   9.888  19.141  0.00  0.00    +0.000 A 
ATOM      3  C   UNL     1       1.283   9.604  18.722  0.00  0.00    +0.000 A 
ATOM      4  N   UNL     1       1.800  10.815  18.358  0.00  0.00    +0.000 N 
ATOM      5  N   UNL     1       0.966  11.838  18.523  0.00  0.00    +0.000 NA
ATOM      6  H   UNL     1       2.728  11.025  18.013  0.00  0.00    +0.000 HD
ENDROOT
BRANCH   3   7
ATOM      7  C   UNL     1       2.039   8.362  18.629  0.00  0.00    +0.000 A 
ATOM      8  C   UNL     1       2.998   8.215  17.630  0.00  0.00    +0.000 A 
ATOM      9  C   UNL     1       3.776   7.055  17.556  0.00  0.00    +0.000 A 
ATOM     10  C   UNL     1       3.588   6.012  18.470  0.00  0.00    +0.000 A 
ATOM     11  C   UNL     1       4.372   4.844  18.414  0.00  0.00    +0.000 A 
ATOM     12  C   UNL     1       4.180   3.815  19.331  0.00  0.00    +0.000 A 
ATOM     13  C   UNL     1       3.201   3.932  20.310  0.00  0.00    +0.000 A 
ATOM     14  C   UNL     1       2.417   5.079  20.389  0.00  0.00    +0.000 A 
ATOM     15  C   UNL     1       2.606   6.134  19.475  0.00  0.00    +0.000 A 
ATOM     16  C   UNL     1       1.839   7.312  19.541  0.00  0.00    +0.000 A 
ENDBRANCH   3   7
BRANCH   1  18
ATOM     17  O   UNL     1      -2.164  12.445  18.537  0.00  0.00    +0.000 OA
ATOM     18  C   UNL     1      -1.333  12.098  19.394  0.00  0.00    +0.000 C 
ATOM     19  N   UNL     1      -1.485  12.449  20.743  0.00  0.00    +0.000 N 
ATOM     20  C   UNL     1      -0.516  12.165  21.797  0.00  0.00    +0.000 C 
ATOM     21  C   UNL     1      -1.152  11.316  22.887  0.00  0.00    +0.000 C 
ATOM     22  C   UNL     1      -2.410  11.993  23.432  0.00  0.00    +0.000 C 
ATOM     23  C   UNL     1      -3.387  12.403  22.306  0.00  0.00    +0.000 C 
ATOM     24  C   UNL     1      -2.668  13.178  21.189  0.00  0.00    +0.000 C 
BRANCH  23  25
ATOM     25  C   UNL     1      -4.550  13.202  22.856  0.00  0.00    +0.000 A 
ATOM     26  C   UNL     1      -4.523  14.596  22.842  0.00  0.00    +0.000 A 
ATOM     27  C   UNL     1      -5.616  15.298  23.344  0.00  0.00    +0.000 A 
ATOM     28  C   UNL     1      -6.704  14.598  23.847  0.00  0.00    +0.000 A 
ATOM     29  C   UNL     1      -6.651  13.216  23.832  0.00  0.00    +0.000 A 
ATOM     30  N   UNL     1      -5.604  12.508  23.353  0.00  0.00    +0.000 NA
ENDBRANCH  23  25
ENDBRANCH   1  18
TORSDOF 3
ENDMDL
MODEL 8
REMARK VINA RESULT:      -8.5      2.231      3.236
REMARK  Name = 
REMARK  3 active torsions:
REMARK  status: ('A' for Active; 'I' for Inactive)
REMARK    1  A    between atoms: C_2  and  C_3
REMARK    2  A    between atoms: C_5  and  C_6
REMARK    3  A    between atoms: C_22  and  C_23
REMARK                            x       y       z     vdW  Elec       q    Type
REMARK                         _______ _______ _______ _____ _____    ______ ____
ROOT
ATOM      1  C   UNL     1       0.243   9.880  22.129  0.00  0.00    +0.000 A 
ATOM      2  C   UNL     1       0.050   8.925  21.098  0.00  0.00    +0.000 A 
ATOM      3  C   UNL     1       1.190   8.141  21.080  0.00  0.00    +0.000 A 
ATOM      4  N   UNL     1       1.978   8.660  22.068  0.00  0.00    +0.000 N 
ATOM      5  N   UNL     1       1.437   9.686  22.719  0.00  0.00    +0.000 NA
ATOM      6  H   UNL     1       2.890   8.346  22.375  0.00  0.00    +0.000 HD
ENDROOT
BRANCH   3   7
ATOM      7  C   UNL     1       1.594   7.008  20.259  0.00  0.00    +0.000 A 
ATOM      8  C   UNL     1       2.393   7.223  19.139  0.00  0.00    +0.000 A 
ATOM      9  C   UNL     1       2.842   6.146  18.367  0.00  0.00    +0.000 A 
ATOM     10  C   UNL     1       2.477   4.835  18.695  0.00  0.00    +0.000 A 
ATOM     11  C   UNL     1       2.931   3.741  17.935  0.00  0.00    +0.000 A 
ATOM     12  C   UNL     1       2.565   2.441  18.271  0.00  0.00    +0.000 A 
ATOM     13  C   UNL     1       1.737   2.215  19.364  0.00  0.00    +0.000 A 
ATOM     14  C   UNL     1       1.280   3.279  20.135  0.00  0.00    +0.000 A 
ATOM     15  C   UNL     1       1.650   4.600  19.813  0.00  0.00    +0.000 A 
ATOM     16  C   UNL     1       1.216   5.695  20.583  0.00  0.00    +0.000 A 
ENDBRANCH   3   7
BRANCH   1  18
ATOM     17  O   UNL     1      -1.547  10.583  23.485  0.00  0.00    +0.000 OA
ATOM     18  C   UNL     1      -0.722  10.886  22.606  0.00  0.00    +0.000 C 
ATOM     19  N   UNL     1      -0.677  12.177  22.061  0.00  0.00    +0.000 N 
ATOM     20  C   UNL     1       0.193  12.594  20.966  0.00  0.00    +0.000 C 
ATOM     21  C   UNL     1       1.097  13.733  21.412  0.00  0.00    +0.000 C 
ATOM     22  C   UNL     1       0.268  14.895  21.960  0.00  0.00    +0.000 C 
ATOM     23  C   UNL     1      -0.740  14.436  23.038  0.00  0.00    +0.000 C 
ATOM     24  C   UNL     1      -1.560  13.224  22.565  0.00  0.00    +0.000 C 
BRANCH  23  25
ATOM     25  C   UNL     1      -1.649  15.574  23.456  0.00  0.00    +0.000 A 
ATOM     26  C   UNL     1      -2.146  15.643  24.757  0.00  0.00    +0.000 A 
ATOM     27  C   UNL     1      -2.967  16.710  25.111  0.00  0.00    +0.000 A 
ATOM     28  C   UNL     1      -3.275  17.678  24.163  0.00  0.00    +0.000 A 
ATOM     29  C   UNL     1      -2.747  17.534  22.892  0.00  0.00    +0.000 A 
ATOM     30  N   UNL     1      -1.949  16.509  22.520  0.00  0.00    +0.000 NA
ENDBRANCH  23  25
ENDBRANCH   1  18
TORSDOF 3
ENDMDL
MODEL 9
REMARK VINA RESULT:      -8.5      1.770      2.433
REMARK  Name = 
REMARK  3 active torsions:
REMARK  status: ('A' for Active; 'I' for Inactive)
REMARK    1  A    between atoms: C_2  and  C_3
REMARK    2  A    between atoms: C_5  and  C_6
REMARK    3  A    between atoms: C_22  and  C_23
REMARK                            x       y       z     vdW  Elec       q    Type
REMARK                         _______ _______ _______ _____ _____    ______ ____
ROOT
ATOM      1  C   UNL     1       0.789   9.349  21.059  0.00  0.00    +0.000 A 
ATOM      2  C   UNL     1       1.125   7.972  21.041  0.00  0.00    +0.000 A 
ATOM      3  C   UNL     1       1.709   7.733  19.810  0.00  0.00    +0.000 A 
ATOM      4  N   UNL     1       1.685   8.944  19.178  0.00  0.00    +0.000 N 
ATOM      5  N   UNL     1       1.156   9.928  19.901  0.00  0.00    +0.000 NA
ATOM      6  H   UNL     1       2.039   9.182  18.261  0.00  0.00    +0.000 HD
ENDROOT
BRANCH   3   7
ATOM      7  C   UNL     1       2.258   6.532  19.194  0.00  0.00    +0.000 A 
ATOM      8  C   UNL     1       3.192   6.651  18.169  0.00  0.00    +0.000 A 
ATOM      9  C   UNL     1       3.775   5.514  17.601  0.00  0.00    +0.000 A 
ATOM     10  C   UNL     1       3.414   4.235  18.039  0.00  0.00    +0.000 A 
ATOM     11  C   UNL     1       4.002   3.082  17.485  0.00  0.00    +0.000 A 
ATOM     12  C   UNL     1       3.637   1.815  17.931  0.00  0.00    +0.000 A 
ATOM     13  C   UNL     1       2.678   1.679  18.928  0.00  0.00    +0.000 A 
ATOM     14  C   UNL     1       2.087   2.804  19.495  0.00  0.00    +0.000 A 
ATOM     15  C   UNL     1       2.453   4.094  19.062  0.00  0.00    +0.000 A 
ATOM     16  C   UNL     1       1.883   5.249  19.627  0.00  0.00    +0.000 A 
ENDBRANCH   3   7
BRANCH   1  18
ATOM     17  O   UNL     1       0.550   9.833  23.349  0.00  0.00    +0.000 OA
ATOM     18  C   UNL     1       0.224  10.115  22.184  0.00  0.00    +0.000 C 
ATOM     19  N   UNL     1      -0.666  11.163  21.907  0.00  0.00    +0.000 N 
ATOM     20  C   UNL     1      -1.174  11.504  20.583  0.00  0.00    +0.000 C 
ATOM     21  C   UNL     1      -0.804  12.935  20.225  0.00  0.00    +0.000 C 
ATOM     22  C   UNL     1      -1.305  13.904  21.297  0.00  0.00    +0.000 C 
ATOM     23  C   UNL     1      -0.867  13.479  22.718  0.00  0.00    +0.000 C 
ATOM     24  C   UNL     1      -1.184  11.998  22.987  0.00  0.00    +0.000 C 
BRANCH  23  25
ATOM     25  C   UNL     1      -1.498  14.366  23.772  0.00  0.00    +0.000 A 
ATOM     26  C   UNL     1      -2.877  14.352  23.979  0.00  0.00    +0.000 A 
ATOM     27  C   UNL     1      -3.420  15.171  24.965  0.00  0.00    +0.000 A 
ATOM     28  C   UNL     1      -2.581  15.982  25.718  0.00  0.00    +0.000 A 
ATOM     29  C   UNL     1      -1.225  15.944  25.446  0.00  0.00    +0.000 A 
ATOM     30  N   UNL     1      -0.670  15.161  24.495  0.00  0.00    +0.000 NA
ENDBRANCH  23  25
ENDBRANCH   1  18
TORSDOF 3
ENDMDL
