MODEL 1
REMARK VINA RESULT:      -8.6      0.000      0.000
REMARK  Name = 
REMARK  3 active torsions:
REMARK  status: ('A' for Active; 'I' for Inactive)
REMARK    1  A    between atoms: C_1  and  N_2
REMARK    2  A    between atoms: C_8  and  C_9
REMARK    3  A    between atoms: C_13  and  C_14
REMARK                            x       y       z     vdW  Elec       q    Type
REMARK                         _______ _______ _______ _____ _____    ______ ____
ROOT
ATOM      1  C   UNL     1       2.582   7.789  17.941  0.00  0.00    +0.000 C 
ATOM      2  O   UNL     1       2.583   8.104  16.755  0.00  0.00    +0.000 OA
ATOM      3  N   UNL     1       1.987   8.546  18.938  0.00  0.00    +0.000 N 
ATOM      4  C   UNL     1       1.558   9.913  18.724  0.00  0.00    +0.000 C 
ATOM      5  C   UNL     1       0.758  10.315  19.985  0.00  0.00    +0.000 C 
ATOM      6  C   UNL     1       0.772   9.038  20.889  0.00  0.00    +0.000 C 
ATOM      7  C   UNL     1      -0.648   8.572  21.472  0.00  0.00    +0.000 C 
ATOM      8  C   UNL     1      -0.250   9.314  22.774  0.00  0.00    +0.000 C 
ATOM      9  C   UNL     1       1.173   8.923  22.426  0.00  0.00    +0.000 C 
ATOM     10  C   UNL     1       1.878   8.151  20.314  0.00  0.00    +0.000 C 
ENDROOT
BRANCH   1  18
ATOM     11  C   UNL     1       1.279   2.934  20.464  0.00  0.00    +0.000 C 
ATOM     12  N   UNL     1       2.623   3.264  20.071  0.00  0.00    +0.000 N 
ATOM     13  N   UNL     1       3.645   2.449  20.385  0.00  0.00    +0.000 NA
ATOM     14  N   UNL     1       4.759   3.012  19.933  0.00  0.00    +0.000 NA
ATOM     15  C   UNL     1       4.424   4.198  19.339  0.00  0.00    +0.000 A 
ATOM     16  C   UNL     1       5.223   5.170  18.719  0.00  0.00    +0.000 A 
ATOM     17  C   UNL     1       4.599   6.316  18.210  0.00  0.00    +0.000 A 
ATOM     18  C   UNL     1       3.214   6.505  18.343  0.00  0.00    +0.000 A 
ATOM     19  C   UNL     1       2.395   5.524  18.920  0.00  0.00    +0.000 A 
ATOM     20  C   UNL     1       3.047   4.389  19.417  0.00  0.00    +0.000 A 
ENDBRANCH   1  18
BRANCH   5  21
ATOM     21  C   UNL     1      -0.644  10.771  19.609  0.00  0.00    +0.000 A 
ATOM     22  C   UNL     1      -1.296  11.823  20.296  0.00  0.00    +0.000 A 
ATOM     23  C   UNL     1      -2.517  12.347  19.852  0.00  0.00    +0.000 A 
ATOM     24  C   UNL     1      -3.116  11.798  18.736  0.00  0.00    +0.000 A 
ATOM     25  C   UNL     1      -2.531  10.720  18.072  0.00  0.00    +0.000 A 
ATOM     26  C   UNL     1      -1.305  10.210  18.513  0.00  0.00    +0.000 A 
ENDBRANCH   5  21
TORSDOF 2
ENDMDL
MODEL 2
REMARK VINA RESULT:      -8.5      0.545      1.090
REMARK  Name = 
REMARK  3 active torsions:
REMARK  status: ('A' for Active; 'I' for Inactive)
REMARK    1  A    between atoms: C_1  and  N_2
REMARK    2  A    between atoms: C_8  and  C_9
REMARK    3  A    between atoms: C_13  and  C_14
REMARK                            x       y       z     vdW  Elec       q    Type
REMARK                         _______ _______ _______ _____ _____    ______ ____
ROOT
ATOM      1  C   UNL     1       2.620   7.769  17.917  0.00  0.00    +0.000 C 
ATOM      2  O   UNL     1       2.695   8.103  16.739  0.00  0.00    +0.000 OA
ATOM      3  N   UNL     1       2.025   8.543  18.900  0.00  0.00    +0.000 N 
ATOM      4  C   UNL     1       1.688   9.937  18.694  0.00  0.00    +0.000 C 
ATOM      5  C   UNL     1       0.855  10.365  19.926  0.00  0.00    +0.000 C 
ATOM      6  C   UNL     1       0.752   9.073  20.804  0.00  0.00    +0.000 C 
ATOM      7  C   UNL     1      -0.718   8.684  21.313  0.00  0.00    +0.000 C 
ATOM      8  C   UNL     1      -0.338   9.378  22.646  0.00  0.00    +0.000 C 
ATOM      9  C   UNL     1       1.074   8.908  22.355  0.00  0.00    +0.000 C 
ATOM     10  C   UNL     1       1.829   8.132  20.262  0.00  0.00    +0.000 C 
ENDROOT
BRANCH   1  18
ATOM     11  C   UNL     1       0.884   2.493  18.807  0.00  0.00    +0.000 C 
ATOM     12  N   UNL     1       2.233   2.918  19.070  0.00  0.00    +0.000 N 
ATOM     13  N   UNL     1       3.114   2.076  19.638  0.00  0.00    +0.000 NA
ATOM     14  N   UNL     1       4.255   2.736  19.794  0.00  0.00    +0.000 NA
ATOM     15  C   UNL     1       4.077   4.009  19.324  0.00  0.00    +0.000 A 
ATOM     16  C   UNL     1       4.960   5.097  19.267  0.00  0.00    +0.000 A 
ATOM     17  C   UNL     1       4.488   6.308  18.747  0.00  0.00    +0.000 A 
ATOM     18  C   UNL     1       3.156   6.443  18.322  0.00  0.00    +0.000 A 
ATOM     19  C   UNL     1       2.274   5.354  18.330  0.00  0.00    +0.000 A 
ATOM     20  C   UNL     1       2.775   4.156  18.853  0.00  0.00    +0.000 A 
ENDBRANCH   1  18
BRANCH   5  21
ATOM     21  C   UNL     1      -0.498  10.910  19.495  0.00  0.00    +0.000 A 
ATOM     22  C   UNL     1      -1.221  10.346  18.416  0.00  0.00    +0.000 A 
ATOM     23  C   UNL     1      -2.531  10.742  18.121  0.00  0.00    +0.000 A 
ATOM     24  C   UNL     1      -3.119  11.735  18.879  0.00  0.00    +0.000 A 
ATOM     25  C   UNL     1      -2.412  12.355  19.909  0.00  0.00    +0.000 A 
ATOM     26  C   UNL     1      -1.108  11.945  20.208  0.00  0.00    +0.000 A 
ENDBRANCH   5  21
TORSDOF 2
ENDMDL
MODEL 3
REMARK VINA RESULT:      -7.9      1.067      2.143
REMARK  Name = 
REMARK  3 active torsions:
REMARK  status: ('A' for Active; 'I' for Inactive)
REMARK    1  A    between atoms: C_1  and  N_2
REMARK    2  A    between atoms: C_8  and  C_9
REMARK    3  A    between atoms: C_13  and  C_14
REMARK                            x       y       z     vdW  Elec       q    Type
REMARK                         _______ _______ _______ _____ _____    ______ ____
ROOT
ATOM      1  C   UNL     1       2.153   8.239  18.117  0.00  0.00    +0.000 C 
ATOM      2  O   UNL     1       2.155   8.640  16.957  0.00  0.00    +0.000 OA
ATOM      3  N   UNL     1       1.681   8.983  19.186  0.00  0.00    +0.000 N 
ATOM      4  C   UNL     1       1.407  10.402  19.086  0.00  0.00    +0.000 C 
ATOM      5  C   UNL     1       0.698  10.798  20.402  0.00  0.00    +0.000 C 
ATOM      6  C   UNL     1       0.591   9.463  21.213  0.00  0.00    +0.000 C 
ATOM      7  C   UNL     1      -0.855   9.120  21.816  0.00  0.00    +0.000 C 
ATOM      8  C   UNL     1      -0.335   9.713  23.151  0.00  0.00    +0.000 C 
ATOM      9  C   UNL     1       1.022   9.189  22.721  0.00  0.00    +0.000 C 
ATOM     10  C   UNL     1       1.568   8.502  20.534  0.00  0.00    +0.000 C 
ENDROOT
BRANCH   1  18
ATOM     11  C   UNL     1       6.917   5.525  19.372  0.00  0.00    +0.000 C 
ATOM     12  N   UNL     1       5.675   4.838  19.137  0.00  0.00    +0.000 N 
ATOM     13  N   UNL     1       5.633   3.494  19.115  0.00  0.00    +0.000 NA
ATOM     14  N   UNL     1       4.383   3.138  18.846  0.00  0.00    +0.000 NA
ATOM     15  C   UNL     1       3.641   4.277  18.689  0.00  0.00    +0.000 A 
ATOM     16  C   UNL     1       2.282   4.452  18.389  0.00  0.00    +0.000 A 
ATOM     17  C   UNL     1       1.792   5.758  18.264  0.00  0.00    +0.000 A 
ATOM     18  C   UNL     1       2.644   6.866  18.403  0.00  0.00    +0.000 A 
ATOM     19  C   UNL     1       3.994   6.711  18.748  0.00  0.00    +0.000 A 
ATOM     20  C   UNL     1       4.453   5.394  18.868  0.00  0.00    +0.000 A 
ENDBRANCH   1  18
BRANCH   5  21
ATOM     21  C   UNL     1      -0.652  11.437  20.113  0.00  0.00    +0.000 A 
ATOM     22  C   UNL     1      -1.438  11.050  19.002  0.00  0.00    +0.000 A 
ATOM     23  C   UNL     1      -2.745  11.522  18.824  0.00  0.00    +0.000 A 
ATOM     24  C   UNL     1      -3.265  12.417  19.737  0.00  0.00    +0.000 A 
ATOM     25  C   UNL     1      -2.495  12.867  20.809  0.00  0.00    +0.000 A 
ATOM     26  C   UNL     1      -1.194  12.381  20.988  0.00  0.00    +0.000 A 
ENDBRANCH   5  21
TORSDOF 2
ENDMDL
MODEL 4
REMARK VINA RESULT:      -7.8      1.111      2.138
REMARK  Name = 
REMARK  3 active torsions:
REMARK  status: ('A' for Active; 'I' for Inactive)
REMARK    1  A    between atoms: C_1  and  N_2
REMARK    2  A    between atoms: C_8  and  C_9
REMARK    3  A    between atoms: C_13  and  C_14
REMARK                            x       y       z     vdW  Elec       q    Type
REMARK                         _______ _______ _______ _____ _____    ______ ____
ROOT
ATOM      1  C   UNL     1       2.287   8.305  18.001  0.00  0.00    +0.000 C 
ATOM      2  O   UNL     1       2.223   8.663  16.829  0.00  0.00    +0.000 OA
ATOM      3  N   UNL     1       1.718   9.006  19.052  0.00  0.00    +0.000 N 
ATOM      4  C   UNL     1       1.240  10.367  18.910  0.00  0.00    +0.000 C 
ATOM      5  C   UNL     1       0.489  10.698  20.221  0.00  0.00    +0.000 C 
ATOM      6  C   UNL     1       0.583   9.390  21.074  0.00  0.00    +0.000 C 
ATOM      7  C   UNL     1      -0.794   8.860  21.704  0.00  0.00    +0.000 C 
ATOM      8  C   UNL     1      -0.357   9.566  23.014  0.00  0.00    +0.000 C 
ATOM      9  C   UNL     1       1.059   9.231  22.586  0.00  0.00    +0.000 C 
ATOM     10  C   UNL     1       1.685   8.559  20.415  0.00  0.00    +0.000 C 
ENDROOT
BRANCH   1  18
ATOM     11  C   UNL     1       7.470   6.143  18.316  0.00  0.00    +0.000 C 
ATOM     12  N   UNL     1       6.287   5.346  18.502  0.00  0.00    +0.000 N 
ATOM     13  N   UNL     1       6.381   4.014  18.665  0.00  0.00    +0.000 NA
ATOM     14  N   UNL     1       5.148   3.537  18.779  0.00  0.00    +0.000 NA
ATOM     15  C   UNL     1       4.276   4.586  18.674  0.00  0.00    +0.000 A 
ATOM     16  C   UNL     1       2.874   4.620  18.717  0.00  0.00    +0.000 A 
ATOM     17  C   UNL     1       2.235   5.855  18.556  0.00  0.00    +0.000 A 
ATOM     18  C   UNL     1       2.973   7.027  18.325  0.00  0.00    +0.000 A 
ATOM     19  C   UNL     1       4.376   7.019  18.324  0.00  0.00    +0.000 A 
ATOM     20  C   UNL     1       4.985   5.770  18.490  0.00  0.00    +0.000 A 
ENDBRANCH   1  18
BRANCH   5  21
ATOM     21  C   UNL     1      -0.941  11.125  19.927  0.00  0.00    +0.000 A 
ATOM     22  C   UNL     1      -1.622  12.062  20.741  0.00  0.00    +0.000 A 
ATOM     23  C   UNL     1      -2.877  12.572  20.384  0.00  0.00    +0.000 A 
ATOM     24  C   UNL     1      -3.479  12.122  19.226  0.00  0.00    +0.000 A 
ATOM     25  C   UNL     1      -2.864  11.153  18.434  0.00  0.00    +0.000 A 
ATOM     26  C   UNL     1      -1.604  10.657  18.790  0.00  0.00    +0.000 A 
ENDBRANCH   5  21
TORSDOF 2
ENDMDL
MODEL 5
REMARK VINA RESULT:      -7.7      2.425      7.615
REMARK  Name = 
REMARK  3 active torsions:
REMARK  status: ('A' for Active; 'I' for Inactive)
REMARK    1  A    between atoms: C_1  and  N_2
REMARK    2  A    between atoms: C_8  and  C_9
REMARK    3  A    between atoms: C_13  and  C_14
REMARK                            x       y       z     vdW  Elec       q    Type
REMARK                         _______ _______ _______ _____ _____    ______ ____
ROOT
ATOM      1  C   UNL     1       1.803   8.949  18.816  0.00  0.00    +0.000 C 
ATOM      2  O   UNL     1       2.132   9.838  18.037  0.00  0.00    +0.000 OA
ATOM      3  N   UNL     1       2.115   7.611  18.634  0.00  0.00    +0.000 N 
ATOM      4  C   UNL     1       2.609   7.093  17.374  0.00  0.00    +0.000 C 
ATOM      5  C   UNL     1       3.040   5.633  17.648  0.00  0.00    +0.000 C 
ATOM      6  C   UNL     1       2.756   5.415  19.172  0.00  0.00    +0.000 C 
ATOM      7  C   UNL     1       3.954   4.775  20.026  0.00  0.00    +0.000 C 
ATOM      8  C   UNL     1       3.227   3.416  19.851  0.00  0.00    +0.000 C 
ATOM      9  C   UNL     1       1.947   4.230  19.864  0.00  0.00    +0.000 C 
ATOM     10  C   UNL     1       1.836   6.567  19.578  0.00  0.00    +0.000 C 
ENDROOT
BRANCH   1  18
ATOM     11  C   UNL     1      -2.192  12.499  20.569  0.00  0.00    +0.000 C 
ATOM     12  N   UNL     1      -1.479  11.633  21.468  0.00  0.00    +0.000 N 
ATOM     13  N   UNL     1      -1.681  11.713  22.796  0.00  0.00    +0.000 NA
ATOM     14  N   UNL     1      -0.877  10.832  23.377  0.00  0.00    +0.000 NA
ATOM     15  C   UNL     1      -0.158  10.203  22.397  0.00  0.00    +0.000 A 
ATOM     16  C   UNL     1       0.825   9.206  22.479  0.00  0.00    +0.000 A 
ATOM     17  C   UNL     1       1.418   8.759  21.291  0.00  0.00    +0.000 A 
ATOM     18  C   UNL     1       1.063   9.315  20.051  0.00  0.00    +0.000 A 
ATOM     19  C   UNL     1       0.050  10.280  19.947  0.00  0.00    +0.000 A 
ATOM     20  C   UNL     1      -0.524  10.705  21.151  0.00  0.00    +0.000 A 
ENDBRANCH   1  18
BRANCH   5  21
ATOM     21  C   UNL     1       4.499   5.424  17.271  0.00  0.00    +0.000 A 
ATOM     22  C   UNL     1       4.937   4.252  16.609  0.00  0.00    +0.000 A 
ATOM     23  C   UNL     1       6.244   4.127  16.123  0.00  0.00    +0.000 A 
ATOM     24  C   UNL     1       7.138   5.159  16.327  0.00  0.00    +0.000 A 
ATOM     25  C   UNL     1       6.756   6.301  17.030  0.00  0.00    +0.000 A 
ATOM     26  C   UNL     1       5.444   6.426  17.502  0.00  0.00    +0.000 A 
ENDBRANCH   5  21
TORSDOF 2
ENDMDL
MODEL 6
REMARK VINA RESULT:      -7.3      2.661      7.880
REMARK  Name = 
REMARK  3 active torsions:
REMARK  status: ('A' for Active; 'I' for Inactive)
REMARK    1  A    between atoms: C_1  and  N_2
REMARK    2  A    between atoms: C_8  and  C_9
REMARK    3  A    between atoms: C_13  and  C_14
REMARK                            x       y       z     vdW  Elec       q    Type
REMARK                         _______ _______ _______ _____ _____    ______ ____
ROOT
ATOM      1  C   UNL     1       0.402   8.810  20.724  0.00  0.00    +0.000 C 
ATOM      2  O   UNL     1      -0.307   8.557  21.693  0.00  0.00    +0.000 OA
ATOM      3  N   UNL     1       1.409   7.975  20.268  0.00  0.00    +0.000 N 
ATOM      4  C   UNL     1       1.912   6.865  21.052  0.00  0.00    +0.000 C 
ATOM      5  C   UNL     1       2.849   6.066  20.115  0.00  0.00    +0.000 C 
ATOM      6  C   UNL     1       2.790   6.829  18.750  0.00  0.00    +0.000 C 
ATOM      7  C   UNL     1       2.520   5.927  17.451  0.00  0.00    +0.000 C 
ATOM      8  C   UNL     1       4.055   5.956  17.229  0.00  0.00    +0.000 C 
ATOM      9  C   UNL     1       4.003   7.337  17.852  0.00  0.00    +0.000 C 
ATOM     10  C   UNL     1       2.182   8.193  19.078  0.00  0.00    +0.000 C 
ENDROOT
BRANCH   1  18
ATOM     11  C   UNL     1       2.132  14.157  20.495  0.00  0.00    +0.000 C 
ATOM     12  N   UNL     1       1.056  13.658  19.682  0.00  0.00    +0.000 N 
ATOM     13  N   UNL     1       0.352  14.491  18.895  0.00  0.00    +0.000 NA
ATOM     14  N   UNL     1      -0.588  13.774  18.293  0.00  0.00    +0.000 NA
ATOM     15  C   UNL     1      -0.473  12.478  18.719  0.00  0.00    +0.000 A 
ATOM     16  C   UNL     1      -1.222  11.337  18.397  0.00  0.00    +0.000 A 
ATOM     17  C   UNL     1      -0.886  10.127  19.015  0.00  0.00    +0.000 A 
ATOM     18  C   UNL     1       0.152  10.060  19.959  0.00  0.00    +0.000 A 
ATOM     19  C   UNL     1       0.940  11.180  20.258  0.00  0.00    +0.000 A 
ATOM     20  C   UNL     1       0.582  12.375  19.623  0.00  0.00    +0.000 A 
ENDBRANCH   1  18
BRANCH   5  21
ATOM     21  C   UNL     1       2.399   4.616  20.015  0.00  0.00    +0.000 A 
ATOM     22  C   UNL     1       1.032   4.254  20.064  0.00  0.00    +0.000 A 
ATOM     23  C   UNL     1       0.608   2.943  19.815  0.00  0.00    +0.000 A 
ATOM     24  C   UNL     1       1.553   1.971  19.551  0.00  0.00    +0.000 A 
ATOM     25  C   UNL     1       2.912   2.281  19.557  0.00  0.00    +0.000 A 
ATOM     26  C   UNL     1       3.328   3.597  19.794  0.00  0.00    +0.000 A 
ENDBRANCH   5  21
TORSDOF 2
ENDMDL
MODEL 7
REMARK VINA RESULT:      -7.3      4.904      9.610
REMARK  Name = 
REMARK  3 active torsions:
REMARK  status: ('A' for Active; 'I' for Inactive)
REMARK    1  A    between atoms: C_1  and  N_2
REMARK    2  A    between atoms: C_8  and  C_9
REMARK    3  A    between atoms: C_13  and  C_14
REMARK                            x       y       z     vdW  Elec       q    Type
REMARK                         _______ _______ _______ _____ _____    ______ ____
ROOT
ATOM      1  C   UNL     1      -1.180  12.739  22.228  0.00  0.00    +0.000 C 
ATOM      2  O   UNL     1      -0.332  12.721  23.115  0.00  0.00    +0.000 OA
ATOM      3  N   UNL     1      -0.957  12.276  20.941  0.00  0.00    +0.000 N 
ATOM      4  C   UNL     1       0.371  11.991  20.437  0.00  0.00    +0.000 C 
ATOM      5  C   UNL     1       0.173  11.298  19.069  0.00  0.00    +0.000 C 
ATOM      6  C   UNL     1      -1.379  11.212  18.888  0.00  0.00    +0.000 C 
ATOM      7  C   UNL     1      -1.961   9.777  18.469  0.00  0.00    +0.000 C 
ATOM      8  C   UNL     1      -1.973  10.312  17.013  0.00  0.00    +0.000 C 
ATOM      9  C   UNL     1      -2.252  11.667  17.636  0.00  0.00    +0.000 C 
ATOM     10  C   UNL     1      -1.957  12.186  19.915  0.00  0.00    +0.000 C 
ENDROOT
BRANCH   1  18
ATOM     11  C   UNL     1      -4.212  17.468  21.945  0.00  0.00    +0.000 C 
ATOM     12  N   UNL     1      -4.710  16.266  22.558  0.00  0.00    +0.000 N 
ATOM     13  N   UNL     1      -5.903  16.261  23.179  0.00  0.00    +0.000 NA
ATOM     14  N   UNL     1      -6.091  15.044  23.674  0.00  0.00    +0.000 NA
ATOM     15  C   UNL     1      -4.995  14.286  23.365  0.00  0.00    +0.000 A 
ATOM     16  C   UNL     1      -4.693  12.948  23.661  0.00  0.00    +0.000 A 
ATOM     17  C   UNL     1      -3.464  12.434  23.229  0.00  0.00    +0.000 A 
ATOM     18  C   UNL     1      -2.541  13.243  22.546  0.00  0.00    +0.000 A 
ATOM     19  C   UNL     1      -2.846  14.568  22.202  0.00  0.00    +0.000 A 
ATOM     20  C   UNL     1      -4.082  15.052  22.645  0.00  0.00    +0.000 A 
ENDBRANCH   1  18
BRANCH   5  21
ATOM     21  C   UNL     1       0.857   9.939  19.051  0.00  0.00    +0.000 A 
ATOM     22  C   UNL     1       1.510   9.447  17.895  0.00  0.00    +0.000 A 
ATOM     23  C   UNL     1       2.273   8.273  17.924  0.00  0.00    +0.000 A 
ATOM     24  C   UNL     1       2.358   7.557  19.101  0.00  0.00    +0.000 A 
ATOM     25  C   UNL     1       1.676   7.980  20.242  0.00  0.00    +0.000 A 
ATOM     26  C   UNL     1       0.927   9.162  20.210  0.00  0.00    +0.000 A 
ENDBRANCH   5  21
TORSDOF 2
ENDMDL
MODEL 8
REMARK VINA RESULT:      -7.3      1.472      2.331
REMARK  Name = 
REMARK  3 active torsions:
REMARK  status: ('A' for Active; 'I' for Inactive)
REMARK    1  A    between atoms: C_1  and  N_2
REMARK    2  A    between atoms: C_8  and  C_9
REMARK    3  A    between atoms: C_13  and  C_14
REMARK                            x       y       z     vdW  Elec       q    Type
REMARK                         _______ _______ _______ _____ _____    ______ ____
ROOT
ATOM      1  C   UNL     1       2.086   8.722  18.132  0.00  0.00    +0.000 C 
ATOM      2  O   UNL     1       1.980   9.215  17.013  0.00  0.00    +0.000 OA
ATOM      3  N   UNL     1       1.616   9.327  19.286  0.00  0.00    +0.000 N 
ATOM      4  C   UNL     1       1.212  10.718  19.326  0.00  0.00    +0.000 C 
ATOM      5  C   UNL     1       0.553  10.936  20.708  0.00  0.00    +0.000 C 
ATOM      6  C   UNL     1       0.616   9.535  21.403  0.00  0.00    +0.000 C 
ATOM      7  C   UNL     1      -0.754   9.009  22.051  0.00  0.00    +0.000 C 
ATOM      8  C   UNL     1      -0.207   9.536  23.403  0.00  0.00    +0.000 C 
ATOM      9  C   UNL     1       1.162   9.179  22.856  0.00  0.00    +0.000 C 
ATOM     10  C   UNL     1       1.630   8.729  20.591  0.00  0.00    +0.000 C 
ENDROOT
BRANCH   1  18
ATOM     11  C   UNL     1       5.976   5.497  15.662  0.00  0.00    +0.000 C 
ATOM     12  N   UNL     1       5.162   5.029  16.750  0.00  0.00    +0.000 N 
ATOM     13  N   UNL     1       5.239   3.749  17.158  0.00  0.00    +0.000 NA
ATOM     14  N   UNL     1       4.363   3.590  18.143  0.00  0.00    +0.000 NA
ATOM     15  C   UNL     1       3.726   4.785  18.342  0.00  0.00    +0.000 A 
ATOM     16  C   UNL     1       2.717   5.145  19.247  0.00  0.00    +0.000 A 
ATOM     17  C   UNL     1       2.230   6.458  19.210  0.00  0.00    +0.000 A 
ATOM     18  C   UNL     1       2.714   7.382  18.269  0.00  0.00    +0.000 A 
ATOM     19  C   UNL     1       3.753   7.052  17.388  0.00  0.00    +0.000 A 
ATOM     20  C   UNL     1       4.221   5.734  17.451  0.00  0.00    +0.000 A 
ENDBRANCH   1  18
BRANCH   5  21
ATOM     21  C   UNL     1      -0.864  11.467  20.550  0.00  0.00    +0.000 A 
ATOM     22  C   UNL     1      -1.488  12.240  21.558  0.00  0.00    +0.000 A 
ATOM     23  C   UNL     1      -2.726  12.860  21.349  0.00  0.00    +0.000 A 
ATOM     24  C   UNL     1      -3.372  12.680  20.142  0.00  0.00    +0.000 A 
ATOM     25  C   UNL     1      -2.815  11.873  19.151  0.00  0.00    +0.000 A 
ATOM     26  C   UNL     1      -1.570  11.268  19.361  0.00  0.00    +0.000 A 
ENDBRANCH   5  21
TORSDOF 2
ENDMDL
MODEL 9
REMARK VINA RESULT:      -7.0      4.636      9.225
REMARK  Name = 
REMARK  3 active torsions:
REMARK  status: ('A' for Active; 'I' for Inactive)
REMARK    1  A    between atoms: C_1  and  N_2
REMARK    2  A    between atoms: C_8  and  C_9
REMARK    3  A    between atoms: C_13  and  C_14
REMARK                            x       y       z     vdW  Elec       q    Type
REMARK                         _______ _______ _______ _____ _____    ______ ____
ROOT
ATOM      1  C   UNL     1      -0.574  13.432  21.559  0.00  0.00    +0.000 C 
ATOM      2  O   UNL     1       0.331  13.510  22.383  0.00  0.00    +0.000 OA
ATOM      3  N   UNL     1      -0.485  12.701  20.385  0.00  0.00    +0.000 N 
ATOM      4  C   UNL     1       0.774  12.193  19.880  0.00  0.00    +0.000 C 
ATOM      5  C   UNL     1       0.419  11.262  18.697  0.00  0.00    +0.000 C 
ATOM      6  C   UNL     1      -1.144  11.292  18.622  0.00  0.00    +0.000 C 
ATOM      7  C   UNL     1      -1.872   9.866  18.541  0.00  0.00    +0.000 C 
ATOM      8  C   UNL     1      -1.945  10.097  17.009  0.00  0.00    +0.000 C 
ATOM      9  C   UNL     1      -2.064  11.569  17.353  0.00  0.00    +0.000 C 
ATOM     10  C   UNL     1      -1.562  12.504  19.456  0.00  0.00    +0.000 C 
ENDROOT
BRANCH   1  18
ATOM     11  C   UNL     1      -5.384  12.624  24.362  0.00  0.00    +0.000 C 
ATOM     12  N   UNL     1      -5.160  13.772  23.524  0.00  0.00    +0.000 N 
ATOM     13  N   UNL     1      -6.148  14.658  23.305  0.00  0.00    +0.000 NA
ATOM     14  N   UNL     1      -5.678  15.585  22.480  0.00  0.00    +0.000 NA
ATOM     15  C   UNL     1      -4.383  15.264  22.174  0.00  0.00    +0.000 A 
ATOM     16  C   UNL     1      -3.451  15.905  21.345  0.00  0.00    +0.000 A 
ATOM     17  C   UNL     1      -2.184  15.327  21.200  0.00  0.00    +0.000 A 
ATOM     18  C   UNL     1      -1.862  14.119  21.840  0.00  0.00    +0.000 A 
ATOM     19  C   UNL     1      -2.766  13.489  22.707  0.00  0.00    +0.000 A 
ATOM     20  C   UNL     1      -4.022  14.092  22.834  0.00  0.00    +0.000 A 
ENDBRANCH   1  18
BRANCH   5  21
ATOM     21  C   UNL     1       0.985   9.868  18.923  0.00  0.00    +0.000 A 
ATOM     22  C   UNL     1       1.617   9.142  17.885  0.00  0.00    +0.000 A 
ATOM     23  C   UNL     1       2.275   7.930  18.130  0.00  0.00    +0.000 A 
ATOM     24  C   UNL     1       2.274   7.412  19.410  0.00  0.00    +0.000 A 
ATOM     25  C   UNL     1       1.607   8.071  20.443  0.00  0.00    +0.000 A 
ATOM     26  C   UNL     1       0.963   9.288  20.194  0.00  0.00    +0.000 A 
ENDBRANCH   5  21
TORSDOF 2
ENDMDL
