MODEL 1
REMARK VINA RESULT:      -9.6      0.000      0.000
REMARK  Name = 
REMARK  5 active torsions:
REMARK  status: ('A' for Active; 'I' for Inactive)
REMARK    1  A    between atoms: N_3  and  C_4
REMARK    2  A    between atoms: C_4  and  C_5
REMARK    3  A    between atoms: C_5  and  C_6
REMARK    4  A    between atoms: N_13  and  C_14
REMARK    5  A    between atoms: C_18  and  C_19
REMARK                            x       y       z     vdW  Elec       q    Type
REMARK                         _______ _______ _______ _____ _____    ______ ____
ROOT
ATOM      1  O   UNL     1       7.160   8.529  17.012  0.00  0.00    +0.000 OA
ATOM      2  C   UNL     1       7.781   7.847  17.820  0.00  0.00    +0.000 C 
ATOM      3  N   UNL     1       8.651   8.419  18.724  0.00  0.00    +0.000 N 
ATOM      4  N   UNL     1       7.696   6.489  17.955  0.00  0.00    +0.000 N 
ATOM      5  H   UNL     1       9.472   7.865  18.928  0.00  0.00    +0.000 HD
ATOM      6  H   UNL     1       8.227   6.080  18.711  0.00  0.00    +0.000 HD
ENDROOT
BRANCH   4   7
ATOM      7  C   UNL     1       6.872   5.629  17.194  0.00  0.00    +0.000 A 
ATOM      8  C   UNL     1       7.054   5.353  15.839  0.00  0.00    +0.000 A 
ATOM      9  C   UNL     1       6.177   4.507  15.160  0.00  0.00    +0.000 A 
ATOM     10  C   UNL     1       5.142   3.873  15.847  0.00  0.00    +0.000 A 
ATOM     11  C   UNL     1       4.977   4.080  17.220  0.00  0.00    +0.000 A 
ATOM     12  C   UNL     1       5.810   5.014  17.858  0.00  0.00    +0.000 A 
BRANCH  11  13
ATOM     13  C   UNL     1       3.976   3.293  17.956  0.00  0.00    +0.000 A 
ATOM     14  N   UNL     1       3.865   1.975  17.911  0.00  0.00    +0.000 NA
ATOM     15  C   UNL     1       2.852   1.633  18.770  0.00  0.00    +0.000 A 
ATOM     16  C   UNL     1       2.333   2.751  19.378  0.00  0.00    +0.000 A 
ATOM     17  N   UNL     1       3.061   3.796  18.860  0.00  0.00    +0.000 N 
ATOM     18  C   UNL     1       2.830   5.180  19.228  0.00  0.00    +0.000 C 
ATOM     19  C   UNL     1       2.037   5.342  20.516  0.00  0.00    +0.000 C 
ATOM     20  C   UNL     1       0.830   4.407  20.501  0.00  0.00    +0.000 C 
ATOM     21  C   UNL     1       1.279   2.945  20.409  0.00  0.00    +0.000 C 
ENDBRANCH  11  13
ENDBRANCH   4   7
BRANCH   3  22
ATOM     22  C   UNL     1       8.854   9.861  18.679  0.00  0.00    +0.000 C 
BRANCH  22  23
ATOM     23  C   UNL     1       9.466  10.420  19.977  0.00  0.00    +0.000 C 
BRANCH  23  24
ATOM     24  C   UNL     1      10.389  11.592  19.764  0.00  0.00    +0.000 A 
ATOM     25  C   UNL     1      11.259  11.613  18.662  0.00  0.00    +0.000 A 
ATOM     26  C   UNL     1      12.084  12.717  18.430  0.00  0.00    +0.000 A 
ATOM     27  C   UNL     1      12.051  13.809  19.295  0.00  0.00    +0.000 A 
ATOM     28  C   UNL     1      11.192  13.798  20.393  0.00  0.00    +0.000 A 
ATOM     29  C   UNL     1      10.369  12.696  20.616  0.00  0.00    +0.000 A 
ATOM     30  F   UNL     1       9.539  12.715  21.669  0.00  0.00    +0.000 F 
ENDBRANCH  23  24
ENDBRANCH  22  23
ENDBRANCH   3  22
TORSDOF 5
ENDMDL
MODEL 2
REMARK VINA RESULT:      -9.5      1.077      1.432
REMARK  Name = 
REMARK  5 active torsions:
REMARK  status: ('A' for Active; 'I' for Inactive)
REMARK    1  A    between atoms: N_3  and  C_4
REMARK    2  A    between atoms: C_4  and  C_5
REMARK    3  A    between atoms: C_5  and  C_6
REMARK    4  A    between atoms: N_13  and  C_14
REMARK    5  A    between atoms: C_18  and  C_19
REMARK                            x       y       z     vdW  Elec       q    Type
REMARK                         _______ _______ _______ _____ _____    ______ ____
ROOT
ATOM      1  O   UNL     1       6.751   8.341  16.984  0.00  0.00    +0.000 OA
ATOM      2  C   UNL     1       7.569   7.705  17.640  0.00  0.00    +0.000 C 
ATOM      3  N   UNL     1       8.538   8.338  18.389  0.00  0.00    +0.000 N 
ATOM      4  N   UNL     1       7.630   6.343  17.742  0.00  0.00    +0.000 N 
ATOM      5  H   UNL     1       9.428   7.860  18.420  0.00  0.00    +0.000 HD
ATOM      6  H   UNL     1       8.325   5.971  18.373  0.00  0.00    +0.000 HD
ENDROOT
BRANCH   4   7
ATOM      7  C   UNL     1       6.757   5.423  17.115  0.00  0.00    +0.000 A 
ATOM      8  C   UNL     1       7.093   4.639  16.013  0.00  0.00    +0.000 A 
ATOM      9  C   UNL     1       6.159   3.773  15.444  0.00  0.00    +0.000 A 
ATOM     10  C   UNL     1       4.895   3.633  16.014  0.00  0.00    +0.000 A 
ATOM     11  C   UNL     1       4.554   4.358  17.160  0.00  0.00    +0.000 A 
ATOM     12  C   UNL     1       5.475   5.297  17.652  0.00  0.00    +0.000 A 
BRANCH  11  13
ATOM     13  C   UNL     1       3.274   4.091  17.832  0.00  0.00    +0.000 A 
ATOM     14  N   UNL     1       2.080   4.308  17.303  0.00  0.00    +0.000 NA
ATOM     15  C   UNL     1       1.156   3.882  18.223  0.00  0.00    +0.000 A 
ATOM     16  C   UNL     1       1.779   3.371  19.337  0.00  0.00    +0.000 A 
ATOM     17  N   UNL     1       3.122   3.501  19.072  0.00  0.00    +0.000 N 
ATOM     18  C   UNL     1       4.154   3.090  20.004  0.00  0.00    +0.000 C 
ATOM     19  C   UNL     1       3.658   2.136  21.080  0.00  0.00    +0.000 C 
ATOM     20  C   UNL     1       2.348   2.656  21.666  0.00  0.00    +0.000 C 
ATOM     21  C   UNL     1       1.267   2.743  20.584  0.00  0.00    +0.000 C 
ENDBRANCH  11  13
ENDBRANCH   4   7
BRANCH   3  22
ATOM     22  C   UNL     1       8.603   9.794  18.357  0.00  0.00    +0.000 C 
BRANCH  22  23
ATOM     23  C   UNL     1       9.384  10.384  19.546  0.00  0.00    +0.000 C 
BRANCH  23  24
ATOM     24  C   UNL     1      10.438  11.386  19.148  0.00  0.00    +0.000 A 
ATOM     25  C   UNL     1      10.743  11.589  17.794  0.00  0.00    +0.000 A 
ATOM     26  C   UNL     1      11.685  12.549  17.413  0.00  0.00    +0.000 A 
ATOM     27  C   UNL     1      12.333  13.314  18.382  0.00  0.00    +0.000 A 
ATOM     28  C   UNL     1      12.038  13.120  19.730  0.00  0.00    +0.000 A 
ATOM     29  C   UNL     1      11.095  12.165  20.102  0.00  0.00    +0.000 A 
ATOM     30  F   UNL     1      10.816  12.007  21.403  0.00  0.00    +0.000 F 
ENDBRANCH  23  24
ENDBRANCH  22  23
ENDBRANCH   3  22
TORSDOF 5
ENDMDL
MODEL 3
REMARK VINA RESULT:      -9.4      1.352      1.441
REMARK  Name = 
REMARK  5 active torsions:
REMARK  status: ('A' for Active; 'I' for Inactive)
REMARK    1  A    between atoms: N_3  and  C_4
REMARK    2  A    between atoms: C_4  and  C_5
REMARK    3  A    between atoms: C_5  and  C_6
REMARK    4  A    between atoms: N_13  and  C_14
REMARK    5  A    between atoms: C_18  and  C_19
REMARK                            x       y       z     vdW  Elec       q    Type
REMARK                         _______ _______ _______ _____ _____    ______ ____
ROOT
ATOM      1  O   UNL     1       8.378   7.069  18.845  0.00  0.00    +0.000 OA
ATOM      2  C   UNL     1       7.852   7.851  18.061  0.00  0.00    +0.000 C 
ATOM      3  N   UNL     1       8.165   9.194  18.068  0.00  0.00    +0.000 N 
ATOM      4  N   UNL     1       6.938   7.527  17.097  0.00  0.00    +0.000 N 
ATOM      5  H   UNL     1       7.391   9.809  17.859  0.00  0.00    +0.000 HD
ATOM      6  H   UNL     1       6.644   8.277  16.488  0.00  0.00    +0.000 HD
ENDROOT
BRANCH   4   7
ATOM      7  C   UNL     1       6.441   6.231  16.826  0.00  0.00    +0.000 A 
ATOM      8  C   UNL     1       6.652   5.536  15.636  0.00  0.00    +0.000 A 
ATOM      9  C   UNL     1       6.104   4.268  15.446  0.00  0.00    +0.000 A 
ATOM     10  C   UNL     1       5.391   3.650  16.473  0.00  0.00    +0.000 A 
ATOM     11  C   UNL     1       5.221   4.299  17.700  0.00  0.00    +0.000 A 
ATOM     12  C   UNL     1       5.695   5.614  17.831  0.00  0.00    +0.000 A 
BRANCH  11  13
ATOM     13  C   UNL     1       4.595   3.578  18.819  0.00  0.00    +0.000 A 
ATOM     14  N   UNL     1       5.206   2.682  19.580  0.00  0.00    +0.000 NA
ATOM     15  C   UNL     1       4.299   2.288  20.531  0.00  0.00    +0.000 A 
ATOM     16  C   UNL     1       3.110   2.961  20.379  0.00  0.00    +0.000 A 
ATOM     17  N   UNL     1       3.315   3.783  19.295  0.00  0.00    +0.000 N 
ATOM     18  C   UNL     1       2.295   4.672  18.774  0.00  0.00    +0.000 C 
ATOM     19  C   UNL     1       1.161   4.937  19.753  0.00  0.00    +0.000 C 
ATOM     20  C   UNL     1       0.697   3.621  20.373  0.00  0.00    +0.000 C 
ATOM     21  C   UNL     1       1.838   2.956  21.149  0.00  0.00    +0.000 C 
ENDBRANCH  11  13
ENDBRANCH   4   7
BRANCH   3  22
ATOM     22  C   UNL     1       9.114   9.683  19.060  0.00  0.00    +0.000 C 
BRANCH  22  23
ATOM     23  C   UNL     1       8.947  11.185  19.358  0.00  0.00    +0.000 C 
BRANCH  23  24
ATOM     24  C   UNL     1      10.014  12.053  18.741  0.00  0.00    +0.000 A 
ATOM     25  C   UNL     1       9.774  12.707  17.523  0.00  0.00    +0.000 A 
ATOM     26  C   UNL     1      10.739  13.552  16.967  0.00  0.00    +0.000 A 
ATOM     27  C   UNL     1      11.953  13.751  17.622  0.00  0.00    +0.000 A 
ATOM     28  C   UNL     1      12.203  13.106  18.832  0.00  0.00    +0.000 A 
ATOM     29  C   UNL     1      11.235  12.268  19.382  0.00  0.00    +0.000 A 
ATOM     30  F   UNL     1      11.490  11.671  20.554  0.00  0.00    +0.000 F 
ENDBRANCH  23  24
ENDBRANCH  22  23
ENDBRANCH   3  22
TORSDOF 5
ENDMDL
MODEL 4
REMARK VINA RESULT:      -9.4      1.563      1.765
REMARK  Name = 
REMARK  5 active torsions:
REMARK  status: ('A' for Active; 'I' for Inactive)
REMARK    1  A    between atoms: N_3  and  C_4
REMARK    2  A    between atoms: C_4  and  C_5
REMARK    3  A    between atoms: C_5  and  C_6
REMARK    4  A    between atoms: N_13  and  C_14
REMARK    5  A    between atoms: C_18  and  C_19
REMARK                            x       y       z     vdW  Elec       q    Type
REMARK                         _______ _______ _______ _____ _____    ______ ____
ROOT
ATOM      1  O   UNL     1       8.165   7.005  18.552  0.00  0.00    +0.000 OA
ATOM      2  C   UNL     1       7.590   7.815  17.833  0.00  0.00    +0.000 C 
ATOM      3  N   UNL     1       7.934   9.150  17.837  0.00  0.00    +0.000 N 
ATOM      4  N   UNL     1       6.587   7.531  16.948  0.00  0.00    +0.000 N 
ATOM      5  H   UNL     1       7.159   9.786  17.709  0.00  0.00    +0.000 HD
ATOM      6  H   UNL     1       6.258   8.300  16.382  0.00  0.00    +0.000 HD
ENDROOT
BRANCH   4   7
ATOM      7  C   UNL     1       6.038   6.252  16.698  0.00  0.00    +0.000 A 
ATOM      8  C   UNL     1       6.054   5.613  15.458  0.00  0.00    +0.000 A 
ATOM      9  C   UNL     1       5.466   4.358  15.298  0.00  0.00    +0.000 A 
ATOM     10  C   UNL     1       4.914   3.696  16.393  0.00  0.00    +0.000 A 
ATOM     11  C   UNL     1       4.945   4.286  17.661  0.00  0.00    +0.000 A 
ATOM     12  C   UNL     1       5.449   5.591  17.777  0.00  0.00    +0.000 A 
BRANCH  11  13
ATOM     13  C   UNL     1       4.491   3.516  18.829  0.00  0.00    +0.000 A 
ATOM     14  N   UNL     1       5.240   2.668  19.516  0.00  0.00    +0.000 NA
ATOM     15  C   UNL     1       4.467   2.203  20.548  0.00  0.00    +0.000 A 
ATOM     16  C   UNL     1       3.221   2.783  20.522  0.00  0.00    +0.000 A 
ATOM     17  N   UNL     1       3.253   3.621  19.433  0.00  0.00    +0.000 N 
ATOM     18  C   UNL     1       2.121   4.431  19.026  0.00  0.00    +0.000 C 
ATOM     19  C   UNL     1       1.074   4.605  20.115  0.00  0.00    +0.000 C 
ATOM     20  C   UNL     1       0.776   3.256  20.765  0.00  0.00    +0.000 C 
ATOM     21  C   UNL     1       2.036   2.678  21.416  0.00  0.00    +0.000 C 
ENDBRANCH  11  13
ENDBRANCH   4   7
BRANCH   3  22
ATOM     22  C   UNL     1       8.978   9.598  18.750  0.00  0.00    +0.000 C 
BRANCH  22  23
ATOM     23  C   UNL     1       9.783  10.790  18.200  0.00  0.00    +0.000 C 
BRANCH  23  24
ATOM     24  C   UNL     1       9.408  12.116  18.812  0.00  0.00    +0.000 A 
ATOM     25  C   UNL     1       8.634  13.034  18.086  0.00  0.00    +0.000 A 
ATOM     26  C   UNL     1       8.242  14.245  18.662  0.00  0.00    +0.000 A 
ATOM     27  C   UNL     1       8.619  14.552  19.969  0.00  0.00    +0.000 A 
ATOM     28  C   UNL     1       9.388  13.647  20.699  0.00  0.00    +0.000 A 
ATOM     29  C   UNL     1       9.772  12.440  20.120  0.00  0.00    +0.000 A 
ATOM     30  F   UNL     1      10.497  11.578  20.846  0.00  0.00    +0.000 F 
ENDBRANCH  23  24
ENDBRANCH  22  23
ENDBRANCH   3  22
TORSDOF 5
ENDMDL
MODEL 5
REMARK VINA RESULT:      -9.4      1.924      2.294
REMARK  Name = 
REMARK  5 active torsions:
REMARK  status: ('A' for Active; 'I' for Inactive)
REMARK    1  A    between atoms: N_3  and  C_4
REMARK    2  A    between atoms: C_4  and  C_5
REMARK    3  A    between atoms: C_5  and  C_6
REMARK    4  A    between atoms: N_13  and  C_14
REMARK    5  A    between atoms: C_18  and  C_19
REMARK                            x       y       z     vdW  Elec       q    Type
REMARK                         _______ _______ _______ _____ _____    ______ ____
ROOT
ATOM      1  O   UNL     1       8.170   7.087  18.530  0.00  0.00    +0.000 OA
ATOM      2  C   UNL     1       7.615   7.853  17.751  0.00  0.00    +0.000 C 
ATOM      3  N   UNL     1       7.911   9.200  17.734  0.00  0.00    +0.000 N 
ATOM      4  N   UNL     1       6.682   7.506  16.813  0.00  0.00    +0.000 N 
ATOM      5  H   UNL     1       7.124   9.803  17.537  0.00  0.00    +0.000 HD
ATOM      6  H   UNL     1       6.364   8.245  16.203  0.00  0.00    +0.000 HD
ENDROOT
BRANCH   4   7
ATOM      7  C   UNL     1       6.196   6.200  16.570  0.00  0.00    +0.000 A 
ATOM      8  C   UNL     1       6.880   5.223  15.847  0.00  0.00    +0.000 A 
ATOM      9  C   UNL     1       6.313   3.967  15.636  0.00  0.00    +0.000 A 
ATOM     10  C   UNL     1       5.080   3.649  16.205  0.00  0.00    +0.000 A 
ATOM     11  C   UNL     1       4.404   4.588  16.990  0.00  0.00    +0.000 A 
ATOM     12  C   UNL     1       4.947   5.878  17.102  0.00  0.00    +0.000 A 
BRANCH  11  13
ATOM     13  C   UNL     1       3.179   4.190  17.701  0.00  0.00    +0.000 A 
ATOM     14  N   UNL     1       1.953   4.289  17.212  0.00  0.00    +0.000 NA
ATOM     15  C   UNL     1       1.107   3.769  18.158  0.00  0.00    +0.000 A 
ATOM     16  C   UNL     1       1.814   3.317  19.247  0.00  0.00    +0.000 A 
ATOM     17  N   UNL     1       3.127   3.581  18.940  0.00  0.00    +0.000 N 
ATOM     18  C   UNL     1       4.226   3.272  19.835  0.00  0.00    +0.000 C 
ATOM     19  C   UNL     1       3.863   2.267  20.918  0.00  0.00    +0.000 C 
ATOM     20  C   UNL     1       2.528   2.650  21.551  0.00  0.00    +0.000 C 
ATOM     21  C   UNL     1       1.409   2.634  20.504  0.00  0.00    +0.000 C 
ENDBRANCH  11  13
ENDBRANCH   4   7
BRANCH   3  22
ATOM     22  C   UNL     1       8.877   9.713  18.696  0.00  0.00    +0.000 C 
BRANCH  22  23
ATOM     23  C   UNL     1       9.754  10.840  18.121  0.00  0.00    +0.000 C 
BRANCH  23  24
ATOM     24  C   UNL     1       9.356  12.220  18.579  0.00  0.00    +0.000 A 
ATOM     25  C   UNL     1       9.987  12.804  19.688  0.00  0.00    +0.000 A 
ATOM     26  C   UNL     1       9.659  14.102  20.091  0.00  0.00    +0.000 A 
ATOM     27  C   UNL     1       8.696  14.828  19.391  0.00  0.00    +0.000 A 
ATOM     28  C   UNL     1       8.063  14.257  18.289  0.00  0.00    +0.000 A 
ATOM     29  C   UNL     1       8.398  12.965  17.890  0.00  0.00    +0.000 A 
ATOM     30  F   UNL     1       7.788  12.442  16.817  0.00  0.00    +0.000 F 
ENDBRANCH  23  24
ENDBRANCH  22  23
ENDBRANCH   3  22
TORSDOF 5
ENDMDL
MODEL 6
REMARK VINA RESULT:      -9.3      0.962      1.321
REMARK  Name = 
REMARK  5 active torsions:
REMARK  status: ('A' for Active; 'I' for Inactive)
REMARK    1  A    between atoms: N_3  and  C_4
REMARK    2  A    between atoms: C_4  and  C_5
REMARK    3  A    between atoms: C_5  and  C_6
REMARK    4  A    between atoms: N_13  and  C_14
REMARK    5  A    between atoms: C_18  and  C_19
REMARK                            x       y       z     vdW  Elec       q    Type
REMARK                         _______ _______ _______ _____ _____    ______ ____
ROOT
ATOM      1  O   UNL     1       6.981   8.444  17.073  0.00  0.00    +0.000 OA
ATOM      2  C   UNL     1       7.728   7.741  17.745  0.00  0.00    +0.000 C 
ATOM      3  N   UNL     1       8.664   8.295  18.593  0.00  0.00    +0.000 N 
ATOM      4  N   UNL     1       7.734   6.374  17.772  0.00  0.00    +0.000 N 
ATOM      5  H   UNL     1       9.532   7.781  18.657  0.00  0.00    +0.000 HD
ATOM      6  H   UNL     1       8.371   5.942  18.426  0.00  0.00    +0.000 HD
ENDROOT
BRANCH   4   7
ATOM      7  C   UNL     1       6.876   5.525  17.035  0.00  0.00    +0.000 A 
ATOM      8  C   UNL     1       7.022   5.238  15.678  0.00  0.00    +0.000 A 
ATOM      9  C   UNL     1       6.113   4.406  15.025  0.00  0.00    +0.000 A 
ATOM     10  C   UNL     1       5.082   3.795  15.740  0.00  0.00    +0.000 A 
ATOM     11  C   UNL     1       4.954   4.014  17.115  0.00  0.00    +0.000 A 
ATOM     12  C   UNL     1       5.818   4.935  17.728  0.00  0.00    +0.000 A 
BRANCH  11  13
ATOM     13  C   UNL     1       3.955   3.251  17.879  0.00  0.00    +0.000 A 
ATOM     14  N   UNL     1       3.825   1.933  17.852  0.00  0.00    +0.000 NA
ATOM     15  C   UNL     1       2.823   1.617  18.734  0.00  0.00    +0.000 A 
ATOM     16  C   UNL     1       2.332   2.750  19.339  0.00  0.00    +0.000 A 
ATOM     17  N   UNL     1       3.065   3.777  18.794  0.00  0.00    +0.000 N 
ATOM     18  C   UNL     1       2.861   5.169  19.150  0.00  0.00    +0.000 C 
ATOM     19  C   UNL     1       2.095   5.358  20.450  0.00  0.00    +0.000 C 
ATOM     20  C   UNL     1       0.874   4.441  20.469  0.00  0.00    +0.000 C 
ATOM     21  C   UNL     1       1.300   2.972  20.387  0.00  0.00    +0.000 C 
ENDBRANCH  11  13
ENDBRANCH   4   7
BRANCH   3  22
ATOM     22  C   UNL     1       8.781   9.746  18.650  0.00  0.00    +0.000 C 
BRANCH  22  23
ATOM     23  C   UNL     1       9.678  10.230  19.805  0.00  0.00    +0.000 C 
BRANCH  23  24
ATOM     24  C   UNL     1      10.074  11.680  19.705  0.00  0.00    +0.000 A 
ATOM     25  C   UNL     1       9.695  12.585  20.708  0.00  0.00    +0.000 A 
ATOM     26  C   UNL     1      10.099  13.922  20.649  0.00  0.00    +0.000 A 
ATOM     27  C   UNL     1      10.884  14.369  19.587  0.00  0.00    +0.000 A 
ATOM     28  C   UNL     1      11.265  13.478  18.585  0.00  0.00    +0.000 A 
ATOM     29  C   UNL     1      10.863  12.146  18.652  0.00  0.00    +0.000 A 
ATOM     30  F   UNL     1      11.255  11.305  17.686  0.00  0.00    +0.000 F 
ENDBRANCH  23  24
ENDBRANCH  22  23
ENDBRANCH   3  22
TORSDOF 5
ENDMDL
MODEL 7
REMARK VINA RESULT:      -9.1      1.346      1.853
REMARK  Name = 
REMARK  5 active torsions:
REMARK  status: ('A' for Active; 'I' for Inactive)
REMARK    1  A    between atoms: N_3  and  C_4
REMARK    2  A    between atoms: C_4  and  C_5
REMARK    3  A    between atoms: C_5  and  C_6
REMARK    4  A    between atoms: N_13  and  C_14
REMARK    5  A    between atoms: C_18  and  C_19
REMARK                            x       y       z     vdW  Elec       q    Type
REMARK                         _______ _______ _______ _____ _____    ______ ____
ROOT
ATOM      1  O   UNL     1       7.350   8.529  17.096  0.00  0.00    +0.000 OA
ATOM      2  C   UNL     1       7.905   7.907  17.994  0.00  0.00    +0.000 C 
ATOM      3  N   UNL     1       8.747   8.533  18.888  0.00  0.00    +0.000 N 
ATOM      4  N   UNL     1       7.766   6.570  18.248  0.00  0.00    +0.000 N 
ATOM      5  H   UNL     1       9.537   7.977  19.186  0.00  0.00    +0.000 HD
ATOM      6  H   UNL     1       8.243   6.217  19.065  0.00  0.00    +0.000 HD
ENDROOT
BRANCH   4   7
ATOM      7  C   UNL     1       6.952   5.668  17.524  0.00  0.00    +0.000 A 
ATOM      8  C   UNL     1       7.387   4.904  16.442  0.00  0.00    +0.000 A 
ATOM      9  C   UNL     1       6.507   4.055  15.771  0.00  0.00    +0.000 A 
ATOM     10  C   UNL     1       5.195   3.909  16.218  0.00  0.00    +0.000 A 
ATOM     11  C   UNL     1       4.752   4.613  17.343  0.00  0.00    +0.000 A 
ATOM     12  C   UNL     1       5.626   5.537  17.937  0.00  0.00    +0.000 A 
BRANCH  11  13
ATOM     13  C   UNL     1       3.414   4.339  17.888  0.00  0.00    +0.000 A 
ATOM     14  N   UNL     1       2.274   4.598  17.266  0.00  0.00    +0.000 NA
ATOM     15  C   UNL     1       1.267   4.149  18.082  0.00  0.00    +0.000 A 
ATOM     16  C   UNL     1       1.782   3.581  19.223  0.00  0.00    +0.000 A 
ATOM     17  N   UNL     1       3.145   3.699  19.082  0.00  0.00    +0.000 N 
ATOM     18  C   UNL     1       4.086   3.232  20.082  0.00  0.00    +0.000 C 
ATOM     19  C   UNL     1       3.485   2.241  21.068  0.00  0.00    +0.000 C 
ATOM     20  C   UNL     1       2.135   2.758  21.559  0.00  0.00    +0.000 C 
ATOM     21  C   UNL     1       1.155   2.908  20.391  0.00  0.00    +0.000 C 
ENDBRANCH  11  13
ENDBRANCH   4   7
BRANCH   3  22
ATOM     22  C   UNL     1       9.002   9.959  18.724  0.00  0.00    +0.000 C 
BRANCH  22  23
ATOM     23  C   UNL     1       9.856  10.549  19.861  0.00  0.00    +0.000 C 
BRANCH  23  24
ATOM     24  C   UNL     1      10.336  11.954  19.600  0.00  0.00    +0.000 A 
ATOM     25  C   UNL     1       9.880  13.015  20.397  0.00  0.00    +0.000 A 
ATOM     26  C   UNL     1      10.356  14.313  20.194  0.00  0.00    +0.000 A 
ATOM     27  C   UNL     1      11.291  14.565  19.190  0.00  0.00    +0.000 A 
ATOM     28  C   UNL     1      11.750  13.519  18.392  0.00  0.00    +0.000 A 
ATOM     29  C   UNL     1      11.274  12.227  18.603  0.00  0.00    +0.000 A 
ATOM     30  F   UNL     1      11.742  11.234  17.834  0.00  0.00    +0.000 F 
ENDBRANCH  23  24
ENDBRANCH  22  23
ENDBRANCH   3  22
TORSDOF 5
ENDMDL
MODEL 8
REMARK VINA RESULT:      -9.0      1.533      1.740
REMARK  Name = 
REMARK  5 active torsions:
REMARK  status: ('A' for Active; 'I' for Inactive)
REMARK    1  A    between atoms: N_3  and  C_4
REMARK    2  A    between atoms: C_4  and  C_5
REMARK    3  A    between atoms: C_5  and  C_6
REMARK    4  A    between atoms: N_13  and  C_14
REMARK    5  A    between atoms: C_18  and  C_19
REMARK                            x       y       z     vdW  Elec       q    Type
REMARK                         _______ _______ _______ _____ _____    ______ ____
ROOT
ATOM      1  O   UNL     1       7.384   9.151  17.760  0.00  0.00    +0.000 OA
ATOM      2  C   UNL     1       8.184   8.527  18.449  0.00  0.00    +0.000 C 
ATOM      3  N   UNL     1       9.145   9.173  19.198  0.00  0.00    +0.000 N 
ATOM      4  N   UNL     1       8.231   7.168  18.590  0.00  0.00    +0.000 N 
ATOM      5  H   UNL     1      10.029   8.688  19.259  0.00  0.00    +0.000 HD
ATOM      6  H   UNL     1       8.911   6.809  19.244  0.00  0.00    +0.000 HD
ENDROOT
BRANCH   4   7
ATOM      7  C   UNL     1       7.361   6.239  17.973  0.00  0.00    +0.000 A 
ATOM      8  C   UNL     1       7.345   5.958  16.607  0.00  0.00    +0.000 A 
ATOM      9  C   UNL     1       6.435   5.041  16.080  0.00  0.00    +0.000 A 
ATOM     10  C   UNL     1       5.574   4.343  16.925  0.00  0.00    +0.000 A 
ATOM     11  C   UNL     1       5.617   4.556  18.307  0.00  0.00    +0.000 A 
ATOM     12  C   UNL     1       6.469   5.557  18.800  0.00  0.00    +0.000 A 
BRANCH  11  13
ATOM     13  C   UNL     1       4.808   3.708  19.195  0.00  0.00    +0.000 A 
ATOM     14  N   UNL     1       5.196   2.545  19.694  0.00  0.00    +0.000 NA
ATOM     15  C   UNL     1       4.183   2.105  20.507  0.00  0.00    +0.000 A 
ATOM     16  C   UNL     1       3.153   3.015  20.536  0.00  0.00    +0.000 A 
ATOM     17  N   UNL     1       3.567   4.031  19.708  0.00  0.00    +0.000 N 
ATOM     18  C   UNL     1       2.762   5.208  19.439  0.00  0.00    +0.000 C 
ATOM     19  C   UNL     1       1.649   5.429  20.452  0.00  0.00    +0.000 C 
ATOM     20  C   UNL     1       0.912   4.116  20.703  0.00  0.00    +0.000 C 
ATOM     21  C   UNL     1       1.864   3.062  21.277  0.00  0.00    +0.000 C 
ENDBRANCH  11  13
ENDBRANCH   4   7
BRANCH   3  22
ATOM     22  C   UNL     1       9.223  10.627  19.127  0.00  0.00    +0.000 C 
BRANCH  22  23
ATOM     23  C   UNL     1      10.618  11.132  18.717  0.00  0.00    +0.000 C 
BRANCH  23  24
ATOM     24  C   UNL     1      10.786  12.626  18.831  0.00  0.00    +0.000 A 
ATOM     25  C   UNL     1      11.703  13.164  19.747  0.00  0.00    +0.000 A 
ATOM     26  C   UNL     1      11.901  14.546  19.826  0.00  0.00    +0.000 A 
ATOM     27  C   UNL     1      11.183  15.403  18.993  0.00  0.00    +0.000 A 
ATOM     28  C   UNL     1      10.269  14.879  18.080  0.00  0.00    +0.000 A 
ATOM     29  C   UNL     1      10.081  13.501  18.004  0.00  0.00    +0.000 A 
ATOM     30  F   UNL     1       9.209  13.018  17.108  0.00  0.00    +0.000 F 
ENDBRANCH  23  24
ENDBRANCH  22  23
ENDBRANCH   3  22
TORSDOF 5
ENDMDL
MODEL 9
REMARK VINA RESULT:      -9.0      1.484      1.760
REMARK  Name = 
REMARK  5 active torsions:
REMARK  status: ('A' for Active; 'I' for Inactive)
REMARK    1  A    between atoms: N_3  and  C_4
REMARK    2  A    between atoms: C_4  and  C_5
REMARK    3  A    between atoms: C_5  and  C_6
REMARK    4  A    between atoms: N_13  and  C_14
REMARK    5  A    between atoms: C_18  and  C_19
REMARK                            x       y       z     vdW  Elec       q    Type
REMARK                         _______ _______ _______ _____ _____    ______ ____
ROOT
ATOM      1  O   UNL     1       8.108   6.928  18.708  0.00  0.00    +0.000 OA
ATOM      2  C   UNL     1       7.641   7.742  17.920  0.00  0.00    +0.000 C 
ATOM      3  N   UNL     1       8.067   9.054  17.904  0.00  0.00    +0.000 N 
ATOM      4  N   UNL     1       6.691   7.485  16.970  0.00  0.00    +0.000 N 
ATOM      5  H   UNL     1       7.345   9.730  17.696  0.00  0.00    +0.000 HD
ATOM      6  H   UNL     1       6.454   8.249  16.355  0.00  0.00    +0.000 HD
ENDROOT
BRANCH   4   7
ATOM      7  C   UNL     1       6.083   6.232  16.723  0.00  0.00    +0.000 A 
ATOM      8  C   UNL     1       6.041   5.606  15.478  0.00  0.00    +0.000 A 
ATOM      9  C   UNL     1       5.397   4.378  15.321  0.00  0.00    +0.000 A 
ATOM     10  C   UNL     1       4.845   3.729  16.424  0.00  0.00    +0.000 A 
ATOM     11  C   UNL     1       4.933   4.304  17.696  0.00  0.00    +0.000 A 
ATOM     12  C   UNL     1       5.494   5.586  17.811  0.00  0.00    +0.000 A 
BRANCH  11  13
ATOM     13  C   UNL     1       4.477   3.542  18.868  0.00  0.00    +0.000 A 
ATOM     14  N   UNL     1       5.237   2.732  19.589  0.00  0.00    +0.000 NA
ATOM     15  C   UNL     1       4.455   2.262  20.612  0.00  0.00    +0.000 A 
ATOM     16  C   UNL     1       3.192   2.800  20.546  0.00  0.00    +0.000 A 
ATOM     17  N   UNL     1       3.222   3.617  19.441  0.00  0.00    +0.000 N 
ATOM     18  C   UNL     1       2.074   4.381  18.992  0.00  0.00    +0.000 C 
ATOM     19  C   UNL     1       0.996   4.541  20.053  0.00  0.00    +0.000 C 
ATOM     20  C   UNL     1       0.727   3.196  20.722  0.00  0.00    +0.000 C 
ATOM     21  C   UNL     1       1.990   2.672  21.413  0.00  0.00    +0.000 C 
ENDBRANCH  11  13
ENDBRANCH   4   7
BRANCH   3  22
ATOM     22  C   UNL     1       9.066   9.474  18.879  0.00  0.00    +0.000 C 
BRANCH  22  23
ATOM     23  C   UNL     1       8.823  10.899  19.409  0.00  0.00    +0.000 C 
BRANCH  23  24
ATOM     24  C   UNL     1      10.010  11.816  19.263  0.00  0.00    +0.000 A 
ATOM     25  C   UNL     1      10.429  12.606  20.344  0.00  0.00    +0.000 A 
ATOM     26  C   UNL     1      11.557  13.424  20.233  0.00  0.00    +0.000 A 
ATOM     27  C   UNL     1      12.277  13.462  19.040  0.00  0.00    +0.000 A 
ATOM     28  C   UNL     1      11.869  12.683  17.959  0.00  0.00    +0.000 A 
ATOM     29  C   UNL     1      10.747  11.867  18.078  0.00  0.00    +0.000 A 
ATOM     30  F   UNL     1      10.383  11.113  17.031  0.00  0.00    +0.000 F 
ENDBRANCH  23  24
ENDBRANCH  22  23
ENDBRANCH   3  22
TORSDOF 5
ENDMDL
