MODEL 1
REMARK VINA RESULT:      -9.4      0.000      0.000
REMARK  Name = 
REMARK  5 active torsions:
REMARK  status: ('A' for Active; 'I' for Inactive)
REMARK    1  A    between atoms: C_1  and  N_2
REMARK    2  A    between atoms: C_6  and  C_7
REMARK    3  A    between atoms: C_11  and  N_12
REMARK    4  A    between atoms: C_13  and  C_15
REMARK    5  A    between atoms: C_18  and  C_19
REMARK                            x       y       z     vdW  Elec       q    Type
REMARK                         _______ _______ _______ _____ _____    ______ ____
ROOT
ATOM      1  N   UNL     1       6.850   7.753  17.085  0.00  0.00    +0.000 N 
ATOM      2  C   UNL     1       7.847   8.061  17.998  0.00  0.00    +0.000 C 
ATOM      3  O   UNL     1       8.403   7.230  18.717  0.00  0.00    +0.000 OA
ATOM      4  H   UNL     1       6.587   8.489  16.444  0.00  0.00    +0.000 HD
ENDROOT
BRANCH   2   5
ATOM      5  C   UNL     1       8.286   9.442  18.056  0.00  0.00    +0.000 A 
ATOM      6  C   UNL     1       9.392   9.924  18.747  0.00  0.00    +0.000 A 
ATOM      7  C   UNL     1       9.413  11.307  18.556  0.00  0.00    +0.000 A 
ATOM      8  C   UNL     1      10.244  12.377  18.987  0.00  0.00    +0.000 A 
ATOM      9  C   UNL     1       9.926  13.637  18.613  0.00  0.00    +0.000 A 
ATOM     10  C   UNL     1       8.722  13.914  17.760  0.00  0.00    +0.000 A 
ATOM     11  O   UNL     1       8.450  15.068  17.447  0.00  0.00    +0.000 OA
ATOM     12  N   UNL     1       7.960  12.839  17.356  0.00  0.00    +0.000 N 
ATOM     13  C   UNL     1       8.329  11.592  17.768  0.00  0.00    +0.000 A 
ATOM     14  O   UNL     1       7.628  10.476  17.434  0.00  0.00    +0.000 OA
ATOM     15  H   UNL     1       7.140  12.993  16.786  0.00  0.00    +0.000 HD
BRANCH   8  16
ATOM     16  C   UNL     1      11.441  12.079  19.835  0.00  0.00    +0.000 C 
ATOM     17  F   UNL     1      12.290  11.150  19.320  0.00  0.00    +0.000 F 
ATOM     18  F   UNL     1      12.186  13.196  20.046  0.00  0.00    +0.000 F 
ATOM     19  F   UNL     1      11.075  11.621  21.061  0.00  0.00    +0.000 F 
ENDBRANCH   8  16
ENDBRANCH   2   5
BRANCH   1  24
ATOM     20  C   UNL     1       4.547   4.815  17.124  0.00  0.00    +0.000 A 
ATOM     21  C   UNL     1       5.227   3.938  16.266  0.00  0.00    +0.000 A 
ATOM     22  C   UNL     1       6.471   4.274  15.747  0.00  0.00    +0.000 A 
ATOM     23  C   UNL     1       7.037   5.509  16.054  0.00  0.00    +0.000 A 
ATOM     24  C   UNL     1       6.361   6.438  16.853  0.00  0.00    +0.000 A 
ATOM     25  C   UNL     1       5.129   6.066  17.414  0.00  0.00    +0.000 A 
BRANCH  20  31
ATOM     26  C   UNL     1       3.086   5.525  19.893  0.00  0.00    +0.000 C 
ATOM     27  N   UNL     1       2.611   4.739  18.790  0.00  0.00    +0.000 N 
ATOM     28  N   UNL     1       1.418   4.127  18.881  0.00  0.00    +0.000 NA
ATOM     29  N   UNL     1       1.309   3.412  17.774  0.00  0.00    +0.000 NA
ATOM     30  N   UNL     1       2.418   3.563  16.986  0.00  0.00    +0.000 NA
ATOM     31  C   UNL     1       3.228   4.404  17.610  0.00  0.00    +0.000 A 
ENDBRANCH  20  31
ENDBRANCH   1  24
TORSDOF 4
ENDMDL
MODEL 2
REMARK VINA RESULT:      -9.4      0.717      1.030
REMARK  Name = 
REMARK  5 active torsions:
REMARK  status: ('A' for Active; 'I' for Inactive)
REMARK    1  A    between atoms: C_1  and  N_2
REMARK    2  A    between atoms: C_6  and  C_7
REMARK    3  A    between atoms: C_11  and  N_12
REMARK    4  A    between atoms: C_13  and  C_15
REMARK    5  A    between atoms: C_18  and  C_19
REMARK                            x       y       z     vdW  Elec       q    Type
REMARK                         _______ _______ _______ _____ _____    ______ ____
ROOT
ATOM      1  N   UNL     1       6.886   7.778  17.134  0.00  0.00    +0.000 N 
ATOM      2  C   UNL     1       7.896   8.090  18.033  0.00  0.00    +0.000 C 
ATOM      3  O   UNL     1       8.462   7.261  18.747  0.00  0.00    +0.000 OA
ATOM      4  H   UNL     1       6.614   8.512  16.495  0.00  0.00    +0.000 HD
ENDROOT
BRANCH   2   5
ATOM      5  C   UNL     1       8.335   9.471  18.082  0.00  0.00    +0.000 A 
ATOM      6  C   UNL     1       9.450   9.956  18.756  0.00  0.00    +0.000 A 
ATOM      7  C   UNL     1       9.468  11.337  18.560  0.00  0.00    +0.000 A 
ATOM      8  C   UNL     1      10.304  12.409  18.977  0.00  0.00    +0.000 A 
ATOM      9  C   UNL     1       9.980  13.668  18.604  0.00  0.00    +0.000 A 
ATOM     10  C   UNL     1       8.765  13.942  17.766  0.00  0.00    +0.000 A 
ATOM     11  O   UNL     1       8.488  15.095  17.454  0.00  0.00    +0.000 OA
ATOM     12  N   UNL     1       7.998  12.865  17.376  0.00  0.00    +0.000 N 
ATOM     13  C   UNL     1       8.373  11.620  17.786  0.00  0.00    +0.000 A 
ATOM     14  O   UNL     1       7.669  10.503  17.465  0.00  0.00    +0.000 OA
ATOM     15  H   UNL     1       7.171  13.017  16.816  0.00  0.00    +0.000 HD
BRANCH   8  16
ATOM     16  C   UNL     1      11.513  12.114  19.809  0.00  0.00    +0.000 C 
ATOM     17  F   UNL     1      12.332  13.177  20.026  0.00  0.00    +0.000 F 
ATOM     18  F   UNL     1      11.164  11.649  21.037  0.00  0.00    +0.000 F 
ATOM     19  F   UNL     1      12.282  11.152  19.236  0.00  0.00    +0.000 F 
ENDBRANCH   8  16
ENDBRANCH   2   5
BRANCH   1  24
ATOM     20  C   UNL     1       4.680   4.777  17.377  0.00  0.00    +0.000 A 
ATOM     21  C   UNL     1       5.236   3.962  16.380  0.00  0.00    +0.000 A 
ATOM     22  C   UNL     1       6.378   4.358  15.693  0.00  0.00    +0.000 A 
ATOM     23  C   UNL     1       6.958   5.592  15.972  0.00  0.00    +0.000 A 
ATOM     24  C   UNL     1       6.395   6.462  16.913  0.00  0.00    +0.000 A 
ATOM     25  C   UNL     1       5.274   6.029  17.637  0.00  0.00    +0.000 A 
BRANCH  20  31
ATOM     26  C   UNL     1       4.350   2.656  19.764  0.00  0.00    +0.000 C 
ATOM     27  N   UNL     1       3.344   3.413  19.075  0.00  0.00    +0.000 N 
ATOM     28  N   UNL     1       2.049   3.213  19.373  0.00  0.00    +0.000 NA
ATOM     29  N   UNL     1       1.376   3.964  18.518  0.00  0.00    +0.000 NA
ATOM     30  N   UNL     1       2.229   4.634  17.682  0.00  0.00    +0.000 NA
ATOM     31  C   UNL     1       3.461   4.306  18.038  0.00  0.00    +0.000 A 
ENDBRANCH  20  31
ENDBRANCH   1  24
TORSDOF 4
ENDMDL
MODEL 3
REMARK VINA RESULT:      -9.4      6.404      7.969
REMARK  Name = 
REMARK  5 active torsions:
REMARK  status: ('A' for Active; 'I' for Inactive)
REMARK    1  A    between atoms: C_1  and  N_2
REMARK    2  A    between atoms: C_6  and  C_7
REMARK    3  A    between atoms: C_11  and  N_12
REMARK    4  A    between atoms: C_13  and  C_15
REMARK    5  A    between atoms: C_18  and  C_19
REMARK                            x       y       z     vdW  Elec       q    Type
REMARK                         _______ _______ _______ _____ _____    ______ ____
ROOT
ATOM      1  N   UNL     1       2.018   7.157  18.981  0.00  0.00    +0.000 N 
ATOM      2  C   UNL     1       1.961   8.405  18.377  0.00  0.00    +0.000 C 
ATOM      3  O   UNL     1       2.389   8.642  17.247  0.00  0.00    +0.000 OA
ATOM      4  H   UNL     1       1.493   7.052  19.839  0.00  0.00    +0.000 HD
ENDROOT
BRANCH   2   5
ATOM      5  C   UNL     1       1.307   9.468  19.114  0.00  0.00    +0.000 A 
ATOM      6  C   UNL     1       1.028  10.745  18.641  0.00  0.00    +0.000 A 
ATOM      7  C   UNL     1       0.428  11.440  19.692  0.00  0.00    +0.000 A 
ATOM      8  C   UNL     1      -0.075  12.757  19.880  0.00  0.00    +0.000 A 
ATOM      9  C   UNL     1      -0.575  13.094  21.090  0.00  0.00    +0.000 A 
ATOM     10  C   UNL     1      -0.604  12.107  22.221  0.00  0.00    +0.000 A 
ATOM     11  O   UNL     1      -1.052  12.445  23.313  0.00  0.00    +0.000 OA
ATOM     12  N   UNL     1      -0.119  10.840  21.981  0.00  0.00    +0.000 N 
ATOM     13  C   UNL     1       0.375  10.561  20.741  0.00  0.00    +0.000 A 
ATOM     14  O   UNL     1       0.890   9.344  20.418  0.00  0.00    +0.000 OA
ATOM     15  H   UNL     1      -0.121  10.155  22.723  0.00  0.00    +0.000 HD
BRANCH   8  16
ATOM     16  C   UNL     1      -0.039  13.725  18.738  0.00  0.00    +0.000 C 
ATOM     17  F   UNL     1       1.203  13.995  18.256  0.00  0.00    +0.000 F 
ATOM     18  F   UNL     1      -0.764  13.269  17.683  0.00  0.00    +0.000 F 
ATOM     19  F   UNL     1      -0.579  14.921  19.090  0.00  0.00    +0.000 F 
ENDBRANCH   8  16
ENDBRANCH   2   5
BRANCH   1  24
ATOM     20  C   UNL     1       4.543   4.752  17.651  0.00  0.00    +0.000 A 
ATOM     21  C   UNL     1       3.724   3.654  17.349  0.00  0.00    +0.000 A 
ATOM     22  C   UNL     1       2.345   3.733  17.499  0.00  0.00    +0.000 A 
ATOM     23  C   UNL     1       1.770   4.902  17.988  0.00  0.00    +0.000 A 
ATOM     24  C   UNL     1       2.558   5.996  18.364  0.00  0.00    +0.000 A 
ATOM     25  C   UNL     1       3.944   5.924  18.157  0.00  0.00    +0.000 A 
BRANCH  20  31
ATOM     26  C   UNL     1       6.262   4.326  14.974  0.00  0.00    +0.000 C 
ATOM     27  N   UNL     1       6.708   4.427  16.334  0.00  0.00    +0.000 N 
ATOM     28  N   UNL     1       8.013   4.266  16.614  0.00  0.00    +0.000 NA
ATOM     29  N   UNL     1       8.093   4.311  17.933  0.00  0.00    +0.000 NA
ATOM     30  N   UNL     1       6.856   4.496  18.490  0.00  0.00    +0.000 NA
ATOM     31  C   UNL     1       5.989   4.585  17.493  0.00  0.00    +0.000 A 
ENDBRANCH  20  31
ENDBRANCH   1  24
TORSDOF 4
ENDMDL
MODEL 4
REMARK VINA RESULT:      -9.3      0.983      1.392
REMARK  Name = 
REMARK  5 active torsions:
REMARK  status: ('A' for Active; 'I' for Inactive)
REMARK    1  A    between atoms: C_1  and  N_2
REMARK    2  A    between atoms: C_6  and  C_7
REMARK    3  A    between atoms: C_11  and  N_12
REMARK    4  A    between atoms: C_13  and  C_15
REMARK    5  A    between atoms: C_18  and  C_19
REMARK                            x       y       z     vdW  Elec       q    Type
REMARK                         _______ _______ _______ _____ _____    ______ ____
ROOT
ATOM      1  N   UNL     1       6.958   7.694  17.090  0.00  0.00    +0.000 N 
ATOM      2  C   UNL     1       7.931   8.041  18.016  0.00  0.00    +0.000 C 
ATOM      3  O   UNL     1       8.509   7.231  18.742  0.00  0.00    +0.000 OA
ATOM      4  H   UNL     1       6.675   8.420  16.446  0.00  0.00    +0.000 HD
ENDROOT
BRANCH   2   5
ATOM      5  C   UNL     1       8.315   9.437  18.080  0.00  0.00    +0.000 A 
ATOM      6  C   UNL     1       9.364   9.968  18.823  0.00  0.00    +0.000 A 
ATOM      7  C   UNL     1       9.345  11.348  18.615  0.00  0.00    +0.000 A 
ATOM      8  C   UNL     1      10.112  12.453  19.076  0.00  0.00    +0.000 A 
ATOM      9  C   UNL     1       9.769  13.696  18.669  0.00  0.00    +0.000 A 
ATOM     10  C   UNL     1       8.604  13.918  17.749  0.00  0.00    +0.000 A 
ATOM     11  O   UNL     1       8.308  15.059  17.407  0.00  0.00    +0.000 OA
ATOM     12  N   UNL     1       7.905  12.811  17.318  0.00  0.00    +0.000 N 
ATOM     13  C   UNL     1       8.297  11.584  17.766  0.00  0.00    +0.000 A 
ATOM     14  O   UNL     1       7.656  10.439  17.409  0.00  0.00    +0.000 OA
ATOM     15  H   UNL     1       7.113  12.929  16.703  0.00  0.00    +0.000 HD
BRANCH   8  16
ATOM     16  C   UNL     1      11.271  12.209  19.991  0.00  0.00    +0.000 C 
ATOM     17  F   UNL     1      10.941  11.722  21.217  0.00  0.00    +0.000 F 
ATOM     18  F   UNL     1      12.145  11.318  19.453  0.00  0.00    +0.000 F 
ATOM     19  F   UNL     1      11.972  13.351  20.213  0.00  0.00    +0.000 F 
ENDBRANCH   8  16
ENDBRANCH   2   5
BRANCH   1  24
ATOM     20  C   UNL     1       5.230   4.428  17.617  0.00  0.00    +0.000 A 
ATOM     21  C   UNL     1       5.446   3.814  16.374  0.00  0.00    +0.000 A 
ATOM     22  C   UNL     1       6.225   4.431  15.403  0.00  0.00    +0.000 A 
ATOM     23  C   UNL     1       6.770   5.688  15.650  0.00  0.00    +0.000 A 
ATOM     24  C   UNL     1       6.523   6.361  16.852  0.00  0.00    +0.000 A 
ATOM     25  C   UNL     1       5.780   5.706  17.845  0.00  0.00    +0.000 A 
BRANCH  20  31
ATOM     26  C   UNL     1       2.029   4.393  17.846  0.00  0.00    +0.000 C 
ATOM     27  N   UNL     1       3.005   3.710  18.646  0.00  0.00    +0.000 N 
ATOM     28  N   UNL     1       2.600   2.982  19.701  0.00  0.00    +0.000 NA
ATOM     29  N   UNL     1       3.712   2.571  20.286  0.00  0.00    +0.000 NA
ATOM     30  N   UNL     1       4.813   3.030  19.616  0.00  0.00    +0.000 NA
ATOM     31  C   UNL     1       4.376   3.729  18.580  0.00  0.00    +0.000 A 
ENDBRANCH  20  31
ENDBRANCH   1  24
TORSDOF 4
ENDMDL
MODEL 5
REMARK VINA RESULT:      -9.2      6.437      7.931
REMARK  Name = 
REMARK  5 active torsions:
REMARK  status: ('A' for Active; 'I' for Inactive)
REMARK    1  A    between atoms: C_1  and  N_2
REMARK    2  A    between atoms: C_6  and  C_7
REMARK    3  A    between atoms: C_11  and  N_12
REMARK    4  A    between atoms: C_13  and  C_15
REMARK    5  A    between atoms: C_18  and  C_19
REMARK                            x       y       z     vdW  Elec       q    Type
REMARK                         _______ _______ _______ _____ _____    ______ ____
ROOT
ATOM      1  N   UNL     1       2.239   6.973  18.886  0.00  0.00    +0.000 N 
ATOM      2  C   UNL     1       2.120   8.235  18.321  0.00  0.00    +0.000 C 
ATOM      3  O   UNL     1       2.424   8.499  17.158  0.00  0.00    +0.000 OA
ATOM      4  H   UNL     1       1.811   6.847  19.793  0.00  0.00    +0.000 HD
ENDROOT
BRANCH   2   5
ATOM      5  C   UNL     1       1.550   9.279  19.150  0.00  0.00    +0.000 A 
ATOM      6  C   UNL     1       0.915   9.102  20.374  0.00  0.00    +0.000 A 
ATOM      7  C   UNL     1       0.498  10.365  20.796  0.00  0.00    +0.000 A 
ATOM      8  C   UNL     1      -0.204  10.877  21.922  0.00  0.00    +0.000 A 
ATOM      9  C   UNL     1      -0.464  12.203  21.977  0.00  0.00    +0.000 A 
ATOM     10  C   UNL     1      -0.025  13.127  20.878  0.00  0.00    +0.000 A 
ATOM     11  O   UNL     1      -0.286  14.324  20.948  0.00  0.00    +0.000 OA
ATOM     12  N   UNL     1       0.666  12.582  19.818  0.00  0.00    +0.000 N 
ATOM     13  C   UNL     1       0.895  11.237  19.817  0.00  0.00    +0.000 A 
ATOM     14  O   UNL     1       1.552  10.610  18.806  0.00  0.00    +0.000 OA
ATOM     15  H   UNL     1       0.970  13.176  19.060  0.00  0.00    +0.000 HD
BRANCH   8  16
ATOM     16  C   UNL     1      -0.631   9.939  23.008  0.00  0.00    +0.000 C 
ATOM     17  F   UNL     1       0.324   9.669  23.938  0.00  0.00    +0.000 F 
ATOM     18  F   UNL     1      -1.697  10.429  23.692  0.00  0.00    +0.000 F 
ATOM     19  F   UNL     1      -1.016   8.740  22.499  0.00  0.00    +0.000 F 
ENDBRANCH   8  16
ENDBRANCH   2   5
BRANCH   1  24
ATOM     20  C   UNL     1       4.429   4.818  16.766  0.00  0.00    +0.000 A 
ATOM     21  C   UNL     1       3.819   3.568  16.948  0.00  0.00    +0.000 A 
ATOM     22  C   UNL     1       2.651   3.448  17.690  0.00  0.00    +0.000 A 
ATOM     23  C   UNL     1       2.095   4.574  18.289  0.00  0.00    +0.000 A 
ATOM     24  C   UNL     1       2.709   5.828  18.187  0.00  0.00    +0.000 A 
ATOM     25  C   UNL     1       3.858   5.946  17.391  0.00  0.00    +0.000 A 
BRANCH  20  31
ATOM     26  C   UNL     1       7.464   4.633  17.792  0.00  0.00    +0.000 C 
ATOM     27  N   UNL     1       6.963   4.758  16.452  0.00  0.00    +0.000 N 
ATOM     28  N   UNL     1       7.830   4.885  15.433  0.00  0.00    +0.000 NA
ATOM     29  N   UNL     1       7.080   5.081  14.362  0.00  0.00    +0.000 NA
ATOM     30  N   UNL     1       5.751   5.081  14.692  0.00  0.00    +0.000 NA
ATOM     31  C   UNL     1       5.673   4.862  15.995  0.00  0.00    +0.000 A 
ENDBRANCH  20  31
ENDBRANCH   1  24
TORSDOF 4
ENDMDL
MODEL 6
REMARK VINA RESULT:      -9.2      6.141      7.806
REMARK  Name = 
REMARK  5 active torsions:
REMARK  status: ('A' for Active; 'I' for Inactive)
REMARK    1  A    between atoms: C_1  and  N_2
REMARK    2  A    between atoms: C_6  and  C_7
REMARK    3  A    between atoms: C_11  and  N_12
REMARK    4  A    between atoms: C_13  and  C_15
REMARK    5  A    between atoms: C_18  and  C_19
REMARK                            x       y       z     vdW  Elec       q    Type
REMARK                         _______ _______ _______ _____ _____    ______ ____
ROOT
ATOM      1  N   UNL     1       4.406   7.142  17.582  0.00  0.00    +0.000 N 
ATOM      2  C   UNL     1       3.165   6.823  18.114  0.00  0.00    +0.000 C 
ATOM      3  O   UNL     1       2.766   5.670  18.283  0.00  0.00    +0.000 OA
ATOM      4  H   UNL     1       4.681   8.113  17.641  0.00  0.00    +0.000 HD
ENDROOT
BRANCH   2   5
ATOM      5  C   UNL     1       2.324   7.925  18.538  0.00  0.00    +0.000 A 
ATOM      6  C   UNL     1       1.692   8.048  19.770  0.00  0.00    +0.000 A 
ATOM      7  C   UNL     1       0.965   9.239  19.731  0.00  0.00    +0.000 A 
ATOM      8  C   UNL     1       0.108   9.934  20.628  0.00  0.00    +0.000 A 
ATOM      9  C   UNL     1      -0.463  11.088  20.218  0.00  0.00    +0.000 A 
ATOM     10  C   UNL     1      -0.205  11.637  18.844  0.00  0.00    +0.000 A 
ATOM     11  O   UNL     1      -0.748  12.680  18.493  0.00  0.00    +0.000 OA
ATOM     12  N   UNL     1       0.646  10.933  18.020  0.00  0.00    +0.000 N 
ATOM     13  C   UNL     1       1.189   9.773  18.490  0.00  0.00    +0.000 A 
ATOM     14  O   UNL     1       2.024   9.004  17.742  0.00  0.00    +0.000 OA
ATOM     15  H   UNL     1       0.835  11.273  17.088  0.00  0.00    +0.000 HD
BRANCH   8  16
ATOM     16  C   UNL     1      -0.133   9.371  21.994  0.00  0.00    +0.000 C 
ATOM     17  F   UNL     1      -0.907  10.142  22.803  0.00  0.00    +0.000 F 
ATOM     18  F   UNL     1      -0.746   8.160  21.927  0.00  0.00    +0.000 F 
ATOM     19  F   UNL     1       1.035   9.176  22.660  0.00  0.00    +0.000 F 
ENDBRANCH   8  16
ENDBRANCH   2   5
BRANCH   1  24
ATOM     20  C   UNL     1       6.351   4.825  15.395  0.00  0.00    +0.000 A 
ATOM     21  C   UNL     1       7.381   4.445  16.268  0.00  0.00    +0.000 A 
ATOM     22  C   UNL     1       7.389   4.877  17.589  0.00  0.00    +0.000 A 
ATOM     23  C   UNL     1       6.384   5.725  18.044  0.00  0.00    +0.000 A 
ATOM     24  C   UNL     1       5.376   6.180  17.187  0.00  0.00    +0.000 A 
ATOM     25  C   UNL     1       5.348   5.695  15.870  0.00  0.00    +0.000 A 
BRANCH  20  31
ATOM     26  C   UNL     1       8.347   5.717  13.046  0.00  0.00    +0.000 C 
ATOM     27  N   UNL     1       7.303   4.733  13.026  0.00  0.00    +0.000 N 
ATOM     28  N   UNL     1       7.019   4.095  11.878  0.00  0.00    +0.000 NA
ATOM     29  N   UNL     1       5.966   3.343  12.150  0.00  0.00    +0.000 NA
ATOM     30  N   UNL     1       5.581   3.498  13.455  0.00  0.00    +0.000 NA
ATOM     31  C   UNL     1       6.425   4.353  14.011  0.00  0.00    +0.000 A 
ENDBRANCH  20  31
ENDBRANCH   1  24
TORSDOF 4
ENDMDL
MODEL 7
REMARK VINA RESULT:      -9.1      6.554      9.225
REMARK  Name = 
REMARK  5 active torsions:
REMARK  status: ('A' for Active; 'I' for Inactive)
REMARK    1  A    between atoms: C_1  and  N_2
REMARK    2  A    between atoms: C_6  and  C_7
REMARK    3  A    between atoms: C_11  and  N_12
REMARK    4  A    between atoms: C_13  and  C_15
REMARK    5  A    between atoms: C_18  and  C_19
REMARK                            x       y       z     vdW  Elec       q    Type
REMARK                         _______ _______ _______ _____ _____    ______ ____
ROOT
ATOM      1  N   UNL     1       0.979   9.116  19.356  0.00  0.00    +0.000 N 
ATOM      2  C   UNL     1       1.879   8.898  18.323  0.00  0.00    +0.000 C 
ATOM      3  O   UNL     1       2.059   9.683  17.391  0.00  0.00    +0.000 OA
ATOM      4  H   UNL     1       1.036   8.480  20.140  0.00  0.00    +0.000 HD
ENDROOT
BRANCH   2   5
ATOM      5  C   UNL     1       2.685   7.695  18.390  0.00  0.00    +0.000 A 
ATOM      6  C   UNL     1       3.679   7.320  17.493  0.00  0.00    +0.000 A 
ATOM      7  C   UNL     1       4.162   6.083  17.923  0.00  0.00    +0.000 A 
ATOM      8  C   UNL     1       5.144   5.163  17.463  0.00  0.00    +0.000 A 
ATOM      9  C   UNL     1       5.322   4.010  18.145  0.00  0.00    +0.000 A 
ATOM     10  C   UNL     1       4.507   3.695  19.366  0.00  0.00    +0.000 A 
ATOM     11  O   UNL     1       4.681   2.634  19.957  0.00  0.00    +0.000 OA
ATOM     12  N   UNL     1       3.580   4.628  19.778  0.00  0.00    +0.000 N 
ATOM     13  C   UNL     1       3.444   5.771  19.047  0.00  0.00    +0.000 A 
ATOM     14  O   UNL     1       2.544   6.739  19.367  0.00  0.00    +0.000 OA
ATOM     15  H   UNL     1       3.012   4.443  20.592  0.00  0.00    +0.000 HD
BRANCH   8  16
ATOM     16  C   UNL     1       5.948   5.498  16.245  0.00  0.00    +0.000 C 
ATOM     17  F   UNL     1       5.215   5.810  15.143  0.00  0.00    +0.000 F 
ATOM     18  F   UNL     1       6.764   6.561  16.471  0.00  0.00    +0.000 F 
ATOM     19  F   UNL     1       6.752   4.463  15.887  0.00  0.00    +0.000 F 
ENDBRANCH   8  16
ENDBRANCH   2   5
BRANCH   1  24
ATOM     20  C   UNL     1      -1.926  11.420  18.929  0.00  0.00    +0.000 A 
ATOM     21  C   UNL     1      -1.583  12.443  19.826  0.00  0.00    +0.000 A 
ATOM     22  C   UNL     1      -0.368  12.418  20.501  0.00  0.00    +0.000 A 
ATOM     23  C   UNL     1       0.505  11.351  20.312  0.00  0.00    +0.000 A 
ATOM     24  C   UNL     1       0.170  10.279  19.476  0.00  0.00    +0.000 A 
ATOM     25  C   UNL     1      -1.035  10.341  18.760  0.00  0.00    +0.000 A 
BRANCH  20  31
ATOM     26  C   UNL     1      -2.703  10.896  15.859  0.00  0.00    +0.000 C 
ATOM     27  N   UNL     1      -3.550  11.249  16.964  0.00  0.00    +0.000 N 
ATOM     28  N   UNL     1      -4.857  11.471  16.748  0.00  0.00    +0.000 NA
ATOM     29  N   UNL     1      -5.338  11.869  17.913  0.00  0.00    +0.000 NA
ATOM     30  N   UNL     1      -4.352  11.903  18.861  0.00  0.00    +0.000 NA
ATOM     31  C   UNL     1      -3.235  11.500  18.276  0.00  0.00    +0.000 A 
ENDBRANCH  20  31
ENDBRANCH   1  24
TORSDOF 4
ENDMDL
MODEL 8
REMARK VINA RESULT:      -9.0      7.046      9.529
REMARK  Name = 
REMARK  5 active torsions:
REMARK  status: ('A' for Active; 'I' for Inactive)
REMARK    1  A    between atoms: C_1  and  N_2
REMARK    2  A    between atoms: C_6  and  C_7
REMARK    3  A    between atoms: C_11  and  N_12
REMARK    4  A    between atoms: C_13  and  C_15
REMARK    5  A    between atoms: C_18  and  C_19
REMARK                            x       y       z     vdW  Elec       q    Type
REMARK                         _______ _______ _______ _____ _____    ______ ____
ROOT
ATOM      1  N   UNL     1       1.524   9.347  18.055  0.00  0.00    +0.000 N 
ATOM      2  C   UNL     1       1.938   8.305  18.871  0.00  0.00    +0.000 C 
ATOM      3  O   UNL     1       1.625   8.194  20.057  0.00  0.00    +0.000 OA
ATOM      4  H   UNL     1       1.713   9.244  17.067  0.00  0.00    +0.000 HD
ENDROOT
BRANCH   2   5
ATOM      5  C   UNL     1       2.743   7.266  18.259  0.00  0.00    +0.000 A 
ATOM      6  C   UNL     1       2.554   5.895  18.392  0.00  0.00    +0.000 A 
ATOM      7  C   UNL     1       3.574   5.277  17.667  0.00  0.00    +0.000 A 
ATOM      8  C   UNL     1       3.963   3.934  17.406  0.00  0.00    +0.000 A 
ATOM      9  C   UNL     1       5.065   3.712  16.656  0.00  0.00    +0.000 A 
ATOM     10  C   UNL     1       5.872   4.851  16.102  0.00  0.00    +0.000 A 
ATOM     11  O   UNL     1       6.875   4.619  15.436  0.00  0.00    +0.000 OA
ATOM     12  N   UNL     1       5.441   6.132  16.371  0.00  0.00    +0.000 N 
ATOM     13  C   UNL     1       4.324   6.293  17.136  0.00  0.00    +0.000 A 
ATOM     14  O   UNL     1       3.837   7.519  17.467  0.00  0.00    +0.000 OA
ATOM     15  H   UNL     1       5.966   6.920  16.017  0.00  0.00    +0.000 HD
BRANCH   8  16
ATOM     16  C   UNL     1       3.143   2.813  17.965  0.00  0.00    +0.000 C 
ATOM     17  F   UNL     1       1.838   2.813  17.585  0.00  0.00    +0.000 F 
ATOM     18  F   UNL     1       3.644   1.605  17.597  0.00  0.00    +0.000 F 
ATOM     19  F   UNL     1       3.143   2.833  19.324  0.00  0.00    +0.000 F 
ENDBRANCH   8  16
ENDBRANCH   2   5
BRANCH   1  24
ATOM     20  C   UNL     1      -1.562  11.405  18.472  0.00  0.00    +0.000 A 
ATOM     21  C   UNL     1      -1.133  12.328  19.438  0.00  0.00    +0.000 A 
ATOM     22  C   UNL     1       0.183  12.329  19.884  0.00  0.00    +0.000 A 
ATOM     23  C   UNL     1       1.079  11.382  19.395  0.00  0.00    +0.000 A 
ATOM     24  C   UNL     1       0.672  10.403  18.481  0.00  0.00    +0.000 A 
ATOM     25  C   UNL     1      -0.644  10.446  17.997  0.00  0.00    +0.000 A 
BRANCH  20  31
ATOM     26  C   UNL     1      -2.871  10.885  15.588  0.00  0.00    +0.000 C 
ATOM     27  N   UNL     1      -3.512  11.199  16.834  0.00  0.00    +0.000 N 
ATOM     28  N   UNL     1      -4.843  11.380  16.864  0.00  0.00    +0.000 NA
ATOM     29  N   UNL     1      -5.115  11.750  18.104  0.00  0.00    +0.000 NA
ATOM     30  N   UNL     1      -3.973  11.808  18.856  0.00  0.00    +0.000 NA
ATOM     31  C   UNL     1      -2.970  11.448  18.070  0.00  0.00    +0.000 A 
ENDBRANCH  20  31
ENDBRANCH   1  24
TORSDOF 4
ENDMDL
MODEL 9
REMARK VINA RESULT:      -9.0      6.629      9.388
REMARK  Name = 
REMARK  5 active torsions:
REMARK  status: ('A' for Active; 'I' for Inactive)
REMARK    1  A    between atoms: C_1  and  N_2
REMARK    2  A    between atoms: C_6  and  C_7
REMARK    3  A    between atoms: C_11  and  N_12
REMARK    4  A    between atoms: C_13  and  C_15
REMARK    5  A    between atoms: C_18  and  C_19
REMARK                            x       y       z     vdW  Elec       q    Type
REMARK                         _______ _______ _______ _____ _____    ______ ____
ROOT
ATOM      1  N   UNL     1       1.325   9.163  18.102  0.00  0.00    +0.000 N 
ATOM      2  C   UNL     1       1.761   8.291  19.088  0.00  0.00    +0.000 C 
ATOM      3  O   UNL     1       1.565   8.460  20.292  0.00  0.00    +0.000 OA
ATOM      4  H   UNL     1       1.407   8.837  17.148  0.00  0.00    +0.000 HD
ENDROOT
BRANCH   2   5
ATOM      5  C   UNL     1       2.441   7.086  18.653  0.00  0.00    +0.000 A 
ATOM      6  C   UNL     1       3.490   7.019  17.742  0.00  0.00    +0.000 A 
ATOM      7  C   UNL     1       3.808   5.668  17.596  0.00  0.00    +0.000 A 
ATOM      8  C   UNL     1       4.746   4.924  16.829  0.00  0.00    +0.000 A 
ATOM      9  C   UNL     1       4.742   3.576  16.928  0.00  0.00    +0.000 A 
ATOM     10  C   UNL     1       3.772   2.865  17.826  0.00  0.00    +0.000 A 
ATOM     11  O   UNL     1       3.782   1.640  17.886  0.00  0.00    +0.000 OA
ATOM     12  N   UNL     1       2.895   3.634  18.560  0.00  0.00    +0.000 N 
ATOM     13  C   UNL     1       2.944   4.989  18.415  0.00  0.00    +0.000 A 
ATOM     14  O   UNL     1       2.107   5.825  19.085  0.00  0.00    +0.000 OA
ATOM     15  H   UNL     1       2.226   3.185  19.170  0.00  0.00    +0.000 HD
BRANCH   8  16
ATOM     16  C   UNL     1       5.707   5.652  15.941  0.00  0.00    +0.000 C 
ATOM     17  F   UNL     1       6.567   6.483  16.588  0.00  0.00    +0.000 F 
ATOM     18  F   UNL     1       6.478   4.786  15.234  0.00  0.00    +0.000 F 
ATOM     19  F   UNL     1       5.052   6.419  15.031  0.00  0.00    +0.000 F 
ENDBRANCH   8  16
ENDBRANCH   2   5
BRANCH   1  24
ATOM     20  C   UNL     1      -1.587  11.486  18.343  0.00  0.00    +0.000 A 
ATOM     21  C   UNL     1      -1.004  12.566  19.023  0.00  0.00    +0.000 A 
ATOM     22  C   UNL     1       0.352  12.568  19.323  0.00  0.00    +0.000 A 
ATOM     23  C   UNL     1       1.138  11.472  18.977  0.00  0.00    +0.000 A 
ATOM     24  C   UNL     1       0.581  10.348  18.357  0.00  0.00    +0.000 A 
ATOM     25  C   UNL     1      -0.778  10.380  18.011  0.00  0.00    +0.000 A 
BRANCH  20  31
ATOM     26  C   UNL     1      -3.190  10.931  15.618  0.00  0.00    +0.000 C 
ATOM     27  N   UNL     1      -3.696  11.278  16.915  0.00  0.00    +0.000 N 
ATOM     28  N   UNL     1      -5.014  11.480  17.077  0.00  0.00    +0.000 NA
ATOM     29  N   UNL     1      -5.154  11.879  18.330  0.00  0.00    +0.000 NA
ATOM     30  N   UNL     1      -3.941  11.933  18.961  0.00  0.00    +0.000 NA
ATOM     31  C   UNL     1      -3.028  11.543  18.085  0.00  0.00    +0.000 A 
ENDBRANCH  20  31
ENDBRANCH   1  24
TORSDOF 4
ENDMDL
