MODEL 1
REMARK VINA RESULT:      -8.9      0.000      0.000
REMARK  Name = 
REMARK  4 active torsions:
REMARK  status: ('A' for Active; 'I' for Inactive)
REMARK    1  A    between atoms: N_3  and  C_4
REMARK    2  A    between atoms: C_4  and  C_5
REMARK    3  A    between atoms: C_5  and  C_6
REMARK    4  A    between atoms: C_5  and  C_12
REMARK                            x       y       z     vdW  Elec       q    Type
REMARK                         _______ _______ _______ _____ _____    ______ ____
ROOT
ATOM      1  C   UNL     1       3.598   5.771  17.345  0.00  0.00    +0.000 C 
ENDROOT
BRANCH   1   2
ATOM      2  C   UNL     1       2.742   4.743  18.094  0.00  0.00    +0.000 A 
ATOM      3  C   UNL     1       1.961   3.923  17.257  0.00  0.00    +0.000 A 
ATOM      4  N   UNL     1       1.984   2.721  17.877  0.00  0.00    +0.000 N 
ATOM      5  C   UNL     1       1.858   2.963  19.216  0.00  0.00    +0.000 A 
ATOM      6  C   UNL     1       1.305   2.137  20.183  0.00  0.00    +0.000 A 
ATOM      7  C   UNL     1       1.374   2.563  21.484  0.00  0.00    +0.000 A 
ATOM      8  C   UNL     1       2.108   3.734  21.801  0.00  0.00    +0.000 A 
ATOM      9  C   UNL     1       2.711   4.534  20.780  0.00  0.00    +0.000 A 
ATOM     10  C   UNL     1       2.488   4.207  19.423  0.00  0.00    +0.000 A 
ATOM     11  H   UNL     1       2.354   1.867  17.475  0.00  0.00    +0.000 HD
ENDBRANCH   1   2
BRANCH   1  12
ATOM     12  C   UNL     1       4.977   5.096  17.401  0.00  0.00    +0.000 A 
ATOM     13  C   UNL     1       5.533   4.450  16.285  0.00  0.00    +0.000 A 
ATOM     14  C   UNL     1       6.911   4.246  16.221  0.00  0.00    +0.000 A 
ATOM     15  C   UNL     1       7.728   4.645  17.281  0.00  0.00    +0.000 A 
ATOM     16  C   UNL     1       7.165   5.171  18.444  0.00  0.00    +0.000 A 
ATOM     17  C   UNL     1       5.796   5.377  18.512  0.00  0.00    +0.000 A 
ENDBRANCH   1  12
BRANCH   1  18
ATOM     18  C   UNL     1       3.667   7.296  17.431  0.00  0.00    +0.000 C 
BRANCH  18  21
ATOM     19  O   UNL     1       1.961   9.565  17.315  0.00  0.00    +0.000 OA
ATOM     20  C   UNL     1       2.009   8.949  18.367  0.00  0.00    +0.000 C 
ATOM     21  N   UNL     1       2.761   7.807  18.520  0.00  0.00    +0.000 N 
ATOM     22  N   UNL     1       1.322   9.393  19.479  0.00  0.00    +0.000 N 
ATOM     23  C   UNL     1       0.526  10.611  19.403  0.00  0.00    +0.000 C 
ATOM     24  C   UNL     1      -0.600  10.361  20.393  0.00  0.00    +0.000 C 
ATOM     25  C   UNL     1       0.071   9.520  21.452  0.00  0.00    +0.000 C 
ATOM     26  C   UNL     1      -0.032   9.938  22.905  0.00  0.00    +0.000 C 
ATOM     27  C   UNL     1      -0.761   8.717  22.427  0.00  0.00    +0.000 C 
ATOM     28  C   UNL     1       1.342   8.916  20.862  0.00  0.00    +0.000 C 
ATOM     29  H   UNL     1       2.448   7.149  19.214  0.00  0.00    +0.000 HD
ENDBRANCH  18  21
ENDBRANCH   1  18
TORSDOF 4
ENDMDL
MODEL 2
REMARK VINA RESULT:      -8.7      0.962      1.060
REMARK  Name = 
REMARK  4 active torsions:
REMARK  status: ('A' for Active; 'I' for Inactive)
REMARK    1  A    between atoms: N_3  and  C_4
REMARK    2  A    between atoms: C_4  and  C_5
REMARK    3  A    between atoms: C_5  and  C_6
REMARK    4  A    between atoms: C_5  and  C_12
REMARK                            x       y       z     vdW  Elec       q    Type
REMARK                         _______ _______ _______ _____ _____    ______ ____
ROOT
ATOM      1  C   UNL     1       3.961   6.056  17.160  0.00  0.00    +0.000 C 
ENDROOT
BRANCH   1   2
ATOM      2  C   UNL     1       3.282   4.847  17.814  0.00  0.00    +0.000 A 
ATOM      3  C   UNL     1       3.275   3.687  17.016  0.00  0.00    +0.000 A 
ATOM      4  N   UNL     1       3.445   2.685  17.909  0.00  0.00    +0.000 N 
ATOM      5  C   UNL     1       2.678   2.992  18.999  0.00  0.00    +0.000 A 
ATOM      6  C   UNL     1       2.088   2.118  19.899  0.00  0.00    +0.000 A 
ATOM      7  C   UNL     1       1.438   2.670  20.973  0.00  0.00    +0.000 A 
ATOM      8  C   UNL     1       1.507   4.068  21.192  0.00  0.00    +0.000 A 
ATOM      9  C   UNL     1       2.172   4.934  20.268  0.00  0.00    +0.000 A 
ATOM     10  C   UNL     1       2.684   4.400  19.064  0.00  0.00    +0.000 A 
ATOM     11  H   UNL     1       4.221   2.035  17.912  0.00  0.00    +0.000 HD
ENDBRANCH   1   2
BRANCH   1  12
ATOM     12  C   UNL     1       5.412   5.860  17.625  0.00  0.00    +0.000 A 
ATOM     13  C   UNL     1       6.492   6.465  16.962  0.00  0.00    +0.000 A 
ATOM     14  C   UNL     1       7.703   6.638  17.631  0.00  0.00    +0.000 A 
ATOM     15  C   UNL     1       7.853   6.173  18.939  0.00  0.00    +0.000 A 
ATOM     16  C   UNL     1       6.826   5.459  19.555  0.00  0.00    +0.000 A 
ATOM     17  C   UNL     1       5.619   5.286  18.894  0.00  0.00    +0.000 A 
ENDBRANCH   1  12
BRANCH   1  18
ATOM     18  C   UNL     1       3.551   7.526  17.062  0.00  0.00    +0.000 C 
BRANCH  18  21
ATOM     19  O   UNL     1       1.991   9.884  17.339  0.00  0.00    +0.000 OA
ATOM     20  C   UNL     1       2.022   9.114  18.285  0.00  0.00    +0.000 C 
ATOM     21  N   UNL     1       2.702   7.920  18.242  0.00  0.00    +0.000 N 
ATOM     22  N   UNL     1       1.388   9.425  19.471  0.00  0.00    +0.000 N 
ATOM     23  C   UNL     1       0.670  10.686  19.603  0.00  0.00    +0.000 C 
ATOM     24  C   UNL     1      -0.448  10.357  20.578  0.00  0.00    +0.000 C 
ATOM     25  C   UNL     1       0.189   9.326  21.478  0.00  0.00    +0.000 C 
ATOM     26  C   UNL     1       0.144   9.524  22.980  0.00  0.00    +0.000 C 
ATOM     27  C   UNL     1      -0.672   8.436  22.346  0.00  0.00    +0.000 C 
ATOM     28  C   UNL     1       1.407   8.743  20.766  0.00  0.00    +0.000 C 
ATOM     29  H   UNL     1       2.362   7.183  18.839  0.00  0.00    +0.000 HD
ENDBRANCH  18  21
ENDBRANCH   1  18
TORSDOF 4
ENDMDL
MODEL 3
REMARK VINA RESULT:      -8.6      2.070      2.888
REMARK  Name = 
REMARK  4 active torsions:
REMARK  status: ('A' for Active; 'I' for Inactive)
REMARK    1  A    between atoms: N_3  and  C_4
REMARK    2  A    between atoms: C_4  and  C_5
REMARK    3  A    between atoms: C_5  and  C_6
REMARK    4  A    between atoms: C_5  and  C_12
REMARK                            x       y       z     vdW  Elec       q    Type
REMARK                         _______ _______ _______ _____ _____    ______ ____
ROOT
ATOM      1  C   UNL     1       2.911   6.748  17.812  0.00  0.00    +0.000 C 
ENDROOT
BRANCH   1   2
ATOM      2  C   UNL     1       2.289   5.461  18.365  0.00  0.00    +0.000 A 
ATOM      3  C   UNL     1       1.604   4.692  17.404  0.00  0.00    +0.000 A 
ATOM      4  N   UNL     1       1.868   3.416  17.769  0.00  0.00    +0.000 N 
ATOM      5  C   UNL     1       1.789   3.371  19.133  0.00  0.00    +0.000 A 
ATOM      6  C   UNL     1       1.446   2.290  19.931  0.00  0.00    +0.000 A 
ATOM      7  C   UNL     1       1.526   2.464  21.289  0.00  0.00    +0.000 A 
ATOM      8  C   UNL     1       2.072   3.662  21.812  0.00  0.00    +0.000 A 
ATOM      9  C   UNL     1       2.466   4.737  20.954  0.00  0.00    +0.000 A 
ATOM     10  C   UNL     1       2.215   4.643  19.566  0.00  0.00    +0.000 A 
ATOM     11  H   UNL     1       2.349   2.735  17.194  0.00  0.00    +0.000 HD
ENDBRANCH   1   2
BRANCH   1  12
ATOM     12  C   UNL     1       4.358   6.292  17.572  0.00  0.00    +0.000 A 
ATOM     13  C   UNL     1       5.088   5.594  18.547  0.00  0.00    +0.000 A 
ATOM     14  C   UNL     1       6.189   4.827  18.168  0.00  0.00    +0.000 A 
ATOM     15  C   UNL     1       6.589   4.790  16.831  0.00  0.00    +0.000 A 
ATOM     16  C   UNL     1       5.946   5.583  15.881  0.00  0.00    +0.000 A 
ATOM     17  C   UNL     1       4.849   6.346  16.253  0.00  0.00    +0.000 A 
ENDBRANCH   1  12
BRANCH   1  18
ATOM     18  C   UNL     1       2.803   8.206  18.260  0.00  0.00    +0.000 C 
BRANCH  18  21
ATOM     19  O   UNL     1       1.428  10.364  19.495  0.00  0.00    +0.000 OA
ATOM     20  C   UNL     1       0.880   9.809  18.557  0.00  0.00    +0.000 C 
ATOM     21  N   UNL     1       1.475   8.789  17.854  0.00  0.00    +0.000 N 
ATOM     22  N   UNL     1      -0.396  10.168  18.172  0.00  0.00    +0.000 N 
ATOM     23  C   UNL     1      -1.102  11.223  18.888  0.00  0.00    +0.000 C 
ATOM     24  C   UNL     1      -1.987  11.845  17.819  0.00  0.00    +0.000 C 
ATOM     25  C   UNL     1      -2.320  10.667  16.937  0.00  0.00    +0.000 C 
ATOM     26  C   UNL     1      -3.770  10.374  16.608  0.00  0.00    +0.000 C 
ATOM     27  C   UNL     1      -2.853  10.889  15.538  0.00  0.00    +0.000 C 
ATOM     28  C   UNL     1      -1.299   9.562  17.193  0.00  0.00    +0.000 C 
ATOM     29  H   UNL     1       1.187   8.671  16.896  0.00  0.00    +0.000 HD
ENDBRANCH  18  21
ENDBRANCH   1  18
TORSDOF 4
ENDMDL
MODEL 4
REMARK VINA RESULT:      -8.6      2.143      3.112
REMARK  Name = 
REMARK  4 active torsions:
REMARK  status: ('A' for Active; 'I' for Inactive)
REMARK    1  A    between atoms: N_3  and  C_4
REMARK    2  A    between atoms: C_4  and  C_5
REMARK    3  A    between atoms: C_5  and  C_6
REMARK    4  A    between atoms: C_5  and  C_12
REMARK                            x       y       z     vdW  Elec       q    Type
REMARK                         _______ _______ _______ _____ _____    ______ ____
ROOT
ATOM      1  C   UNL     1       3.122   6.940  17.659  0.00  0.00    +0.000 C 
ENDROOT
BRANCH   1   2
ATOM      2  C   UNL     1       2.766   5.858  18.685  0.00  0.00    +0.000 A 
ATOM      3  C   UNL     1       3.216   6.130  19.991  0.00  0.00    +0.000 A 
ATOM      4  N   UNL     1       2.225   5.649  20.777  0.00  0.00    +0.000 N 
ATOM      5  C   UNL     1       1.825   4.463  20.227  0.00  0.00    +0.000 A 
ATOM      6  C   UNL     1       1.276   3.366  20.874  0.00  0.00    +0.000 A 
ATOM      7  C   UNL     1       0.866   2.318  20.091  0.00  0.00    +0.000 A 
ATOM      8  C   UNL     1       0.891   2.445  18.680  0.00  0.00    +0.000 A 
ATOM      9  C   UNL     1       1.415   3.615  18.046  0.00  0.00    +0.000 A 
ATOM     10  C   UNL     1       2.012   4.623  18.839  0.00  0.00    +0.000 A 
ATOM     11  H   UNL     1       1.676   6.203  21.422  0.00  0.00    +0.000 HD
ENDBRANCH   1   2
BRANCH   1  12
ATOM     12  C   UNL     1       4.445   6.390  17.104  0.00  0.00    +0.000 A 
ATOM     13  C   UNL     1       5.665   7.057  17.295  0.00  0.00    +0.000 A 
ATOM     14  C   UNL     1       6.863   6.352  17.183  0.00  0.00    +0.000 A 
ATOM     15  C   UNL     1       6.849   4.999  16.840  0.00  0.00    +0.000 A 
ATOM     16  C   UNL     1       5.648   4.365  16.525  0.00  0.00    +0.000 A 
ATOM     17  C   UNL     1       4.455   5.061  16.637  0.00  0.00    +0.000 A 
ENDBRANCH   1  12
BRANCH   1  18
ATOM     18  C   UNL     1       3.087   8.467  17.734  0.00  0.00    +0.000 C 
BRANCH  18  21
ATOM     19  O   UNL     1       1.865  10.629  19.114  0.00  0.00    +0.000 OA
ATOM     20  C   UNL     1       1.178  10.004  18.322  0.00  0.00    +0.000 C 
ATOM     21  N   UNL     1       1.679   8.973  17.563  0.00  0.00    +0.000 N 
ATOM     22  N   UNL     1      -0.164  10.291  18.171  0.00  0.00    +0.000 N 
ATOM     23  C   UNL     1      -0.774  11.352  18.961  0.00  0.00    +0.000 C 
ATOM     24  C   UNL     1      -1.873  11.882  18.055  0.00  0.00    +0.000 C 
ATOM     25  C   UNL     1      -2.308  10.648  17.303  0.00  0.00    +0.000 C 
ATOM     26  C   UNL     1      -3.777  10.280  17.269  0.00  0.00    +0.000 C 
ATOM     27  C   UNL     1      -3.104  10.776  16.023  0.00  0.00    +0.000 C 
ATOM     28  C   UNL     1      -1.204   9.599  17.408  0.00  0.00    +0.000 C 
ATOM     29  H   UNL     1       1.223   8.795  16.683  0.00  0.00    +0.000 HD
ENDBRANCH  18  21
ENDBRANCH   1  18
TORSDOF 4
ENDMDL
MODEL 5
REMARK VINA RESULT:      -8.5      2.939      7.644
REMARK  Name = 
REMARK  4 active torsions:
REMARK  status: ('A' for Active; 'I' for Inactive)
REMARK    1  A    between atoms: N_3  and  C_4
REMARK    2  A    between atoms: C_4  and  C_5
REMARK    3  A    between atoms: C_5  and  C_6
REMARK    4  A    between atoms: C_5  and  C_12
REMARK                            x       y       z     vdW  Elec       q    Type
REMARK                         _______ _______ _______ _____ _____    ______ ____
ROOT
ATOM      1  C   UNL     1       3.686   5.258  18.010  0.00  0.00    +0.000 C 
ENDROOT
BRANCH   1   2
ATOM      2  C   UNL     1       3.111   6.612  18.441  0.00  0.00    +0.000 A 
ATOM      3  C   UNL     1       3.395   7.669  17.554  0.00  0.00    +0.000 A 
ATOM      4  N   UNL     1       2.272   8.422  17.585  0.00  0.00    +0.000 N 
ATOM      5  C   UNL     1       1.864   8.470  18.889  0.00  0.00    +0.000 A 
ATOM      6  C   UNL     1       1.150   9.477  19.522  0.00  0.00    +0.000 A 
ATOM      7  C   UNL     1       0.775   9.256  20.822  0.00  0.00    +0.000 A 
ATOM      8  C   UNL     1       1.004   7.988  21.413  0.00  0.00    +0.000 A 
ATOM      9  C   UNL     1       1.697   6.953  20.709  0.00  0.00    +0.000 A 
ATOM     10  C   UNL     1       2.252   7.232  19.439  0.00  0.00    +0.000 A 
ATOM     11  H   UNL     1       1.681   8.617  16.786  0.00  0.00    +0.000 HD
ENDBRANCH   1   2
BRANCH   1  12
ATOM     12  C   UNL     1       2.924   4.307  18.945  0.00  0.00    +0.000 A 
ATOM     13  C   UNL     1       3.419   3.957  20.212  0.00  0.00    +0.000 A 
ATOM     14  C   UNL     1       2.544   3.478  21.186  0.00  0.00    +0.000 A 
ATOM     15  C   UNL     1       1.191   3.305  20.888  0.00  0.00    +0.000 A 
ATOM     16  C   UNL     1       0.721   3.530  19.595  0.00  0.00    +0.000 A 
ATOM     17  C   UNL     1       1.586   4.009  18.624  0.00  0.00    +0.000 A 
ENDBRANCH   1  12
BRANCH   1  18
ATOM     18  C   UNL     1       5.118   4.804  17.722  0.00  0.00    +0.000 C 
BRANCH  18  21
ATOM     19  O   UNL     1       7.083   5.631  15.844  0.00  0.00    +0.000 OA
ATOM     20  C   UNL     1       6.223   4.857  15.456  0.00  0.00    +0.000 C 
ATOM     21  N   UNL     1       5.254   4.353  16.292  0.00  0.00    +0.000 N 
ATOM     22  N   UNL     1       6.165   4.470  14.133  0.00  0.00    +0.000 N 
ATOM     23  C   UNL     1       7.140   4.985  13.181  0.00  0.00    +0.000 C 
ATOM     24  C   UNL     1       7.282   3.856  12.173  0.00  0.00    +0.000 C 
ATOM     25  C   UNL     1       5.897   3.256  12.151  0.00  0.00    +0.000 C 
ATOM     26  C   UNL     1       5.192   3.069  10.822  0.00  0.00    +0.000 C 
ATOM     27  C   UNL     1       5.676   1.870  11.585  0.00  0.00    +0.000 C 
ATOM     28  C   UNL     1       5.158   3.685  13.415  0.00  0.00    +0.000 C 
ATOM     29  H   UNL     1       4.867   3.456  16.047  0.00  0.00    +0.000 HD
ENDBRANCH  18  21
ENDBRANCH   1  18
TORSDOF 4
ENDMDL
MODEL 6
REMARK VINA RESULT:      -8.5      0.660      1.127
REMARK  Name = 
REMARK  4 active torsions:
REMARK  status: ('A' for Active; 'I' for Inactive)
REMARK    1  A    between atoms: N_3  and  C_4
REMARK    2  A    between atoms: C_4  and  C_5
REMARK    3  A    between atoms: C_5  and  C_6
REMARK    4  A    between atoms: C_5  and  C_12
REMARK                            x       y       z     vdW  Elec       q    Type
REMARK                         _______ _______ _______ _____ _____    ______ ____
ROOT
ATOM      1  C   UNL     1       3.932   6.048  17.082  0.00  0.00    +0.000 C 
ENDROOT
BRANCH   1   2
ATOM      2  C   UNL     1       3.282   4.869  17.815  0.00  0.00    +0.000 A 
ATOM      3  C   UNL     1       3.165   3.700  17.038  0.00  0.00    +0.000 A 
ATOM      4  N   UNL     1       3.388   2.703  17.925  0.00  0.00    +0.000 N 
ATOM      5  C   UNL     1       2.739   3.047  19.078  0.00  0.00    +0.000 A 
ATOM      6  C   UNL     1       2.211   2.202  20.042  0.00  0.00    +0.000 A 
ATOM      7  C   UNL     1       1.683   2.786  21.165  0.00  0.00    +0.000 A 
ATOM      8  C   UNL     1       1.814   4.184  21.356  0.00  0.00    +0.000 A 
ATOM      9  C   UNL     1       2.414   5.018  20.362  0.00  0.00    +0.000 A 
ATOM     10  C   UNL     1       2.793   4.455  19.122  0.00  0.00    +0.000 A 
ATOM     11  H   UNL     1       4.142   2.030  17.863  0.00  0.00    +0.000 HD
ENDBRANCH   1   2
BRANCH   1  12
ATOM     12  C   UNL     1       5.417   5.795  17.384  0.00  0.00    +0.000 A 
ATOM     13  C   UNL     1       5.921   5.803  18.694  0.00  0.00    +0.000 A 
ATOM     14  C   UNL     1       7.123   5.155  18.975  0.00  0.00    +0.000 A 
ATOM     15  C   UNL     1       7.843   4.538  17.950  0.00  0.00    +0.000 A 
ATOM     16  C   UNL     1       7.410   4.638  16.628  0.00  0.00    +0.000 A 
ATOM     17  C   UNL     1       6.215   5.279  16.343  0.00  0.00    +0.000 A 
ENDBRANCH   1  12
BRANCH   1  18
ATOM     18  C   UNL     1       3.572   7.533  17.022  0.00  0.00    +0.000 C 
BRANCH  18  21
ATOM     19  O   UNL     1       2.014   9.891  17.307  0.00  0.00    +0.000 OA
ATOM     20  C   UNL     1       2.040   9.116  18.248  0.00  0.00    +0.000 C 
ATOM     21  N   UNL     1       2.719   7.921  18.200  0.00  0.00    +0.000 N 
ATOM     22  N   UNL     1       1.402   9.420  19.433  0.00  0.00    +0.000 N 
ATOM     23  C   UNL     1       0.684  10.681  19.569  0.00  0.00    +0.000 C 
ATOM     24  C   UNL     1      -0.438  10.348  20.539  0.00  0.00    +0.000 C 
ATOM     25  C   UNL     1       0.195   9.311  21.435  0.00  0.00    +0.000 C 
ATOM     26  C   UNL     1       0.144   9.501  22.937  0.00  0.00    +0.000 C 
ATOM     27  C   UNL     1      -0.670   8.417  22.295  0.00  0.00    +0.000 C 
ATOM     28  C   UNL     1       1.415   8.731  20.725  0.00  0.00    +0.000 C 
ATOM     29  H   UNL     1       2.377   7.181  18.792  0.00  0.00    +0.000 HD
ENDBRANCH  18  21
ENDBRANCH   1  18
TORSDOF 4
ENDMDL
MODEL 7
REMARK VINA RESULT:      -8.4      2.091      2.778
REMARK  Name = 
REMARK  4 active torsions:
REMARK  status: ('A' for Active; 'I' for Inactive)
REMARK    1  A    between atoms: N_3  and  C_4
REMARK    2  A    between atoms: C_4  and  C_5
REMARK    3  A    between atoms: C_5  and  C_6
REMARK    4  A    between atoms: C_5  and  C_12
REMARK                            x       y       z     vdW  Elec       q    Type
REMARK                         _______ _______ _______ _____ _____    ______ ____
ROOT
ATOM      1  C   UNL     1       2.866   6.677  17.835  0.00  0.00    +0.000 C 
ENDROOT
BRANCH   1   2
ATOM      2  C   UNL     1       2.238   5.404  18.412  0.00  0.00    +0.000 A 
ATOM      3  C   UNL     1       1.535   4.629  17.469  0.00  0.00    +0.000 A 
ATOM      4  N   UNL     1       1.790   3.356  17.848  0.00  0.00    +0.000 N 
ATOM      5  C   UNL     1       1.726   3.329  19.214  0.00  0.00    +0.000 A 
ATOM      6  C   UNL     1       1.381   2.262  20.030  0.00  0.00    +0.000 A 
ATOM      7  C   UNL     1       1.478   2.453  21.384  0.00  0.00    +0.000 A 
ATOM      8  C   UNL     1       2.042   3.653  21.885  0.00  0.00    +0.000 A 
ATOM      9  C   UNL     1       2.437   4.712  21.009  0.00  0.00    +0.000 A 
ATOM     10  C   UNL     1       2.169   4.602  19.625  0.00  0.00    +0.000 A 
ATOM     11  H   UNL     1       2.258   2.662  17.277  0.00  0.00    +0.000 HD
ENDBRANCH   1   2
BRANCH   1  12
ATOM     12  C   UNL     1       4.302   6.198  17.569  0.00  0.00    +0.000 A 
ATOM     13  C   UNL     1       4.995   6.545  16.398  0.00  0.00    +0.000 A 
ATOM     14  C   UNL     1       6.388   6.484  16.378  0.00  0.00    +0.000 A 
ATOM     15  C   UNL     1       7.086   6.037  17.502  0.00  0.00    +0.000 A 
ATOM     16  C   UNL     1       6.395   5.571  18.620  0.00  0.00    +0.000 A 
ATOM     17  C   UNL     1       5.011   5.632  18.646  0.00  0.00    +0.000 A 
ENDBRANCH   1  12
BRANCH   1  18
ATOM     18  C   UNL     1       2.789   8.140  18.272  0.00  0.00    +0.000 C 
BRANCH  18  21
ATOM     19  O   UNL     1       1.448  10.311  19.522  0.00  0.00    +0.000 OA
ATOM     20  C   UNL     1       0.890   9.770  18.582  0.00  0.00    +0.000 C 
ATOM     21  N   UNL     1       1.469   8.744  17.872  0.00  0.00    +0.000 N 
ATOM     22  N   UNL     1      -0.381  10.149  18.201  0.00  0.00    +0.000 N 
ATOM     23  C   UNL     1      -1.071  11.210  18.923  0.00  0.00    +0.000 C 
ATOM     24  C   UNL     1      -1.947  11.851  17.860  0.00  0.00    +0.000 C 
ATOM     25  C   UNL     1      -2.299  10.683  16.971  0.00  0.00    +0.000 C 
ATOM     26  C   UNL     1      -3.754  10.413  16.644  0.00  0.00    +0.000 C 
ATOM     27  C   UNL     1      -2.831  10.921  15.575  0.00  0.00    +0.000 C 
ATOM     28  C   UNL     1      -1.295   9.561  17.220  0.00  0.00    +0.000 C 
ATOM     29  H   UNL     1       1.178   8.637  16.914  0.00  0.00    +0.000 HD
ENDBRANCH  18  21
ENDBRANCH   1  18
TORSDOF 4
ENDMDL
MODEL 8
REMARK VINA RESULT:      -8.4      1.609      4.387
REMARK  Name = 
REMARK  4 active torsions:
REMARK  status: ('A' for Active; 'I' for Inactive)
REMARK    1  A    between atoms: N_3  and  C_4
REMARK    2  A    between atoms: C_4  and  C_5
REMARK    3  A    between atoms: C_5  and  C_6
REMARK    4  A    between atoms: C_5  and  C_12
REMARK                            x       y       z     vdW  Elec       q    Type
REMARK                         _______ _______ _______ _____ _____    ______ ____
ROOT
ATOM      1  C   UNL     1       2.920   6.938  18.547  0.00  0.00    +0.000 C 
ENDROOT
BRANCH   1   2
ATOM      2  C   UNL     1       4.240   6.244  18.194  0.00  0.00    +0.000 A 
ATOM      3  C   UNL     1       4.951   5.754  19.306  0.00  0.00    +0.000 A 
ATOM      4  N   UNL     1       5.496   4.601  18.855  0.00  0.00    +0.000 N 
ATOM      5  C   UNL     1       5.935   4.843  17.583  0.00  0.00    +0.000 A 
ATOM      6  C   UNL     1       6.984   4.230  16.914  0.00  0.00    +0.000 A 
ATOM      7  C   UNL     1       7.178   4.579  15.602  0.00  0.00    +0.000 A 
ATOM      8  C   UNL     1       6.244   5.426  14.956  0.00  0.00    +0.000 A 
ATOM      9  C   UNL     1       5.142   5.998  15.666  0.00  0.00    +0.000 A 
ATOM     10  C   UNL     1       5.037   5.795  17.061  0.00  0.00    +0.000 A 
ATOM     11  H   UNL     1       5.312   3.682  19.240  0.00  0.00    +0.000 HD
ENDBRANCH   1   2
BRANCH   1  12
ATOM     12  C   UNL     1       2.034   5.728  18.877  0.00  0.00    +0.000 A 
ATOM     13  C   UNL     1       1.762   4.726  17.932  0.00  0.00    +0.000 A 
ATOM     14  C   UNL     1       1.349   3.466  18.361  0.00  0.00    +0.000 A 
ATOM     15  C   UNL     1       1.165   3.215  19.722  0.00  0.00    +0.000 A 
ATOM     16  C   UNL     1       1.310   4.243  20.653  0.00  0.00    +0.000 A 
ATOM     17  C   UNL     1       1.723   5.497  20.232  0.00  0.00    +0.000 A 
ENDBRANCH   1  12
BRANCH   1  18
ATOM     18  C   UNL     1       2.158   8.080  17.874  0.00  0.00    +0.000 C 
BRANCH  18  21
ATOM     19  O   UNL     1      -0.038   9.826  17.425  0.00  0.00    +0.000 OA
ATOM     20  C   UNL     1       0.409   9.761  18.558  0.00  0.00    +0.000 C 
ATOM     21  N   UNL     1       1.435   8.913  18.899  0.00  0.00    +0.000 N 
ATOM     22  N   UNL     1      -0.086  10.572  19.560  0.00  0.00    +0.000 N 
ATOM     23  C   UNL     1      -1.156  11.518  19.269  0.00  0.00    +0.000 C 
ATOM     24  C   UNL     1      -1.917  11.606  20.582  0.00  0.00    +0.000 C 
ATOM     25  C   UNL     1      -0.828  11.422  21.610  0.00  0.00    +0.000 C 
ATOM     26  C   UNL     1      -0.687  12.434  22.729  0.00  0.00    +0.000 C 
ATOM     27  C   UNL     1      -1.180  11.050  23.034  0.00  0.00    +0.000 C 
ATOM     28  C   UNL     1       0.378  10.776  20.934  0.00  0.00    +0.000 C 
ATOM     29  H   UNL     1       1.469   8.605  19.858  0.00  0.00    +0.000 HD
ENDBRANCH  18  21
ENDBRANCH   1  18
TORSDOF 4
ENDMDL
MODEL 9
REMARK VINA RESULT:      -8.3      2.728      7.530
REMARK  Name = 
REMARK  4 active torsions:
REMARK  status: ('A' for Active; 'I' for Inactive)
REMARK    1  A    between atoms: N_3  and  C_4
REMARK    2  A    between atoms: C_4  and  C_5
REMARK    3  A    between atoms: C_5  and  C_6
REMARK    4  A    between atoms: C_5  and  C_12
REMARK                            x       y       z     vdW  Elec       q    Type
REMARK                         _______ _______ _______ _____ _____    ______ ____
ROOT
ATOM      1  C   UNL     1       3.340   5.392  18.243  0.00  0.00    +0.000 C 
ENDROOT
BRANCH   1   2
ATOM      2  C   UNL     1       2.869   6.814  18.568  0.00  0.00    +0.000 A 
ATOM      3  C   UNL     1       3.220   7.774  17.599  0.00  0.00    +0.000 A 
ATOM      4  N   UNL     1       2.155   8.608  17.575  0.00  0.00    +0.000 N 
ATOM      5  C   UNL     1       1.764   8.788  18.873  0.00  0.00    +0.000 A 
ATOM      6  C   UNL     1       1.132   9.890  19.427  0.00  0.00    +0.000 A 
ATOM      7  C   UNL     1       0.754   9.800  20.742  0.00  0.00    +0.000 A 
ATOM      8  C   UNL     1       0.896   8.569  21.430  0.00  0.00    +0.000 A 
ATOM      9  C   UNL     1       1.506   7.435  20.808  0.00  0.00    +0.000 A 
ATOM     10  C   UNL     1       2.067   7.571  19.517  0.00  0.00    +0.000 A 
ATOM     11  H   UNL     1       1.572   8.782  16.766  0.00  0.00    +0.000 HD
ENDBRANCH   1   2
BRANCH   1  12
ATOM     12  C   UNL     1       2.462   4.569  19.198  0.00  0.00    +0.000 A 
ATOM     13  C   UNL     1       1.303   3.909  18.758  0.00  0.00    +0.000 A 
ATOM     14  C   UNL     1       0.790   2.846  19.501  0.00  0.00    +0.000 A 
ATOM     15  C   UNL     1       1.402   2.470  20.699  0.00  0.00    +0.000 A 
ATOM     16  C   UNL     1       2.475   3.204  21.202  0.00  0.00    +0.000 A 
ATOM     17  C   UNL     1       2.990   4.260  20.467  0.00  0.00    +0.000 A 
ENDBRANCH   1  12
BRANCH   1  18
ATOM     18  C   UNL     1       4.737   4.801  18.046  0.00  0.00    +0.000 C 
BRANCH  18  21
ATOM     19  O   UNL     1       6.882   5.589  16.359  0.00  0.00    +0.000 OA
ATOM     20  C   UNL     1       6.007   4.893  15.870  0.00  0.00    +0.000 C 
ATOM     21  N   UNL     1       4.950   4.413  16.607  0.00  0.00    +0.000 N 
ATOM     22  N   UNL     1       6.024   4.576  14.527  0.00  0.00    +0.000 N 
ATOM     23  C   UNL     1       7.097   5.072  13.676  0.00  0.00    +0.000 C 
ATOM     24  C   UNL     1       7.243   3.988  12.621  0.00  0.00    +0.000 C 
ATOM     25  C   UNL     1       5.829   3.480  12.469  0.00  0.00    +0.000 C 
ATOM     26  C   UNL     1       5.215   3.405  11.086  0.00  0.00    +0.000 C 
ATOM     27  C   UNL     1       5.567   2.142  11.815  0.00  0.00    +0.000 C 
ATOM     28  C   UNL     1       5.027   3.894  13.699  0.00  0.00    +0.000 C 
ATOM     29  H   UNL     1       4.528   3.556  16.287  0.00  0.00    +0.000 HD
ENDBRANCH  18  21
ENDBRANCH   1  18
TORSDOF 4
ENDMDL
