MODEL 1
REMARK VINA RESULT:      -7.9      0.000      0.000
REMARK  Name = 
REMARK  6 active torsions:
REMARK  status: ('A' for Active; 'I' for Inactive)
REMARK    1  A    between atoms: C_1  and  C_2
REMARK    2  A    between atoms: C_2  and  C_3
REMARK    3  A    between atoms: C_2  and  C_18
REMARK    4  A    between atoms: C_7  and  N_8
REMARK    5  A    between atoms: C_9  and  C_11
REMARK    6  A    between atoms: N_22  and  C_23
REMARK                            x       y       z     vdW  Elec       q    Type
REMARK                         _______ _______ _______ _____ _____    ______ ____
ROOT
ATOM      1  C   UNL     1       4.457   4.918  16.993  0.00  0.00    +0.000 A 
ATOM      2  C   UNL     1       5.089   4.083  16.066  0.00  0.00    +0.000 A 
ATOM      3  C   UNL     1       6.281   4.465  15.458  0.00  0.00    +0.000 A 
ATOM      4  C   UNL     1       6.887   5.674  15.797  0.00  0.00    +0.000 A 
ATOM      5  C   UNL     1       6.337   6.487  16.785  0.00  0.00    +0.000 A 
ATOM      6  C   UNL     1       5.129   6.096  17.394  0.00  0.00    +0.000 A 
ENDROOT
BRANCH   5   7
ATOM      7  N   UNL     1       6.935   7.695  17.204  0.00  0.00    +0.000 N 
ATOM      8  C   UNL     1       7.903   7.841  18.186  0.00  0.00    +0.000 C 
ATOM      9  O   UNL     1       8.399   6.963  18.886  0.00  0.00    +0.000 OA
ATOM     10  H   UNL     1       6.683   8.522  16.680  0.00  0.00    +0.000 HD
BRANCH   8  11
ATOM     11  C   UNL     1       8.398   9.203  18.284  0.00  0.00    +0.000 A 
ATOM     12  C   UNL     1       9.344   9.846  18.983  0.00  0.00    +0.000 A 
ATOM     13  C   UNL     1      10.021  10.966  19.251  0.00  0.00    +0.000 A 
ATOM     14  C   UNL     1       9.491  12.009  18.406  0.00  0.00    +0.000 A 
ATOM     15  N   UNL     1       8.525  11.682  17.621  0.00  0.00    +0.000 NA
ATOM     16  C   UNL     1       8.232  10.360  17.759  0.00  0.00    +0.000 A 
ENDBRANCH   8  11
ENDBRANCH   5   7
BRANCH   1  18
ATOM     17  C   UNL     1       2.368   5.834  18.005  0.00  0.00    +0.000 C 
ATOM     18  C   UNL     1       3.100   4.545  17.593  0.00  0.00    +0.000 C 
BRANCH  18  19
ATOM     19  C   UNL     1       3.165   3.599  18.781  0.00  0.00    +0.000 A 
ATOM     20  N   UNL     1       4.244   3.388  19.517  0.00  0.00    +0.000 NA
ATOM     21  N   UNL     1       3.968   2.434  20.456  0.00  0.00    +0.000 NA
ATOM     22  C   UNL     1       2.721   2.073  20.291  0.00  0.00    +0.000 A 
ATOM     23  N   UNL     1       2.159   2.796  19.279  0.00  0.00    +0.000 N 
ATOM     24  C   UNL     1       0.789   2.666  18.870  0.00  0.00    +0.000 C 
ENDBRANCH  18  19
ENDBRANCH   1  18
TORSDOF 4
ENDMDL
MODEL 2
REMARK VINA RESULT:      -7.8      3.763      6.541
REMARK  Name = 
REMARK  6 active torsions:
REMARK  status: ('A' for Active; 'I' for Inactive)
REMARK    1  A    between atoms: C_1  and  C_2
REMARK    2  A    between atoms: C_2  and  C_3
REMARK    3  A    between atoms: C_2  and  C_18
REMARK    4  A    between atoms: C_7  and  N_8
REMARK    5  A    between atoms: C_9  and  C_11
REMARK    6  A    between atoms: N_22  and  C_23
REMARK                            x       y       z     vdW  Elec       q    Type
REMARK                         _______ _______ _______ _____ _____    ______ ____
ROOT
ATOM      1  C   UNL     1       4.208   4.942  17.341  0.00  0.00    +0.000 A 
ATOM      2  C   UNL     1       3.417   3.837  17.009  0.00  0.00    +0.000 A 
ATOM      3  C   UNL     1       2.187   3.631  17.624  0.00  0.00    +0.000 A 
ATOM      4  C   UNL     1       1.702   4.550  18.554  0.00  0.00    +0.000 A 
ATOM      5  C   UNL     1       2.418   5.711  18.838  0.00  0.00    +0.000 A 
ATOM      6  C   UNL     1       3.664   5.912  18.215  0.00  0.00    +0.000 A 
ENDROOT
BRANCH   5   7
ATOM      7  N   UNL     1       1.951   6.699  19.731  0.00  0.00    +0.000 N 
ATOM      8  C   UNL     1       1.822   8.054  19.470  0.00  0.00    +0.000 C 
ATOM      9  O   UNL     1       2.110   8.649  18.436  0.00  0.00    +0.000 OA
ATOM     10  H   UNL     1       1.606   6.367  20.622  0.00  0.00    +0.000 HD
BRANCH   8  11
ATOM     11  C   UNL     1       1.191   8.776  20.561  0.00  0.00    +0.000 A 
ATOM     12  C   UNL     1       0.204   9.673  20.692  0.00  0.00    +0.000 A 
ATOM     13  C   UNL     1      -0.578  10.424  21.472  0.00  0.00    +0.000 A 
ATOM     14  C   UNL     1      -0.182  10.191  22.840  0.00  0.00    +0.000 A 
ATOM     15  N   UNL     1       0.790   9.370  23.028  0.00  0.00    +0.000 NA
ATOM     16  C   UNL     1       1.222   8.870  21.838  0.00  0.00    +0.000 A 
ENDBRANCH   8  11
ENDBRANCH   5   7
BRANCH   1  18
ATOM     17  C   UNL     1       5.951   3.873  15.911  0.00  0.00    +0.000 C 
ATOM     18  C   UNL     1       5.603   5.123  16.738  0.00  0.00    +0.000 C 
BRANCH  18  19
ATOM     19  C   UNL     1       6.707   5.385  17.748  0.00  0.00    +0.000 A 
ATOM     20  N   UNL     1       7.178   4.486  18.597  0.00  0.00    +0.000 NA
ATOM     21  N   UNL     1       8.115   5.075  19.400  0.00  0.00    +0.000 NA
ATOM     22  C   UNL     1       8.214   6.326  19.032  0.00  0.00    +0.000 A 
ATOM     23  N   UNL     1       7.381   6.567  17.977  0.00  0.00    +0.000 N 
ATOM     24  C   UNL     1       7.279   7.836  17.313  0.00  0.00    +0.000 C 
ENDBRANCH  18  19
ENDBRANCH   1  18
TORSDOF 4
ENDMDL
MODEL 3
REMARK VINA RESULT:      -7.7      3.837      6.328
REMARK  Name = 
REMARK  6 active torsions:
REMARK  status: ('A' for Active; 'I' for Inactive)
REMARK    1  A    between atoms: C_1  and  C_2
REMARK    2  A    between atoms: C_2  and  C_3
REMARK    3  A    between atoms: C_2  and  C_18
REMARK    4  A    between atoms: C_7  and  N_8
REMARK    5  A    between atoms: C_9  and  C_11
REMARK    6  A    between atoms: N_22  and  C_23
REMARK                            x       y       z     vdW  Elec       q    Type
REMARK                         _______ _______ _______ _____ _____    ______ ____
ROOT
ATOM      1  C   UNL     1       4.428   5.194  17.137  0.00  0.00    +0.000 A 
ATOM      2  C   UNL     1       3.641   4.060  16.908  0.00  0.00    +0.000 A 
ATOM      3  C   UNL     1       2.355   3.967  17.431  0.00  0.00    +0.000 A 
ATOM      4  C   UNL     1       1.814   5.026  18.160  0.00  0.00    +0.000 A 
ATOM      5  C   UNL     1       2.532   6.208  18.326  0.00  0.00    +0.000 A 
ATOM      6  C   UNL     1       3.833   6.294  17.797  0.00  0.00    +0.000 A 
ENDROOT
BRANCH   5   7
ATOM      7  N   UNL     1       2.013   7.330  19.009  0.00  0.00    +0.000 N 
ATOM      8  C   UNL     1       1.819   8.598  18.486  0.00  0.00    +0.000 C 
ATOM      9  O   UNL     1       2.082   8.991  17.353  0.00  0.00    +0.000 OA
ATOM     10  H   UNL     1       1.682   7.163  19.950  0.00  0.00    +0.000 HD
BRANCH   8  11
ATOM     11  C   UNL     1       1.149   9.490  19.416  0.00  0.00    +0.000 A 
ATOM     12  C   UNL     1       0.585   9.387  20.628  0.00  0.00    +0.000 A 
ATOM     13  C   UNL     1      -0.015   9.959  21.675  0.00  0.00    +0.000 A 
ATOM     14  C   UNL     1      -0.147  11.366  21.386  0.00  0.00    +0.000 A 
ATOM     15  N   UNL     1       0.296  11.767  20.246  0.00  0.00    +0.000 NA
ATOM     16  C   UNL     1       0.836  10.724  19.558  0.00  0.00    +0.000 A 
ENDBRANCH   8  11
ENDBRANCH   5   7
BRANCH   1  18
ATOM     17  C   UNL     1       6.201   3.962  15.886  0.00  0.00    +0.000 C 
ATOM     18  C   UNL     1       5.875   5.261  16.644  0.00  0.00    +0.000 C 
BRANCH  18  19
ATOM     19  C   UNL     1       6.911   5.485  17.733  0.00  0.00    +0.000 A 
ATOM     20  N   UNL     1       7.335   4.553  18.571  0.00  0.00    +0.000 NA
ATOM     21  N   UNL     1       8.214   5.112  19.457  0.00  0.00    +0.000 NA
ATOM     22  C   UNL     1       8.325   6.379  19.150  0.00  0.00    +0.000 A 
ATOM     23  N   UNL     1       7.559   6.660  18.055  0.00  0.00    +0.000 N 
ATOM     24  C   UNL     1       7.488   7.956  17.441  0.00  0.00    +0.000 C 
ENDBRANCH  18  19
ENDBRANCH   1  18
TORSDOF 4
ENDMDL
MODEL 4
REMARK VINA RESULT:      -7.6      4.094      6.720
REMARK  Name = 
REMARK  6 active torsions:
REMARK  status: ('A' for Active; 'I' for Inactive)
REMARK    1  A    between atoms: C_1  and  C_2
REMARK    2  A    between atoms: C_2  and  C_3
REMARK    3  A    between atoms: C_2  and  C_18
REMARK    4  A    between atoms: C_7  and  N_8
REMARK    5  A    between atoms: C_9  and  C_11
REMARK    6  A    between atoms: N_22  and  C_23
REMARK                            x       y       z     vdW  Elec       q    Type
REMARK                         _______ _______ _______ _____ _____    ______ ____
ROOT
ATOM      1  C   UNL     1       4.154   4.224  19.046  0.00  0.00    +0.000 A 
ATOM      2  C   UNL     1       3.383   3.059  18.976  0.00  0.00    +0.000 A 
ATOM      3  C   UNL     1       2.132   2.995  19.580  0.00  0.00    +0.000 A 
ATOM      4  C   UNL     1       1.607   4.111  20.232  0.00  0.00    +0.000 A 
ATOM      5  C   UNL     1       2.304   5.317  20.239  0.00  0.00    +0.000 A 
ATOM      6  C   UNL     1       3.572   5.374  19.628  0.00  0.00    +0.000 A 
ENDROOT
BRANCH   5   7
ATOM      7  N   UNL     1       1.798   6.491  20.837  0.00  0.00    +0.000 N 
ATOM      8  C   UNL     1       1.707   7.744  20.251  0.00  0.00    +0.000 C 
ATOM      9  O   UNL     1       2.068   8.073  19.125  0.00  0.00    +0.000 OA
ATOM     10  H   UNL     1       1.394   6.383  21.757  0.00  0.00    +0.000 HD
BRANCH   8  11
ATOM     11  C   UNL     1       1.021   8.706  21.095  0.00  0.00    +0.000 A 
ATOM     12  C   UNL     1       0.126   9.689  20.921  0.00  0.00    +0.000 A 
ATOM     13  C   UNL     1      -0.665  10.635  21.434  0.00  0.00    +0.000 A 
ATOM     14  C   UNL     1      -0.476  10.632  22.864  0.00  0.00    +0.000 A 
ATOM     15  N   UNL     1       0.370   9.784  23.334  0.00  0.00    +0.000 NA
ATOM     16  C   UNL     1       0.896   9.036  22.326  0.00  0.00    +0.000 A 
ENDBRANCH   8  11
ENDBRANCH   5   7
BRANCH   1  18
ATOM     17  C   UNL     1       6.360   5.385  19.170  0.00  0.00    +0.000 C 
ATOM     18  C   UNL     1       5.569   4.269  18.466  0.00  0.00    +0.000 C 
BRANCH  18  19
ATOM     19  C   UNL     1       5.637   4.473  16.962  0.00  0.00    +0.000 A 
ATOM     20  N   UNL     1       6.030   3.554  16.095  0.00  0.00    +0.000 NA
ATOM     21  N   UNL     1       6.031   4.093  14.838  0.00  0.00    +0.000 NA
ATOM     22  C   UNL     1       5.632   5.335  14.946  0.00  0.00    +0.000 A 
ATOM     23  N   UNL     1       5.337   5.616  16.249  0.00  0.00    +0.000 N 
ATOM     24  C   UNL     1       4.838   6.884  16.699  0.00  0.00    +0.000 C 
ENDBRANCH  18  19
ENDBRANCH   1  18
TORSDOF 4
ENDMDL
MODEL 5
REMARK VINA RESULT:      -7.5      3.886      6.111
REMARK  Name = 
REMARK  6 active torsions:
REMARK  status: ('A' for Active; 'I' for Inactive)
REMARK    1  A    between atoms: C_1  and  C_2
REMARK    2  A    between atoms: C_2  and  C_3
REMARK    3  A    between atoms: C_2  and  C_18
REMARK    4  A    between atoms: C_7  and  N_8
REMARK    5  A    between atoms: C_9  and  C_11
REMARK    6  A    between atoms: N_22  and  C_23
REMARK                            x       y       z     vdW  Elec       q    Type
REMARK                         _______ _______ _______ _____ _____    ______ ____
ROOT
ATOM      1  C   UNL     1       4.059   5.100  18.418  0.00  0.00    +0.000 A 
ATOM      2  C   UNL     1       5.199   5.447  19.151  0.00  0.00    +0.000 A 
ATOM      3  C   UNL     1       6.472   5.200  18.649  0.00  0.00    +0.000 A 
ATOM      4  C   UNL     1       6.632   4.637  17.383  0.00  0.00    +0.000 A 
ATOM      5  C   UNL     1       5.523   4.367  16.585  0.00  0.00    +0.000 A 
ATOM      6  C   UNL     1       4.237   4.616  17.101  0.00  0.00    +0.000 A 
ENDROOT
BRANCH   5   7
ATOM      7  N   UNL     1       5.628   3.846  15.277  0.00  0.00    +0.000 N 
ATOM      8  C   UNL     1       6.286   4.430  14.206  0.00  0.00    +0.000 C 
ATOM      9  O   UNL     1       6.873   5.508  14.184  0.00  0.00    +0.000 OA
ATOM     10  H   UNL     1       5.249   2.919  15.135  0.00  0.00    +0.000 HD
BRANCH   8  11
ATOM     11  C   UNL     1       6.315   3.573  13.034  0.00  0.00    +0.000 A 
ATOM     12  C   UNL     1       7.239   3.146  12.162  0.00  0.00    +0.000 A 
ATOM     13  C   UNL     1       7.575   2.396  11.110  0.00  0.00    +0.000 A 
ATOM     14  C   UNL     1       6.385   1.713  10.664  0.00  0.00    +0.000 A 
ATOM     15  N   UNL     1       5.302   1.954  11.315  0.00  0.00    +0.000 NA
ATOM     16  C   UNL     1       5.549   2.819  12.337  0.00  0.00    +0.000 A 
ENDBRANCH   8  11
ENDBRANCH   5   7
BRANCH   1  18
ATOM     17  C   UNL     1       2.549   6.700  19.595  0.00  0.00    +0.000 C 
ATOM     18  C   UNL     1       2.658   5.283  19.005  0.00  0.00    +0.000 C 
BRANCH  18  19
ATOM     19  C   UNL     1       2.271   4.264  20.063  0.00  0.00    +0.000 A 
ATOM     20  N   UNL     1       2.431   4.433  21.366  0.00  0.00    +0.000 NA
ATOM     21  N   UNL     1       2.038   3.298  22.019  0.00  0.00    +0.000 NA
ATOM     22  C   UNL     1       1.635   2.446  21.112  0.00  0.00    +0.000 A 
ATOM     23  N   UNL     1       1.724   3.011  19.872  0.00  0.00    +0.000 N 
ATOM     24  C   UNL     1       1.324   2.350  18.662  0.00  0.00    +0.000 C 
ENDBRANCH  18  19
ENDBRANCH   1  18
TORSDOF 4
ENDMDL
MODEL 6
REMARK VINA RESULT:      -7.5      3.744      6.416
REMARK  Name = 
REMARK  6 active torsions:
REMARK  status: ('A' for Active; 'I' for Inactive)
REMARK    1  A    between atoms: C_1  and  C_2
REMARK    2  A    between atoms: C_2  and  C_3
REMARK    3  A    between atoms: C_2  and  C_18
REMARK    4  A    between atoms: C_7  and  N_8
REMARK    5  A    between atoms: C_9  and  C_11
REMARK    6  A    between atoms: N_22  and  C_23
REMARK                            x       y       z     vdW  Elec       q    Type
REMARK                         _______ _______ _______ _____ _____    ______ ____
ROOT
ATOM      1  C   UNL     1       4.509   5.057  17.042  0.00  0.00    +0.000 A 
ATOM      2  C   UNL     1       3.813   3.882  16.737  0.00  0.00    +0.000 A 
ATOM      3  C   UNL     1       2.529   3.668  17.227  0.00  0.00    +0.000 A 
ATOM      4  C   UNL     1       1.897   4.643  17.997  0.00  0.00    +0.000 A 
ATOM      5  C   UNL     1       2.521   5.865  18.240  0.00  0.00    +0.000 A 
ATOM      6  C   UNL     1       3.822   6.074  17.744  0.00  0.00    +0.000 A 
ENDROOT
BRANCH   5   7
ATOM      7  N   UNL     1       1.908   6.907  18.968  0.00  0.00    +0.000 N 
ATOM      8  C   UNL     1       1.650   6.923  20.330  0.00  0.00    +0.000 C 
ATOM      9  O   UNL     1       1.879   6.036  21.147  0.00  0.00    +0.000 OA
ATOM     10  H   UNL     1       1.710   7.754  18.452  0.00  0.00    +0.000 HD
BRANCH   8  11
ATOM     11  C   UNL     1       1.125   8.199  20.784  0.00  0.00    +0.000 A 
ATOM     12  C   UNL     1       0.587   8.683  21.912  0.00  0.00    +0.000 A 
ATOM     13  C   UNL     1       0.094   9.711  22.607  0.00  0.00    +0.000 A 
ATOM     14  C   UNL     1       0.134  10.874  21.753  0.00  0.00    +0.000 A 
ATOM     15  N   UNL     1       0.593  10.703  20.564  0.00  0.00    +0.000 NA
ATOM     16  C   UNL     1       0.976   9.408  20.389  0.00  0.00    +0.000 A 
ENDBRANCH   8  11
ENDBRANCH   5   7
BRANCH   1  18
ATOM     17  C   UNL     1       6.391   4.029  15.765  0.00  0.00    +0.000 C 
ATOM     18  C   UNL     1       5.956   5.257  16.585  0.00  0.00    +0.000 C 
BRANCH  18  19
ATOM     19  C   UNL     1       6.953   5.495  17.706  0.00  0.00    +0.000 A 
ATOM     20  N   UNL     1       7.366   4.568  18.555  0.00  0.00    +0.000 NA
ATOM     21  N   UNL     1       8.207   5.138  19.469  0.00  0.00    +0.000 NA
ATOM     22  C   UNL     1       8.306   6.408  19.170  0.00  0.00    +0.000 A 
ATOM     23  N   UNL     1       7.570   6.679  18.052  0.00  0.00    +0.000 N 
ATOM     24  C   UNL     1       7.496   7.976  17.440  0.00  0.00    +0.000 C 
ENDBRANCH  18  19
ENDBRANCH   1  18
TORSDOF 4
ENDMDL
MODEL 7
REMARK VINA RESULT:      -7.5      3.651      6.707
REMARK  Name = 
REMARK  6 active torsions:
REMARK  status: ('A' for Active; 'I' for Inactive)
REMARK    1  A    between atoms: C_1  and  C_2
REMARK    2  A    between atoms: C_2  and  C_3
REMARK    3  A    between atoms: C_2  and  C_18
REMARK    4  A    between atoms: C_7  and  N_8
REMARK    5  A    between atoms: C_9  and  C_11
REMARK    6  A    between atoms: N_22  and  C_23
REMARK                            x       y       z     vdW  Elec       q    Type
REMARK                         _______ _______ _______ _____ _____    ______ ____
ROOT
ATOM      1  C   UNL     1       4.007   4.794  17.452  0.00  0.00    +0.000 A 
ATOM      2  C   UNL     1       3.524   3.481  17.462  0.00  0.00    +0.000 A 
ATOM      3  C   UNL     1       2.608   3.065  18.423  0.00  0.00    +0.000 A 
ATOM      4  C   UNL     1       2.123   3.967  19.369  0.00  0.00    +0.000 A 
ATOM      5  C   UNL     1       2.508   5.305  19.331  0.00  0.00    +0.000 A 
ATOM      6  C   UNL     1       3.438   5.719  18.358  0.00  0.00    +0.000 A 
ENDROOT
BRANCH   5   7
ATOM      7  N   UNL     1       2.010   6.272  20.231  0.00  0.00    +0.000 N 
ATOM      8  C   UNL     1       1.892   7.633  20.000  0.00  0.00    +0.000 C 
ATOM      9  O   UNL     1       2.218   8.254  18.992  0.00  0.00    +0.000 OA
ATOM     10  H   UNL     1       1.632   5.918  21.100  0.00  0.00    +0.000 HD
BRANCH   8  11
ATOM     11  C   UNL     1       1.222   8.328  21.085  0.00  0.00    +0.000 A 
ATOM     12  C   UNL     1      -0.045   8.562  21.456  0.00  0.00    +0.000 A 
ATOM     13  C   UNL     1      -0.917   9.070  22.330  0.00  0.00    +0.000 A 
ATOM     14  C   UNL     1      -0.161   9.684  23.394  0.00  0.00    +0.000 A 
ATOM     15  N   UNL     1       1.121   9.637  23.294  0.00  0.00    +0.000 NA
ATOM     16  C   UNL     1       1.481   8.965  22.166  0.00  0.00    +0.000 A 
ENDBRANCH   8  11
ENDBRANCH   5   7
BRANCH   1  18
ATOM     17  C   UNL     1       5.730   3.975  15.844  0.00  0.00    +0.000 C 
ATOM     18  C   UNL     1       5.085   5.230  16.458  0.00  0.00    +0.000 C 
BRANCH  18  19
ATOM     19  C   UNL     1       6.168   6.122  17.039  0.00  0.00    +0.000 A 
ATOM     20  N   UNL     1       6.535   7.288  16.533  0.00  0.00    +0.000 NA
ATOM     21  N   UNL     1       7.576   7.789  17.265  0.00  0.00    +0.000 NA
ATOM     22  C   UNL     1       7.833   6.929  18.216  0.00  0.00    +0.000 A 
ATOM     23  N   UNL     1       6.958   5.883  18.146  0.00  0.00    +0.000 N 
ATOM     24  C   UNL     1       6.949   4.785  19.071  0.00  0.00    +0.000 C 
ENDBRANCH  18  19
ENDBRANCH   1  18
TORSDOF 4
ENDMDL
MODEL 8
REMARK VINA RESULT:      -7.5      4.177      6.895
REMARK  Name = 
REMARK  6 active torsions:
REMARK  status: ('A' for Active; 'I' for Inactive)
REMARK    1  A    between atoms: C_1  and  C_2
REMARK    2  A    between atoms: C_2  and  C_3
REMARK    3  A    between atoms: C_2  and  C_18
REMARK    4  A    between atoms: C_7  and  N_8
REMARK    5  A    between atoms: C_9  and  C_11
REMARK    6  A    between atoms: N_22  and  C_23
REMARK                            x       y       z     vdW  Elec       q    Type
REMARK                         _______ _______ _______ _____ _____    ______ ____
ROOT
ATOM      1  C   UNL     1       3.913   4.530  19.067  0.00  0.00    +0.000 A 
ATOM      2  C   UNL     1       3.171   3.344  19.052  0.00  0.00    +0.000 A 
ATOM      3  C   UNL     1       1.949   3.259  19.712  0.00  0.00    +0.000 A 
ATOM      4  C   UNL     1       1.424   4.373  20.366  0.00  0.00    +0.000 A 
ATOM      5  C   UNL     1       2.089   5.596  20.321  0.00  0.00    +0.000 A 
ATOM      6  C   UNL     1       3.326   5.674  19.655  0.00  0.00    +0.000 A 
ENDROOT
BRANCH   5   7
ATOM      7  N   UNL     1       1.579   6.768  20.921  0.00  0.00    +0.000 N 
ATOM      8  C   UNL     1       1.484   8.021  20.337  0.00  0.00    +0.000 C 
ATOM      9  O   UNL     1       1.844   8.353  19.212  0.00  0.00    +0.000 OA
ATOM     10  H   UNL     1       1.174   6.657  21.841  0.00  0.00    +0.000 HD
BRANCH   8  11
ATOM     11  C   UNL     1       0.794   8.980  21.182  0.00  0.00    +0.000 A 
ATOM     12  C   UNL     1      -0.038  10.016  21.000  0.00  0.00    +0.000 A 
ATOM     13  C   UNL     1      -0.811  10.978  21.508  0.00  0.00    +0.000 A 
ATOM     14  C   UNL     1      -0.715  10.902  22.946  0.00  0.00    +0.000 A 
ATOM     15  N   UNL     1       0.057   9.991  23.426  0.00  0.00    +0.000 NA
ATOM     16  C   UNL     1       0.608   9.261  22.418  0.00  0.00    +0.000 A 
ENDBRANCH   8  11
ENDBRANCH   5   7
BRANCH   1  18
ATOM     17  C   UNL     1       6.265   5.294  19.400  0.00  0.00    +0.000 C 
ATOM     18  C   UNL     1       5.299   4.599  18.424  0.00  0.00    +0.000 C 
BRANCH  18  19
ATOM     19  C   UNL     1       5.345   5.306  17.079  0.00  0.00    +0.000 A 
ATOM     20  N   UNL     1       5.033   6.577  16.886  0.00  0.00    +0.000 NA
ATOM     21  N   UNL     1       5.121   6.864  15.552  0.00  0.00    +0.000 NA
ATOM     22  C   UNL     1       5.493   5.768  14.941  0.00  0.00    +0.000 A 
ATOM     23  N   UNL     1       5.683   4.770  15.853  0.00  0.00    +0.000 N 
ATOM     24  C   UNL     1       6.129   3.449  15.510  0.00  0.00    +0.000 C 
ENDBRANCH  18  19
ENDBRANCH   1  18
TORSDOF 4
ENDMDL
MODEL 9
REMARK VINA RESULT:      -7.4      3.496     10.118
REMARK  Name = 
REMARK  6 active torsions:
REMARK  status: ('A' for Active; 'I' for Inactive)
REMARK    1  A    between atoms: C_1  and  C_2
REMARK    2  A    between atoms: C_2  and  C_3
REMARK    3  A    between atoms: C_2  and  C_18
REMARK    4  A    between atoms: C_7  and  N_8
REMARK    5  A    between atoms: C_9  and  C_11
REMARK    6  A    between atoms: N_22  and  C_23
REMARK                            x       y       z     vdW  Elec       q    Type
REMARK                         _______ _______ _______ _____ _____    ______ ____
ROOT
ATOM      1  C   UNL     1      10.343  12.667  18.527  0.00  0.00    +0.000 A 
ATOM      2  C   UNL     1      10.580  13.076  19.843  0.00  0.00    +0.000 A 
ATOM      3  C   UNL     1      10.216  12.269  20.917  0.00  0.00    +0.000 A 
ATOM      4  C   UNL     1       9.645  11.017  20.694  0.00  0.00    +0.000 A 
ATOM      5  C   UNL     1       9.483  10.536  19.397  0.00  0.00    +0.000 A 
ATOM      6  C   UNL     1       9.850  11.358  18.315  0.00  0.00    +0.000 A 
ENDROOT
BRANCH   5   7
ATOM      7  N   UNL     1       8.959   9.255  19.114  0.00  0.00    +0.000 N 
ATOM      8  C   UNL     1       8.048   8.937  18.121  0.00  0.00    +0.000 C 
ATOM      9  O   UNL     1       7.509   9.699  17.324  0.00  0.00    +0.000 OA
ATOM     10  H   UNL     1       9.350   8.488  19.644  0.00  0.00    +0.000 HD
BRANCH   8  11
ATOM     11  C   UNL     1       7.813   7.507  18.015  0.00  0.00    +0.000 A 
ATOM     12  C   UNL     1       7.338   6.664  17.087  0.00  0.00    +0.000 A 
ATOM     13  C   UNL     1       7.062   5.419  16.692  0.00  0.00    +0.000 A 
ATOM     14  C   UNL     1       7.427   4.529  17.766  0.00  0.00    +0.000 A 
ATOM     15  N   UNL     1       7.903   5.072  18.831  0.00  0.00    +0.000 NA
ATOM     16  C   UNL     1       7.978   6.423  18.677  0.00  0.00    +0.000 A 
ENDBRANCH   8  11
ENDBRANCH   5   7
BRANCH   1  18
ATOM     17  C   UNL     1      12.099  13.332  16.883  0.00  0.00    +0.000 C 
ATOM     18  C   UNL     1      10.654  13.590  17.347  0.00  0.00    +0.000 C 
BRANCH  18  19
ATOM     19  C   UNL     1      10.470  15.071  17.629  0.00  0.00    +0.000 A 
ATOM     20  N   UNL     1      11.455  15.953  17.696  0.00  0.00    +0.000 NA
ATOM     21  N   UNL     1      10.942  17.175  18.029  0.00  0.00    +0.000 NA
ATOM     22  C   UNL     1       9.648  17.034  18.158  0.00  0.00    +0.000 A 
ATOM     23  N   UNL     1       9.293  15.745  17.883  0.00  0.00    +0.000 N 
ATOM     24  C   UNL     1       7.938  15.269  17.899  0.00  0.00    +0.000 C 
ENDBRANCH  18  19
ENDBRANCH   1  18
TORSDOF 4
ENDMDL
