MODEL 1
REMARK VINA RESULT:      -8.2      0.000      0.000
REMARK  Name = 
REMARK  5 active torsions:
REMARK  status: ('A' for Active; 'I' for Inactive)
REMARK    1  A    between atoms: C_7  and  O_8
REMARK    2  A    between atoms: O_8  and  C_9
REMARK    3  A    between atoms: C_9  and  C_11
REMARK    4  A    between atoms: C_11  and  O_12
REMARK    5  A    between atoms: O_12  and  C_13
REMARK                            x       y       z     vdW  Elec       q    Type
REMARK                         _______ _______ _______ _____ _____    ______ ____
ROOT
ATOM      1  O   UNL     1       2.938   2.534  19.829  0.00  0.00    +0.000 OA
ENDROOT
BRANCH   1   8
ATOM      2  O   UNL     1       7.820   5.703  14.865  0.00  0.00    +0.000 OA
ATOM      3  C   UNL     1       6.848   5.242  15.460  0.00  0.00    +0.000 C 
ATOM      4  C   UNL     1       5.539   4.945  14.766  0.00  0.00    +0.000 C 
ATOM      5  C   UNL     1       4.842   3.744  15.378  0.00  0.00    +0.000 C 
ATOM      6  C   UNL     1       4.779   3.872  16.875  0.00  0.00    +0.000 A 
ATOM      7  C   UNL     1       3.760   3.250  17.602  0.00  0.00    +0.000 A 
ATOM      8  C   UNL     1       3.798   3.274  18.992  0.00  0.00    +0.000 A 
ATOM      9  C   UNL     1       4.825   3.941  19.667  0.00  0.00    +0.000 A 
ATOM     10  C   UNL     1       5.851   4.550  18.945  0.00  0.00    +0.000 A 
ATOM     11  C   UNL     1       5.824   4.511  17.552  0.00  0.00    +0.000 A 
ATOM     12  N   UNL     1       6.866   5.083  16.822  0.00  0.00    +0.000 N 
ATOM     13  H   UNL     1       7.701   5.407  17.290  0.00  0.00    +0.000 HD
ENDBRANCH   1   8
BRANCH   1  14
ATOM     14  C   UNL     1       2.277   3.103  20.919  0.00  0.00    +0.000 C 
ATOM     15  O   UNL     1       2.374   2.767  22.092  0.00  0.00    +0.000 OA
BRANCH  14  16
ATOM     16  C   UNL     1       1.442   4.258  20.415  0.00  0.00    +0.000 C 
BRANCH  16  17
ATOM     17  O   UNL     1       1.972   5.467  20.919  0.00  0.00    +0.000 OA
BRANCH  17  18
ATOM     18  C   UNL     1       1.973   6.536  20.068  0.00  0.00    +0.000 A 
ATOM     19  C   UNL     1       2.486   6.559  18.759  0.00  0.00    +0.000 A 
ATOM     20  C   UNL     1       2.427   7.724  17.988  0.00  0.00    +0.000 A 
ATOM     21  C   UNL     1       1.839   8.850  18.538  0.00  0.00    +0.000 A 
ATOM     22  C   UNL     1       1.333   8.831  19.839  0.00  0.00    +0.000 A 
ATOM     23  C   UNL     1       1.401   7.690  20.614  0.00  0.00    +0.000 A 
ATOM     24  C   UNL     1       0.798  10.172  20.229  0.00  0.00    +0.000 C 
ATOM     25  C   UNL     1       0.624  10.827  18.852  0.00  0.00    +0.000 C 
ATOM     26  C   UNL     1       1.688  10.208  17.932  0.00  0.00    +0.000 C 
ENDBRANCH  17  18
ENDBRANCH  16  17
ENDBRANCH  14  16
ENDBRANCH   1  14
TORSDOF 5
ENDMDL
MODEL 2
REMARK VINA RESULT:      -8.2      0.964      2.090
REMARK  Name = 
REMARK  5 active torsions:
REMARK  status: ('A' for Active; 'I' for Inactive)
REMARK    1  A    between atoms: C_7  and  O_8
REMARK    2  A    between atoms: O_8  and  C_9
REMARK    3  A    between atoms: C_9  and  C_11
REMARK    4  A    between atoms: C_11  and  O_12
REMARK    5  A    between atoms: O_12  and  C_13
REMARK                            x       y       z     vdW  Elec       q    Type
REMARK                         _______ _______ _______ _____ _____    ______ ____
ROOT
ATOM      1  O   UNL     1       2.208   2.550  19.905  0.00  0.00    +0.000 OA
ENDROOT
BRANCH   1   8
ATOM      2  O   UNL     1       7.585   6.001  15.699  0.00  0.00    +0.000 OA
ATOM      3  C   UNL     1       6.936   5.386  16.544  0.00  0.00    +0.000 C 
ATOM      4  C   UNL     1       7.502   5.029  17.899  0.00  0.00    +0.000 C 
ATOM      5  C   UNL     1       6.430   5.040  18.972  0.00  0.00    +0.000 C 
ATOM      6  C   UNL     1       5.230   4.249  18.532  0.00  0.00    +0.000 A 
ATOM      7  C   UNL     1       4.390   3.643  19.471  0.00  0.00    +0.000 A 
ATOM      8  C   UNL     1       3.216   3.029  19.045  0.00  0.00    +0.000 A 
ATOM      9  C   UNL     1       2.886   2.985  17.687  0.00  0.00    +0.000 A 
ATOM     10  C   UNL     1       3.713   3.601  16.749  0.00  0.00    +0.000 A 
ATOM     11  C   UNL     1       4.881   4.231  17.176  0.00  0.00    +0.000 A 
ATOM     12  N   UNL     1       5.694   4.885  16.250  0.00  0.00    +0.000 N 
ATOM     13  H   UNL     1       5.381   5.018  15.299  0.00  0.00    +0.000 HD
ENDBRANCH   1   8
BRANCH   1  14
ATOM     14  C   UNL     1       1.828   3.223  21.067  0.00  0.00    +0.000 C 
ATOM     15  O   UNL     1       2.014   2.858  22.220  0.00  0.00    +0.000 OA
BRANCH  14  16
ATOM     16  C   UNL     1       1.179   4.529  20.666  0.00  0.00    +0.000 C 
BRANCH  16  17
ATOM     17  O   UNL     1       1.998   5.601  21.086  0.00  0.00    +0.000 OA
BRANCH  17  18
ATOM     18  C   UNL     1       1.615   6.853  20.695  0.00  0.00    +0.000 A 
ATOM     19  C   UNL     1       0.781   7.730  21.410  0.00  0.00    +0.000 A 
ATOM     20  C   UNL     1       0.463   8.992  20.896  0.00  0.00    +0.000 A 
ATOM     21  C   UNL     1       0.998   9.361  19.674  0.00  0.00    +0.000 A 
ATOM     22  C   UNL     1       1.822   8.489  18.960  0.00  0.00    +0.000 A 
ATOM     23  C   UNL     1       2.130   7.236  19.452  0.00  0.00    +0.000 A 
ATOM     24  C   UNL     1       2.233   9.086  17.652  0.00  0.00    +0.000 C 
ATOM     25  C   UNL     1       1.942  10.571  17.906  0.00  0.00    +0.000 C 
ATOM     26  C   UNL     1       0.781  10.628  18.910  0.00  0.00    +0.000 C 
ENDBRANCH  17  18
ENDBRANCH  16  17
ENDBRANCH  14  16
ENDBRANCH   1  14
TORSDOF 5
ENDMDL
MODEL 3
REMARK VINA RESULT:      -8.2      1.067      1.234
REMARK  Name = 
REMARK  5 active torsions:
REMARK  status: ('A' for Active; 'I' for Inactive)
REMARK    1  A    between atoms: C_7  and  O_8
REMARK    2  A    between atoms: O_8  and  C_9
REMARK    3  A    between atoms: C_9  and  C_11
REMARK    4  A    between atoms: C_11  and  O_12
REMARK    5  A    between atoms: O_12  and  C_13
REMARK                            x       y       z     vdW  Elec       q    Type
REMARK                         _______ _______ _______ _____ _____    ______ ____
ROOT
ATOM      1  O   UNL     1       4.055   3.845  19.752  0.00  0.00    +0.000 OA
ENDROOT
BRANCH   1   8
ATOM      2  O   UNL     1       8.254   5.572  13.596  0.00  0.00    +0.000 OA
ATOM      3  C   UNL     1       7.382   5.238  14.395  0.00  0.00    +0.000 C 
ATOM      4  C   UNL     1       6.116   4.533  13.965  0.00  0.00    +0.000 C 
ATOM      5  C   UNL     1       5.630   3.562  15.026  0.00  0.00    +0.000 C 
ATOM      6  C   UNL     1       5.587   4.226  16.374  0.00  0.00    +0.000 A 
ATOM      7  C   UNL     1       4.696   3.787  17.358  0.00  0.00    +0.000 A 
ATOM      8  C   UNL     1       4.767   4.330  18.637  0.00  0.00    +0.000 A 
ATOM      9  C   UNL     1       5.697   5.331  18.938  0.00  0.00    +0.000 A 
ATOM     10  C   UNL     1       6.597   5.760  17.963  0.00  0.00    +0.000 A 
ATOM     11  C   UNL     1       6.539   5.205  16.686  0.00  0.00    +0.000 A 
ATOM     12  N   UNL     1       7.460   5.599  15.716  0.00  0.00    +0.000 N 
ATOM     13  H   UNL     1       8.247   6.182  15.965  0.00  0.00    +0.000 HD
ENDBRANCH   1   8
BRANCH   1  14
ATOM     14  C   UNL     1       2.755   3.346  19.655  0.00  0.00    +0.000 C 
ATOM     15  O   UNL     1       2.427   2.207  19.353  0.00  0.00    +0.000 OA
BRANCH  14  16
ATOM     16  C   UNL     1       1.796   4.451  20.039  0.00  0.00    +0.000 C 
BRANCH  16  17
ATOM     17  O   UNL     1       2.534   5.586  20.442  0.00  0.00    +0.000 OA
BRANCH  17  18
ATOM     18  C   UNL     1       2.202   6.772  19.852  0.00  0.00    +0.000 A 
ATOM     19  C   UNL     1       2.467   7.145  18.523  0.00  0.00    +0.000 A 
ATOM     20  C   UNL     1       2.073   8.397  18.039  0.00  0.00    +0.000 A 
ATOM     21  C   UNL     1       1.403   9.254  18.895  0.00  0.00    +0.000 A 
ATOM     22  C   UNL     1       1.143   8.888  20.217  0.00  0.00    +0.000 A 
ATOM     23  C   UNL     1       1.543   7.661  20.708  0.00  0.00    +0.000 A 
ATOM     24  C   UNL     1       0.461   9.993  20.958  0.00  0.00    +0.000 C 
ATOM     25  C   UNL     1      -0.062  10.845  19.793  0.00  0.00    +0.000 C 
ATOM     26  C   UNL     1       0.916  10.642  18.625  0.00  0.00    +0.000 C 
ENDBRANCH  17  18
ENDBRANCH  16  17
ENDBRANCH  14  16
ENDBRANCH   1  14
TORSDOF 5
ENDMDL
MODEL 4
REMARK VINA RESULT:      -8.1      5.638      7.445
REMARK  Name = 
REMARK  5 active torsions:
REMARK  status: ('A' for Active; 'I' for Inactive)
REMARK    1  A    between atoms: C_7  and  O_8
REMARK    2  A    between atoms: O_8  and  C_9
REMARK    3  A    between atoms: C_9  and  C_11
REMARK    4  A    between atoms: C_11  and  O_12
REMARK    5  A    between atoms: O_12  and  C_13
REMARK                            x       y       z     vdW  Elec       q    Type
REMARK                         _______ _______ _______ _____ _____    ______ ____
ROOT
ATOM      1  O   UNL     1       6.384   7.444  16.777  0.00  0.00    +0.000 OA
ENDROOT
BRANCH   1   8
ATOM      2  O   UNL     1       1.314   1.944  18.372  0.00  0.00    +0.000 OA
ATOM      3  C   UNL     1       1.923   2.998  18.202  0.00  0.00    +0.000 C 
ATOM      4  C   UNL     1       1.439   4.314  18.764  0.00  0.00    +0.000 C 
ATOM      5  C   UNL     1       2.596   5.220  19.143  0.00  0.00    +0.000 C 
ATOM      6  C   UNL     1       3.589   5.311  18.018  0.00  0.00    +0.000 A 
ATOM      7  C   UNL     1       4.396   6.442  17.868  0.00  0.00    +0.000 A 
ATOM      8  C   UNL     1       5.396   6.446  16.901  0.00  0.00    +0.000 A 
ATOM      9  C   UNL     1       5.580   5.346  16.058  0.00  0.00    +0.000 A 
ATOM     10  C   UNL     1       4.786   4.210  16.214  0.00  0.00    +0.000 A 
ATOM     11  C   UNL     1       3.795   4.197  17.194  0.00  0.00    +0.000 A 
ATOM     12  N   UNL     1       3.023   3.051  17.385  0.00  0.00    +0.000 N 
ATOM     13  H   UNL     1       3.260   2.190  16.912  0.00  0.00    +0.000 HD
ENDBRANCH   1   8
BRANCH   1  14
ATOM     14  C   UNL     1       7.522   7.480  17.585  0.00  0.00    +0.000 C 
ATOM     15  O   UNL     1       8.133   6.520  18.034  0.00  0.00    +0.000 OA
BRANCH  14  16
ATOM     16  C   UNL     1       7.917   8.927  17.780  0.00  0.00    +0.000 C 
BRANCH  16  17
ATOM     17  O   UNL     1       8.830   9.017  18.854  0.00  0.00    +0.000 OA
BRANCH  17  18
ATOM     18  C   UNL     1       9.315  10.261  19.142  0.00  0.00    +0.000 A 
ATOM     19  C   UNL     1       9.390  10.852  20.416  0.00  0.00    +0.000 A 
ATOM     20  C   UNL     1       9.910  12.141  20.577  0.00  0.00    +0.000 A 
ATOM     21  C   UNL     1      10.361  12.815  19.456  0.00  0.00    +0.000 A 
ATOM     22  C   UNL     1      10.282  12.232  18.189  0.00  0.00    +0.000 A 
ATOM     23  C   UNL     1       9.756  10.967  18.018  0.00  0.00    +0.000 A 
ATOM     24  C   UNL     1      10.778  13.168  17.134  0.00  0.00    +0.000 C 
ATOM     25  C   UNL     1      11.583  14.162  17.982  0.00  0.00    +0.000 C 
ATOM     26  C   UNL     1      10.920  14.199  19.366  0.00  0.00    +0.000 C 
ENDBRANCH  17  18
ENDBRANCH  16  17
ENDBRANCH  14  16
ENDBRANCH   1  14
TORSDOF 5
ENDMDL
MODEL 5
REMARK VINA RESULT:      -8.1      2.658      6.408
REMARK  Name = 
REMARK  5 active torsions:
REMARK  status: ('A' for Active; 'I' for Inactive)
REMARK    1  A    between atoms: C_7  and  O_8
REMARK    2  A    between atoms: O_8  and  C_9
REMARK    3  A    between atoms: C_9  and  C_11
REMARK    4  A    between atoms: C_11  and  O_12
REMARK    5  A    between atoms: O_12  and  C_13
REMARK                            x       y       z     vdW  Elec       q    Type
REMARK                         _______ _______ _______ _____ _____    ______ ____
ROOT
ATOM      1  O   UNL     1       2.674   5.492  20.339  0.00  0.00    +0.000 OA
ENDROOT
BRANCH   1   8
ATOM      2  O   UNL     1      -0.197  12.319  18.427  0.00  0.00    +0.000 OA
ATOM      3  C   UNL     1       0.277  11.334  18.990  0.00  0.00    +0.000 C 
ATOM      4  C   UNL     1       0.326  11.207  20.495  0.00  0.00    +0.000 C 
ATOM      5  C   UNL     1       0.169   9.764  20.939  0.00  0.00    +0.000 C 
ATOM      6  C   UNL     1       1.101   8.868  20.173  0.00  0.00    +0.000 A 
ATOM      7  C   UNL     1       1.559   7.671  20.731  0.00  0.00    +0.000 A 
ATOM      8  C   UNL     1       2.314   6.798  19.953  0.00  0.00    +0.000 A 
ATOM      9  C   UNL     1       2.644   7.121  18.633  0.00  0.00    +0.000 A 
ATOM     10  C   UNL     1       2.176   8.307  18.069  0.00  0.00    +0.000 A 
ATOM     11  C   UNL     1       1.405   9.175  18.841  0.00  0.00    +0.000 A 
ATOM     12  N   UNL     1       0.899  10.345  18.274  0.00  0.00    +0.000 N 
ATOM     13  H   UNL     1       0.975  10.504  17.279  0.00  0.00    +0.000 HD
ENDBRANCH   1   8
BRANCH   1  14
ATOM     14  C   UNL     1       2.243   4.358  19.648  0.00  0.00    +0.000 C 
ATOM     15  O   UNL     1       1.166   4.205  19.088  0.00  0.00    +0.000 OA
BRANCH  14  16
ATOM     16  C   UNL     1       3.364   3.343  19.660  0.00  0.00    +0.000 C 
BRANCH  16  17
ATOM     17  O   UNL     1       3.880   3.208  18.352  0.00  0.00    +0.000 OA
BRANCH  17  18
ATOM     18  C   UNL     1       4.687   4.216  17.905  0.00  0.00    +0.000 A 
ATOM     19  C   UNL     1       4.529   4.941  16.711  0.00  0.00    +0.000 A 
ATOM     20  C   UNL     1       5.430   5.955  16.367  0.00  0.00    +0.000 A 
ATOM     21  C   UNL     1       6.471   6.236  17.235  0.00  0.00    +0.000 A 
ATOM     22  C   UNL     1       6.631   5.513  18.419  0.00  0.00    +0.000 A 
ATOM     23  C   UNL     1       5.757   4.500  18.760  0.00  0.00    +0.000 A 
ATOM     24  C   UNL     1       7.850   5.959  19.161  0.00  0.00    +0.000 C 
ATOM     25  C   UNL     1       8.101   7.328  18.513  0.00  0.00    +0.000 C 
ATOM     26  C   UNL     1       7.569   7.238  17.074  0.00  0.00    +0.000 C 
ENDBRANCH  17  18
ENDBRANCH  16  17
ENDBRANCH  14  16
ENDBRANCH   1  14
TORSDOF 5
ENDMDL
MODEL 6
REMARK VINA RESULT:      -8.0      2.624      5.892
REMARK  Name = 
REMARK  5 active torsions:
REMARK  status: ('A' for Active; 'I' for Inactive)
REMARK    1  A    between atoms: C_7  and  O_8
REMARK    2  A    between atoms: O_8  and  C_9
REMARK    3  A    between atoms: C_9  and  C_11
REMARK    4  A    between atoms: C_11  and  O_12
REMARK    5  A    between atoms: O_12  and  C_13
REMARK                            x       y       z     vdW  Elec       q    Type
REMARK                         _______ _______ _______ _____ _____    ______ ____
ROOT
ATOM      1  O   UNL     1       2.782   4.063  19.625  0.00  0.00    +0.000 OA
ENDROOT
BRANCH   1   8
ATOM      2  O   UNL     1       1.051  11.513  19.490  0.00  0.00    +0.000 OA
ATOM      3  C   UNL     1       1.286  10.333  19.236  0.00  0.00    +0.000 C 
ATOM      4  C   UNL     1       1.498   9.835  17.825  0.00  0.00    +0.000 C 
ATOM      5  C   UNL     1       2.493   8.690  17.780  0.00  0.00    +0.000 C 
ATOM      6  C   UNL     1       2.144   7.644  18.801  0.00  0.00    +0.000 A 
ATOM      7  C   UNL     1       2.511   6.309  18.609  0.00  0.00    +0.000 A 
ATOM      8  C   UNL     1       2.294   5.385  19.627  0.00  0.00    +0.000 A 
ATOM      9  C   UNL     1       1.683   5.772  20.824  0.00  0.00    +0.000 A 
ATOM     10  C   UNL     1       1.329   7.106  21.025  0.00  0.00    +0.000 A 
ATOM     11  C   UNL     1       1.563   8.036  20.013  0.00  0.00    +0.000 A 
ATOM     12  N   UNL     1       1.249   9.379  20.220  0.00  0.00    +0.000 N 
ATOM     13  H   UNL     1       0.978   9.706  21.137  0.00  0.00    +0.000 HD
ENDBRANCH   1   8
BRANCH   1  14
ATOM     14  C   UNL     1       2.634   3.208  18.531  0.00  0.00    +0.000 C 
ATOM     15  O   UNL     1       1.608   2.998  17.898  0.00  0.00    +0.000 OA
BRANCH  14  16
ATOM     16  C   UNL     1       3.985   2.608  18.215  0.00  0.00    +0.000 C 
BRANCH  16  17
ATOM     17  O   UNL     1       4.420   3.082  16.957  0.00  0.00    +0.000 OA
BRANCH  17  18
ATOM     18  C   UNL     1       5.096   4.268  16.951  0.00  0.00    +0.000 A 
ATOM     19  C   UNL     1       4.836   5.372  16.120  0.00  0.00    +0.000 A 
ATOM     20  C   UNL     1       5.607   6.535  16.213  0.00  0.00    +0.000 A 
ATOM     21  C   UNL     1       6.623   6.580  17.151  0.00  0.00    +0.000 A 
ATOM     22  C   UNL     1       6.887   5.483  17.974  0.00  0.00    +0.000 A 
ATOM     23  C   UNL     1       6.141   4.325  17.879  0.00  0.00    +0.000 A 
ATOM     24  C   UNL     1       8.058   5.748  18.865  0.00  0.00    +0.000 C 
ATOM     25  C   UNL     1       8.138   7.279  18.794  0.00  0.00    +0.000 C 
ATOM     26  C   UNL     1       7.595   7.685  17.416  0.00  0.00    +0.000 C 
ENDBRANCH  17  18
ENDBRANCH  16  17
ENDBRANCH  14  16
ENDBRANCH   1  14
TORSDOF 5
ENDMDL
MODEL 7
REMARK VINA RESULT:      -7.9      5.488      7.449
REMARK  Name = 
REMARK  5 active torsions:
REMARK  status: ('A' for Active; 'I' for Inactive)
REMARK    1  A    between atoms: C_7  and  O_8
REMARK    2  A    between atoms: O_8  and  C_9
REMARK    3  A    between atoms: C_9  and  C_11
REMARK    4  A    between atoms: C_11  and  O_12
REMARK    5  A    between atoms: O_12  and  C_13
REMARK                            x       y       z     vdW  Elec       q    Type
REMARK                         _______ _______ _______ _____ _____    ______ ____
ROOT
ATOM      1  O   UNL     1       6.878   5.944  18.530  0.00  0.00    +0.000 OA
ENDROOT
BRANCH   1   8
ATOM      2  O   UNL     1       0.223   2.186  18.836  0.00  0.00    +0.000 OA
ATOM      3  C   UNL     1       1.155   2.981  18.938  0.00  0.00    +0.000 C 
ATOM      4  C   UNL     1       1.130   4.138  19.910  0.00  0.00    +0.000 C 
ATOM      5  C   UNL     1       2.517   4.452  20.440  0.00  0.00    +0.000 C 
ATOM      6  C   UNL     1       3.504   4.562  19.312  0.00  0.00    +0.000 A 
ATOM      7  C   UNL     1       4.648   5.355  19.439  0.00  0.00    +0.000 A 
ATOM      8  C   UNL     1       5.610   5.336  18.435  0.00  0.00    +0.000 A 
ATOM      9  C   UNL     1       5.429   4.557  17.287  0.00  0.00    +0.000 A 
ATOM     10  C   UNL     1       4.297   3.753  17.163  0.00  0.00    +0.000 A 
ATOM     11  C   UNL     1       3.340   3.758  18.177  0.00  0.00    +0.000 A 
ATOM     12  N   UNL     1       2.224   2.927  18.082  0.00  0.00    +0.000 N 
ATOM     13  H   UNL     1       2.167   2.229  17.353  0.00  0.00    +0.000 HD
ENDBRANCH   1   8
BRANCH   1  14
ATOM     14  C   UNL     1       7.270   7.000  17.705  0.00  0.00    +0.000 C 
ATOM     15  O   UNL     1       6.864   7.238  16.576  0.00  0.00    +0.000 OA
BRANCH  14  16
ATOM     16  C   UNL     1       8.261   7.851  18.467  0.00  0.00    +0.000 C 
BRANCH  16  17
ATOM     17  O   UNL     1       8.312   9.137  17.884  0.00  0.00    +0.000 OA
BRANCH  17  18
ATOM     18  C   UNL     1       8.993  10.096  18.578  0.00  0.00    +0.000 A 
ATOM     19  C   UNL     1       9.123  10.180  19.976  0.00  0.00    +0.000 A 
ATOM     20  C   UNL     1       9.851  11.219  20.566  0.00  0.00    +0.000 A 
ATOM     21  C   UNL     1      10.452  12.154  19.741  0.00  0.00    +0.000 A 
ATOM     22  C   UNL     1      10.320  12.076  18.353  0.00  0.00    +0.000 A 
ATOM     23  C   UNL     1       9.590  11.063  17.763  0.00  0.00    +0.000 A 
ATOM     24  C   UNL     1      11.008  13.221  17.681  0.00  0.00    +0.000 C 
ATOM     25  C   UNL     1      11.941  13.698  18.802  0.00  0.00    +0.000 C 
ATOM     26  C   UNL     1      11.244  13.361  20.129  0.00  0.00    +0.000 C 
ENDBRANCH  17  18
ENDBRANCH  16  17
ENDBRANCH  14  16
ENDBRANCH   1  14
TORSDOF 5
ENDMDL
MODEL 8
REMARK VINA RESULT:      -7.9      5.608      7.334
REMARK  Name = 
REMARK  5 active torsions:
REMARK  status: ('A' for Active; 'I' for Inactive)
REMARK    1  A    between atoms: C_7  and  O_8
REMARK    2  A    between atoms: O_8  and  C_9
REMARK    3  A    between atoms: C_9  and  C_11
REMARK    4  A    between atoms: C_11  and  O_12
REMARK    5  A    between atoms: O_12  and  C_13
REMARK                            x       y       z     vdW  Elec       q    Type
REMARK                         _______ _______ _______ _____ _____    ______ ____
ROOT
ATOM      1  O   UNL     1       6.057   6.961  17.082  0.00  0.00    +0.000 OA
ENDROOT
BRANCH   1   8
ATOM      2  O   UNL     1       0.281   2.162  18.535  0.00  0.00    +0.000 OA
ATOM      3  C   UNL     1       1.366   2.727  18.407  0.00  0.00    +0.000 C 
ATOM      4  C   UNL     1       2.681   1.996  18.549  0.00  0.00    +0.000 C 
ATOM      5  C   UNL     1       3.743   2.576  17.633  0.00  0.00    +0.000 C 
ATOM      6  C   UNL     1       3.803   4.071  17.769  0.00  0.00    +0.000 A 
ATOM      7  C   UNL     1       4.988   4.765  17.504  0.00  0.00    +0.000 A 
ATOM      8  C   UNL     1       4.983   6.156  17.509  0.00  0.00    +0.000 A 
ATOM      9  C   UNL     1       3.815   6.865  17.809  0.00  0.00    +0.000 A 
ATOM     10  C   UNL     1       2.628   6.177  18.059  0.00  0.00    +0.000 A 
ATOM     11  C   UNL     1       2.628   4.783  18.036  0.00  0.00    +0.000 A 
ATOM     12  N   UNL     1       1.437   4.086  18.246  0.00  0.00    +0.000 N 
ATOM     13  H   UNL     1       0.556   4.580  18.283  0.00  0.00    +0.000 HD
ENDBRANCH   1   8
BRANCH   1  14
ATOM     14  C   UNL     1       7.240   7.087  17.812  0.00  0.00    +0.000 C 
ATOM     15  O   UNL     1       7.720   6.263  18.578  0.00  0.00    +0.000 OA
BRANCH  14  16
ATOM     16  C   UNL     1       7.874   8.414  17.459  0.00  0.00    +0.000 C 
BRANCH  16  17
ATOM     17  O   UNL     1       8.382   9.012  18.634  0.00  0.00    +0.000 OA
BRANCH  17  18
ATOM     18  C   UNL     1       8.917  10.262  18.503  0.00  0.00    +0.000 A 
ATOM     19  C   UNL     1       8.398  11.312  17.725  0.00  0.00    +0.000 A 
ATOM     20  C   UNL     1       9.045  12.551  17.674  0.00  0.00    +0.000 A 
ATOM     21  C   UNL     1      10.199  12.724  18.418  0.00  0.00    +0.000 A 
ATOM     22  C   UNL     1      10.719  11.681  19.188  0.00  0.00    +0.000 A 
ATOM     23  C   UNL     1      10.095  10.449  19.232  0.00  0.00    +0.000 A 
ATOM     24  C   UNL     1      11.993  12.087  19.856  0.00  0.00    +0.000 C 
ATOM     25  C   UNL     1      11.895  13.616  19.764  0.00  0.00    +0.000 C 
ATOM     26  C   UNL     1      11.080  13.930  18.501  0.00  0.00    +0.000 C 
ENDBRANCH  17  18
ENDBRANCH  16  17
ENDBRANCH  14  16
ENDBRANCH   1  14
TORSDOF 5
ENDMDL
MODEL 9
REMARK VINA RESULT:      -7.9      5.200      6.989
REMARK  Name = 
REMARK  5 active torsions:
REMARK  status: ('A' for Active; 'I' for Inactive)
REMARK    1  A    between atoms: C_7  and  O_8
REMARK    2  A    between atoms: O_8  and  C_9
REMARK    3  A    between atoms: C_9  and  C_11
REMARK    4  A    between atoms: C_11  and  O_12
REMARK    5  A    between atoms: O_12  and  C_13
REMARK                            x       y       z     vdW  Elec       q    Type
REMARK                         _______ _______ _______ _____ _____    ______ ____
ROOT
ATOM      1  O   UNL     1       6.830   6.065  18.440  0.00  0.00    +0.000 OA
ENDROOT
BRANCH   1   8
ATOM      2  O   UNL     1       0.186   2.274  18.422  0.00  0.00    +0.000 OA
ATOM      3  C   UNL     1       1.301   2.735  18.657  0.00  0.00    +0.000 C 
ATOM      4  C   UNL     1       2.236   2.116  19.670  0.00  0.00    +0.000 C 
ATOM      5  C   UNL     1       3.689   2.276  19.260  0.00  0.00    +0.000 C 
ATOM      6  C   UNL     1       3.980   3.701  18.881  0.00  0.00    +0.000 A 
ATOM      7  C   UNL     1       5.269   4.225  19.012  0.00  0.00    +0.000 A 
ATOM      8  C   UNL     1       5.541   5.503  18.532  0.00  0.00    +0.000 A 
ATOM      9  C   UNL     1       4.531   6.278  17.952  0.00  0.00    +0.000 A 
ATOM     10  C   UNL     1       3.248   5.753  17.806  0.00  0.00    +0.000 A 
ATOM     11  C   UNL     1       2.978   4.466  18.270  0.00  0.00    +0.000 A 
ATOM     12  N   UNL     1       1.708   3.917  18.093  0.00  0.00    +0.000 N 
ATOM     13  H   UNL     1       1.023   4.388  17.519  0.00  0.00    +0.000 HD
ENDBRANCH   1   8
BRANCH   1  14
ATOM     14  C   UNL     1       7.281   6.729  17.298  0.00  0.00    +0.000 C 
ATOM     15  O   UNL     1       7.591   6.221  16.229  0.00  0.00    +0.000 OA
BRANCH  14  16
ATOM     16  C   UNL     1       7.278   8.214  17.583  0.00  0.00    +0.000 C 
BRANCH  16  17
ATOM     17  O   UNL     1       8.464   8.557  18.268  0.00  0.00    +0.000 OA
BRANCH  17  18
ATOM     18  C   UNL     1       8.730   9.890  18.403  0.00  0.00    +0.000 A 
ATOM     19  C   UNL     1       8.320  10.913  17.530  0.00  0.00    +0.000 A 
ATOM     20  C   UNL     1       8.661  12.247  17.782  0.00  0.00    +0.000 A 
ATOM     21  C   UNL     1       9.398  12.536  18.917  0.00  0.00    +0.000 A 
ATOM     22  C   UNL     1       9.810  11.521  19.782  0.00  0.00    +0.000 A 
ATOM     23  C   UNL     1       9.492  10.200  19.534  0.00  0.00    +0.000 A 
ATOM     24  C   UNL     1      10.634  12.069  20.903  0.00  0.00    +0.000 C 
ATOM     25  C   UNL     1      10.253  13.555  20.844  0.00  0.00    +0.000 C 
ATOM     26  C   UNL     1       9.908  13.864  19.379  0.00  0.00    +0.000 C 
ENDBRANCH  17  18
ENDBRANCH  16  17
ENDBRANCH  14  16
ENDBRANCH   1  14
TORSDOF 5
ENDMDL
