MODEL 1
REMARK VINA RESULT:      -9.3      0.000      0.000
REMARK  Name = 
REMARK  5 active torsions:
REMARK  status: ('A' for Active; 'I' for Inactive)
REMARK    1  A    between atoms: C_2  and  C_3
REMARK    2  A    between atoms: N_11  and  C_12
REMARK    3  A    between atoms: N_11  and  C_24
REMARK    4  A    between atoms: C_12  and  C_13
REMARK    5  A    between atoms: C_24  and  C_25
REMARK                            x       y       z     vdW  Elec       q    Type
REMARK                         _______ _______ _______ _____ _____    ______ ____
ROOT
ATOM      1  O   UNL     1       4.200   4.620  16.505  0.00  0.00    +0.000 OA
ATOM      2  C   UNL     1       4.337   5.241  17.563  0.00  0.00    +0.000 C 
ATOM      3  N   UNL     1       3.301   5.217  18.509  0.00  0.00    +0.000 N 
ENDROOT
BRANCH   2   4
ATOM      4  C   UNL     1       5.686   5.909  17.765  0.00  0.00    +0.000 A 
ATOM      5  C   UNL     1       6.570   5.270  18.656  0.00  0.00    +0.000 A 
ATOM      6  C   UNL     1       7.791   5.849  19.009  0.00  0.00    +0.000 A 
ATOM      7  F   UNL     1       8.591   5.216  19.876  0.00  0.00    +0.000 F 
ATOM      8  C   UNL     1       8.185   7.071  18.499  0.00  0.00    +0.000 A 
ATOM      9  C   UNL     1       7.333   7.707  17.620  0.00  0.00    +0.000 A 
ATOM     10  F   UNL     1       7.663   8.907  17.125  0.00  0.00    +0.000 F 
ATOM     11  C   UNL     1       6.111   7.142  17.253  0.00  0.00    +0.000 A 
ENDBRANCH   2   4
BRANCH   3  12
ATOM     12  C   UNL     1       3.260   5.887  19.804  0.00  0.00    +0.000 C 
BRANCH  12  13
ATOM     13  C   UNL     1       2.423   7.172  19.716  0.00  0.00    +0.000 A 
ATOM     14  N   UNL     1       1.646   7.486  20.696  0.00  0.00    +0.000 NA
ATOM     15  C   UNL     1       0.929   8.696  20.609  0.00  0.00    +0.000 A 
ATOM     16  C   UNL     1       0.175   9.100  21.709  0.00  0.00    +0.000 A 
ATOM     17  C   UNL     1      -0.508  10.318  21.691  0.00  0.00    +0.000 A 
ATOM     18  C   UNL     1      -0.450  11.140  20.563  0.00  0.00    +0.000 A 
ATOM     19  C   UNL     1       0.285  10.743  19.448  0.00  0.00    +0.000 A 
ATOM     20  C   UNL     1       0.971   9.527  19.484  0.00  0.00    +0.000 A 
ATOM     21  C   UNL     1       1.811   9.092  18.361  0.00  0.00    +0.000 A 
ATOM     22  O   UNL     1       1.890   9.718  17.311  0.00  0.00    +0.000 OA
ATOM     23  N   UNL     1       2.522   7.940  18.579  0.00  0.00    +0.000 N 
ATOM     24  H   UNL     1       3.172   7.711  17.844  0.00  0.00    +0.000 HD
ENDBRANCH  12  13
ENDBRANCH   3  12
BRANCH   3  25
ATOM     25  C   UNL     1       2.130   4.347  18.251  0.00  0.00    +0.000 C 
BRANCH  25  26
ATOM     26  C   UNL     1       1.817   3.281  19.318  0.00  0.00    +0.000 C 
ATOM     27  C   UNL     1       0.972   3.733  20.494  0.00  0.00    +0.000 C 
ATOM     28  C   UNL     1       1.273   2.662  21.514  0.00  0.00    +0.000 C 
ATOM     29  C   UNL     1       2.740   2.385  21.262  0.00  0.00    +0.000 C 
ATOM     30  O   UNL     1       3.005   2.689  19.881  0.00  0.00    +0.000 OA
ENDBRANCH  25  26
ENDBRANCH   3  25
TORSDOF 5
ENDMDL
MODEL 2
REMARK VINA RESULT:      -8.6      0.452      1.581
REMARK  Name = 
REMARK  5 active torsions:
REMARK  status: ('A' for Active; 'I' for Inactive)
REMARK    1  A    between atoms: C_2  and  C_3
REMARK    2  A    between atoms: N_11  and  C_12
REMARK    3  A    between atoms: N_11  and  C_24
REMARK    4  A    between atoms: C_12  and  C_13
REMARK    5  A    between atoms: C_24  and  C_25
REMARK                            x       y       z     vdW  Elec       q    Type
REMARK                         _______ _______ _______ _____ _____    ______ ____
ROOT
ATOM      1  O   UNL     1       4.309   5.075  16.455  0.00  0.00    +0.000 OA
ATOM      2  C   UNL     1       4.355   5.558  17.591  0.00  0.00    +0.000 C 
ATOM      3  N   UNL     1       3.205   5.536  18.391  0.00  0.00    +0.000 N 
ENDROOT
BRANCH   2   4
ATOM      4  C   UNL     1       5.718   6.059  18.037  0.00  0.00    +0.000 A 
ATOM      5  C   UNL     1       6.174   7.246  17.430  0.00  0.00    +0.000 A 
ATOM      6  C   UNL     1       7.457   7.742  17.675  0.00  0.00    +0.000 A 
ATOM      7  F   UNL     1       7.856   8.862  17.059  0.00  0.00    +0.000 F 
ATOM      8  C   UNL     1       8.333   7.091  18.522  0.00  0.00    +0.000 A 
ATOM      9  C   UNL     1       7.899   5.931  19.129  0.00  0.00    +0.000 A 
ATOM     10  F   UNL     1       8.727   5.253  19.935  0.00  0.00    +0.000 F 
ATOM     11  C   UNL     1       6.620   5.423  18.900  0.00  0.00    +0.000 A 
ENDBRANCH   2   4
BRANCH   3  12
ATOM     12  C   UNL     1       3.048   6.059  19.744  0.00  0.00    +0.000 C 
BRANCH  12  13
ATOM     13  C   UNL     1       2.228   7.358  19.724  0.00  0.00    +0.000 A 
ATOM     14  N   UNL     1       1.492   7.653  20.742  0.00  0.00    +0.000 NA
ATOM     15  C   UNL     1       0.792   8.876  20.716  0.00  0.00    +0.000 A 
ATOM     16  C   UNL     1       0.084   9.257  21.855  0.00  0.00    +0.000 A 
ATOM     17  C   UNL     1      -0.579  10.486  21.897  0.00  0.00    +0.000 A 
ATOM     18  C   UNL     1      -0.549  11.339  20.792  0.00  0.00    +0.000 A 
ATOM     19  C   UNL     1       0.138  10.965  19.640  0.00  0.00    +0.000 A 
ATOM     20  C   UNL     1       0.806   9.739  19.615  0.00  0.00    +0.000 A 
ATOM     21  C   UNL     1       1.598   9.326  18.450  0.00  0.00    +0.000 A 
ATOM     22  O   UNL     1       1.648   9.982  17.416  0.00  0.00    +0.000 OA
ATOM     23  N   UNL     1       2.298   8.158  18.608  0.00  0.00    +0.000 N 
ATOM     24  H   UNL     1       2.917   7.942  17.843  0.00  0.00    +0.000 HD
ENDBRANCH  12  13
ENDBRANCH   3  12
BRANCH   3  25
ATOM     25  C   UNL     1       2.007   4.823  17.887  0.00  0.00    +0.000 C 
BRANCH  25  26
ATOM     26  C   UNL     1       1.537   3.605  18.704  0.00  0.00    +0.000 C 
ATOM     27  C   UNL     1       0.880   3.903  20.039  0.00  0.00    +0.000 C 
ATOM     28  C   UNL     1       1.004   2.572  20.741  0.00  0.00    +0.000 C 
ATOM     29  C   UNL     1       2.359   2.089  20.270  0.00  0.00    +0.000 C 
ATOM     30  O   UNL     1       2.601   2.672  18.978  0.00  0.00    +0.000 OA
ENDBRANCH  25  26
ENDBRANCH   3  25
TORSDOF 5
ENDMDL
MODEL 3
REMARK VINA RESULT:      -8.5      4.579      6.784
REMARK  Name = 
REMARK  5 active torsions:
REMARK  status: ('A' for Active; 'I' for Inactive)
REMARK    1  A    between atoms: C_2  and  C_3
REMARK    2  A    between atoms: N_11  and  C_12
REMARK    3  A    between atoms: N_11  and  C_24
REMARK    4  A    between atoms: C_12  and  C_13
REMARK    5  A    between atoms: C_24  and  C_25
REMARK                            x       y       z     vdW  Elec       q    Type
REMARK                         _______ _______ _______ _____ _____    ______ ____
ROOT
ATOM      1  O   UNL     1       5.909   6.087  14.133  0.00  0.00    +0.000 OA
ATOM      2  C   UNL     1       5.714   4.907  14.441  0.00  0.00    +0.000 C 
ATOM      3  N   UNL     1       5.593   4.565  15.796  0.00  0.00    +0.000 N 
ENDROOT
BRANCH   2   4
ATOM      4  C   UNL     1       5.536   3.943  13.280  0.00  0.00    +0.000 A 
ATOM      5  C   UNL     1       6.707   3.325  12.800  0.00  0.00    +0.000 A 
ATOM      6  C   UNL     1       6.686   2.510  11.666  0.00  0.00    +0.000 A 
ATOM      7  F   UNL     1       7.827   1.959  11.232  0.00  0.00    +0.000 F 
ATOM      8  C   UNL     1       5.517   2.274  10.968  0.00  0.00    +0.000 A 
ATOM      9  C   UNL     1       4.361   2.867  11.429  0.00  0.00    +0.000 A 
ATOM     10  F   UNL     1       3.212   2.688  10.766  0.00  0.00    +0.000 F 
ATOM     11  C   UNL     1       4.362   3.682  12.563  0.00  0.00    +0.000 A 
ENDBRANCH   2   4
BRANCH   3  12
ATOM     12  C   UNL     1       5.375   3.240  16.366  0.00  0.00    +0.000 C 
BRANCH  12  13
ATOM     13  C   UNL     1       4.190   3.265  17.342  0.00  0.00    +0.000 A 
ATOM     14  N   UNL     1       4.353   2.822  18.542  0.00  0.00    +0.000 NA
ATOM     15  C   UNL     1       3.261   2.906  19.430  0.00  0.00    +0.000 A 
ATOM     16  C   UNL     1       3.459   2.535  20.759  0.00  0.00    +0.000 A 
ATOM     17  C   UNL     1       2.423   2.653  21.688  0.00  0.00    +0.000 A 
ATOM     18  C   UNL     1       1.173   3.133  21.291  0.00  0.00    +0.000 A 
ATOM     19  C   UNL     1       0.954   3.491  19.963  0.00  0.00    +0.000 A 
ATOM     20  C   UNL     1       2.002   3.378  19.046  0.00  0.00    +0.000 A 
ATOM     21  C   UNL     1       1.841   3.802  17.650  0.00  0.00    +0.000 A 
ATOM     22  O   UNL     1       0.773   4.192  17.194  0.00  0.00    +0.000 OA
ATOM     23  N   UNL     1       2.984   3.750  16.892  0.00  0.00    +0.000 N 
ATOM     24  H   UNL     1       2.884   4.141  15.970  0.00  0.00    +0.000 HD
ENDBRANCH  12  13
ENDBRANCH   3  12
BRANCH   3  25
ATOM     25  C   UNL     1       5.584   5.654  16.801  0.00  0.00    +0.000 C 
BRANCH  25  26
ATOM     26  C   UNL     1       6.954   6.234  17.199  0.00  0.00    +0.000 C 
ATOM     27  C   UNL     1       7.312   6.165  18.672  0.00  0.00    +0.000 C 
ATOM     28  C   UNL     1       8.404   7.203  18.768  0.00  0.00    +0.000 C 
ATOM     29  C   UNL     1       7.915   8.268  17.809  0.00  0.00    +0.000 C 
ATOM     30  O   UNL     1       7.110   7.614  16.812  0.00  0.00    +0.000 OA
ENDBRANCH  25  26
ENDBRANCH   3  25
TORSDOF 5
ENDMDL
MODEL 4
REMARK VINA RESULT:      -8.5      1.191      1.761
REMARK  Name = 
REMARK  5 active torsions:
REMARK  status: ('A' for Active; 'I' for Inactive)
REMARK    1  A    between atoms: C_2  and  C_3
REMARK    2  A    between atoms: N_11  and  C_12
REMARK    3  A    between atoms: N_11  and  C_24
REMARK    4  A    between atoms: C_12  and  C_13
REMARK    5  A    between atoms: C_24  and  C_25
REMARK                            x       y       z     vdW  Elec       q    Type
REMARK                         _______ _______ _______ _____ _____    ______ ____
ROOT
ATOM      1  O   UNL     1       4.133   5.094  16.481  0.00  0.00    +0.000 OA
ATOM      2  C   UNL     1       4.328   5.621  17.580  0.00  0.00    +0.000 C 
ATOM      3  N   UNL     1       3.313   5.580  18.547  0.00  0.00    +0.000 N 
ENDROOT
BRANCH   2   4
ATOM      4  C   UNL     1       5.717   6.197  17.797  0.00  0.00    +0.000 A 
ATOM      5  C   UNL     1       6.548   5.495  18.693  0.00  0.00    +0.000 A 
ATOM      6  C   UNL     1       7.802   5.990  19.059  0.00  0.00    +0.000 A 
ATOM      7  F   UNL     1       8.550   5.300  19.930  0.00  0.00    +0.000 F 
ATOM      8  C   UNL     1       8.281   7.185  18.560  0.00  0.00    +0.000 A 
ATOM      9  C   UNL     1       7.482   7.881  17.677  0.00  0.00    +0.000 A 
ATOM     10  F   UNL     1       7.896   9.058  17.191  0.00  0.00    +0.000 F 
ATOM     11  C   UNL     1       6.228   7.401  17.296  0.00  0.00    +0.000 A 
ENDBRANCH   2   4
BRANCH   3  12
ATOM     12  C   UNL     1       3.338   6.148  19.891  0.00  0.00    +0.000 C 
BRANCH  12  13
ATOM     13  C   UNL     1       2.351   7.320  19.996  0.00  0.00    +0.000 A 
ATOM     14  N   UNL     1       2.048   7.985  18.933  0.00  0.00    +0.000 NA
ATOM     15  C   UNL     1       1.100   9.021  19.051  0.00  0.00    +0.000 A 
ATOM     16  C   UNL     1       0.682   9.671  17.891  0.00  0.00    +0.000 A 
ATOM     17  C   UNL     1      -0.297  10.666  17.951  0.00  0.00    +0.000 A 
ATOM     18  C   UNL     1      -0.857  11.028  19.178  0.00  0.00    +0.000 A 
ATOM     19  C   UNL     1      -0.438  10.401  20.349  0.00  0.00    +0.000 A 
ATOM     20  C   UNL     1       0.534   9.400  20.273  0.00  0.00    +0.000 A 
ATOM     21  C   UNL     1       0.964   8.664  21.468  0.00  0.00    +0.000 A 
ATOM     22  O   UNL     1       0.567   8.938  22.594  0.00  0.00    +0.000 OA
ATOM     23  N   UNL     1       1.832   7.628  21.231  0.00  0.00    +0.000 N 
ATOM     24  H   UNL     1       2.036   7.069  22.043  0.00  0.00    +0.000 HD
ENDBRANCH  12  13
ENDBRANCH   3  12
BRANCH   3  25
ATOM     25  C   UNL     1       2.089   4.799  18.255  0.00  0.00    +0.000 C 
BRANCH  25  26
ATOM     26  C   UNL     1       1.807   3.593  19.171  0.00  0.00    +0.000 C 
ATOM     27  C   UNL     1       0.994   3.873  20.421  0.00  0.00    +0.000 C 
ATOM     28  C   UNL     1       1.324   2.672  21.273  0.00  0.00    +0.000 C 
ATOM     29  C   UNL     1       2.784   2.441  20.946  0.00  0.00    +0.000 C 
ATOM     30  O   UNL     1       3.011   2.935  19.614  0.00  0.00    +0.000 OA
ENDBRANCH  25  26
ENDBRANCH   3  25
TORSDOF 5
ENDMDL
MODEL 5
REMARK VINA RESULT:      -8.5      1.716      2.038
REMARK  Name = 
REMARK  5 active torsions:
REMARK  status: ('A' for Active; 'I' for Inactive)
REMARK    1  A    between atoms: C_2  and  C_3
REMARK    2  A    between atoms: N_11  and  C_12
REMARK    3  A    between atoms: N_11  and  C_24
REMARK    4  A    between atoms: C_12  and  C_13
REMARK    5  A    between atoms: C_24  and  C_25
REMARK                            x       y       z     vdW  Elec       q    Type
REMARK                         _______ _______ _______ _____ _____    ______ ____
ROOT
ATOM      1  O   UNL     1       2.687   3.560  16.413  0.00  0.00    +0.000 OA
ATOM      2  C   UNL     1       3.322   4.318  17.152  0.00  0.00    +0.000 C 
ATOM      3  N   UNL     1       2.760   4.707  18.376  0.00  0.00    +0.000 N 
ENDROOT
BRANCH   2   4
ATOM      4  C   UNL     1       4.717   4.686  16.677  0.00  0.00    +0.000 A 
ATOM      5  C   UNL     1       5.114   4.150  15.436  0.00  0.00    +0.000 A 
ATOM      6  C   UNL     1       6.412   4.324  14.951  0.00  0.00    +0.000 A 
ATOM      7  F   UNL     1       6.751   3.778  13.776  0.00  0.00    +0.000 F 
ATOM      8  C   UNL     1       7.362   5.028  15.665  0.00  0.00    +0.000 A 
ATOM      9  C   UNL     1       6.987   5.565  16.878  0.00  0.00    +0.000 A 
ATOM     10  F   UNL     1       7.885   6.231  17.616  0.00  0.00    +0.000 F 
ATOM     11  C   UNL     1       5.694   5.405  17.379  0.00  0.00    +0.000 A 
ENDBRANCH   2   4
BRANCH   3  12
ATOM     12  C   UNL     1       3.335   5.597  19.380  0.00  0.00    +0.000 C 
BRANCH  12  13
ATOM     13  C   UNL     1       2.539   6.908  19.452  0.00  0.00    +0.000 A 
ATOM     14  N   UNL     1       1.850   7.169  20.511  0.00  0.00    +0.000 NA
ATOM     15  C   UNL     1       1.171   8.403  20.568  0.00  0.00    +0.000 A 
ATOM     16  C   UNL     1       0.517   8.744  21.751  0.00  0.00    +0.000 A 
ATOM     17  C   UNL     1      -0.122   9.980  21.876  0.00  0.00    +0.000 A 
ATOM     18  C   UNL     1      -0.121  10.882  20.810  0.00  0.00    +0.000 A 
ATOM     19  C   UNL     1       0.513  10.550  19.615  0.00  0.00    +0.000 A 
ATOM     20  C   UNL     1       1.157   9.315  19.508  0.00  0.00    +0.000 A 
ATOM     21  C   UNL     1       1.894   8.943  18.294  0.00  0.00    +0.000 A 
ATOM     22  O   UNL     1       1.914   9.645  17.290  0.00  0.00    +0.000 OA
ATOM     23  N   UNL     1       2.579   7.757  18.371  0.00  0.00    +0.000 N 
ATOM     24  H   UNL     1       3.162   7.567  17.572  0.00  0.00    +0.000 HD
ENDBRANCH  12  13
ENDBRANCH   3  12
BRANCH   3  25
ATOM     25  C   UNL     1       1.475   4.096  18.790  0.00  0.00    +0.000 C 
BRANCH  25  26
ATOM     26  C   UNL     1       1.547   3.025  19.895  0.00  0.00    +0.000 C 
ATOM     27  C   UNL     1       1.186   3.479  21.297  0.00  0.00    +0.000 C 
ATOM     28  C   UNL     1       1.814   2.394  22.138  0.00  0.00    +0.000 C 
ATOM     29  C   UNL     1       3.089   2.098  21.376  0.00  0.00    +0.000 C 
ATOM     30  O   UNL     1       2.847   2.411  19.993  0.00  0.00    +0.000 OA
ENDBRANCH  25  26
ENDBRANCH   3  25
TORSDOF 5
ENDMDL
MODEL 6
REMARK VINA RESULT:      -8.4      4.592      6.851
REMARK  Name = 
REMARK  5 active torsions:
REMARK  status: ('A' for Active; 'I' for Inactive)
REMARK    1  A    between atoms: C_2  and  C_3
REMARK    2  A    between atoms: N_11  and  C_12
REMARK    3  A    between atoms: N_11  and  C_24
REMARK    4  A    between atoms: C_12  and  C_13
REMARK    5  A    between atoms: C_24  and  C_25
REMARK                            x       y       z     vdW  Elec       q    Type
REMARK                         _______ _______ _______ _____ _____    ______ ____
ROOT
ATOM      1  O   UNL     1       6.207   6.064  14.171  0.00  0.00    +0.000 OA
ATOM      2  C   UNL     1       5.940   4.885  14.421  0.00  0.00    +0.000 C 
ATOM      3  N   UNL     1       5.684   4.508  15.747  0.00  0.00    +0.000 N 
ENDROOT
BRANCH   2   4
ATOM      4  C   UNL     1       5.830   3.965  13.216  0.00  0.00    +0.000 A 
ATOM      5  C   UNL     1       4.553   3.855  12.632  0.00  0.00    +0.000 A 
ATOM      6  C   UNL     1       4.304   2.955  11.593  0.00  0.00    +0.000 A 
ATOM      7  F   UNL     1       3.070   2.869  11.082  0.00  0.00    +0.000 F 
ATOM      8  C   UNL     1       5.298   2.135  11.095  0.00  0.00    +0.000 A 
ATOM      9  C   UNL     1       6.556   2.236  11.652  0.00  0.00    +0.000 A 
ATOM     10  F   UNL     1       7.541   1.439  11.218  0.00  0.00    +0.000 F 
ATOM     11  C   UNL     1       6.824   3.132  12.688  0.00  0.00    +0.000 A 
ENDBRANCH   2   4
BRANCH   3  12
ATOM     12  C   UNL     1       5.365   3.177  16.251  0.00  0.00    +0.000 C 
BRANCH  12  13
ATOM     13  C   UNL     1       4.203   3.248  17.252  0.00  0.00    +0.000 A 
ATOM     14  N   UNL     1       4.375   2.797  18.449  0.00  0.00    +0.000 NA
ATOM     15  C   UNL     1       3.307   2.923  19.360  0.00  0.00    +0.000 A 
ATOM     16  C   UNL     1       3.519   2.543  20.685  0.00  0.00    +0.000 A 
ATOM     17  C   UNL     1       2.509   2.701  21.636  0.00  0.00    +0.000 A 
ATOM     18  C   UNL     1       1.271   3.231  21.266  0.00  0.00    +0.000 A 
ATOM     19  C   UNL     1       1.036   3.598  19.944  0.00  0.00    +0.000 A 
ATOM     20  C   UNL     1       2.059   3.445  19.005  0.00  0.00    +0.000 A 
ATOM     21  C   UNL     1       1.885   3.876  17.612  0.00  0.00    +0.000 A 
ATOM     22  O   UNL     1       0.823   4.308  17.179  0.00  0.00    +0.000 OA
ATOM     23  N   UNL     1       3.007   3.780  16.829  0.00  0.00    +0.000 N 
ATOM     24  H   UNL     1       2.903   4.176  15.909  0.00  0.00    +0.000 HD
ENDBRANCH  12  13
ENDBRANCH   3  12
BRANCH   3  25
ATOM     25  C   UNL     1       5.626   5.566  16.783  0.00  0.00    +0.000 C 
BRANCH  25  26
ATOM     26  C   UNL     1       6.970   6.186  17.209  0.00  0.00    +0.000 C 
ATOM     27  C   UNL     1       7.313   6.102  18.685  0.00  0.00    +0.000 C 
ATOM     28  C   UNL     1       8.366   7.176  18.813  0.00  0.00    +0.000 C 
ATOM     29  C   UNL     1       7.853   8.240  17.866  0.00  0.00    +0.000 C 
ATOM     30  O   UNL     1       7.083   7.577  16.849  0.00  0.00    +0.000 OA
ENDBRANCH  25  26
ENDBRANCH   3  25
TORSDOF 5
ENDMDL
MODEL 7
REMARK VINA RESULT:      -8.2      1.953      2.477
REMARK  Name = 
REMARK  5 active torsions:
REMARK  status: ('A' for Active; 'I' for Inactive)
REMARK    1  A    between atoms: C_2  and  C_3
REMARK    2  A    between atoms: N_11  and  C_12
REMARK    3  A    between atoms: N_11  and  C_24
REMARK    4  A    between atoms: C_12  and  C_13
REMARK    5  A    between atoms: C_24  and  C_25
REMARK                            x       y       z     vdW  Elec       q    Type
REMARK                         _______ _______ _______ _____ _____    ______ ____
ROOT
ATOM      1  O   UNL     1       2.671   3.404  16.525  0.00  0.00    +0.000 OA
ATOM      2  C   UNL     1       3.390   4.239  17.082  0.00  0.00    +0.000 C 
ATOM      3  N   UNL     1       2.888   4.945  18.185  0.00  0.00    +0.000 N 
ENDROOT
BRANCH   2   4
ATOM      4  C   UNL     1       4.808   4.349  16.549  0.00  0.00    +0.000 A 
ATOM      5  C   UNL     1       5.838   4.312  17.509  0.00  0.00    +0.000 A 
ATOM      6  C   UNL     1       7.173   4.518  17.152  0.00  0.00    +0.000 A 
ATOM      7  F   UNL     1       8.117   4.496  18.101  0.00  0.00    +0.000 F 
ATOM      8  C   UNL     1       7.540   4.766  15.843  0.00  0.00    +0.000 A 
ATOM      9  C   UNL     1       6.543   4.798  14.890  0.00  0.00    +0.000 A 
ATOM     10  F   UNL     1       6.852   5.063  13.614  0.00  0.00    +0.000 F 
ATOM     11  C   UNL     1       5.205   4.591  15.228  0.00  0.00    +0.000 A 
ENDBRANCH   2   4
BRANCH   3  12
ATOM     12  C   UNL     1       3.564   5.973  18.970  0.00  0.00    +0.000 C 
BRANCH  12  13
ATOM     13  C   UNL     1       2.589   7.105  19.323  0.00  0.00    +0.000 A 
ATOM     14  N   UNL     1       2.118   7.848  18.380  0.00  0.00    +0.000 NA
ATOM     15  C   UNL     1       1.186   8.846  18.729  0.00  0.00    +0.000 A 
ATOM     16  C   UNL     1       0.586   9.579  17.706  0.00  0.00    +0.000 A 
ATOM     17  C   UNL     1      -0.385  10.540  18.000  0.00  0.00    +0.000 A 
ATOM     18  C   UNL     1      -0.755  10.783  19.324  0.00  0.00    +0.000 A 
ATOM     19  C   UNL     1      -0.153  10.072  20.359  0.00  0.00    +0.000 A 
ATOM     20  C   UNL     1       0.809   9.107  20.051  0.00  0.00    +0.000 A 
ATOM     21  C   UNL     1       1.427   8.286  21.099  0.00  0.00    +0.000 A 
ATOM     22  O   UNL     1       1.203   8.455  22.292  0.00  0.00    +0.000 OA
ATOM     23  N   UNL     1       2.261   7.296  20.645  0.00  0.00    +0.000 N 
ATOM     24  H   UNL     1       2.595   6.677  21.366  0.00  0.00    +0.000 HD
ENDBRANCH  12  13
ENDBRANCH   3  12
BRANCH   3  25
ATOM     25  C   UNL     1       1.554   4.575  18.714  0.00  0.00    +0.000 C 
BRANCH  25  26
ATOM     26  C   UNL     1       1.519   3.446  19.760  0.00  0.00    +0.000 C 
ATOM     27  C   UNL     1       1.260   3.865  21.195  0.00  0.00    +0.000 C 
ATOM     28  C   UNL     1       1.766   2.665  21.958  0.00  0.00    +0.000 C 
ATOM     29  C   UNL     1       2.970   2.251  21.138  0.00  0.00    +0.000 C 
ATOM     30  O   UNL     1       2.732   2.666  19.782  0.00  0.00    +0.000 OA
ENDBRANCH  25  26
ENDBRANCH   3  25
TORSDOF 5
ENDMDL
MODEL 8
REMARK VINA RESULT:      -8.2      2.819      4.912
REMARK  Name = 
REMARK  5 active torsions:
REMARK  status: ('A' for Active; 'I' for Inactive)
REMARK    1  A    between atoms: C_2  and  C_3
REMARK    2  A    between atoms: N_11  and  C_12
REMARK    3  A    between atoms: N_11  and  C_24
REMARK    4  A    between atoms: C_12  and  C_13
REMARK    5  A    between atoms: C_24  and  C_25
REMARK                            x       y       z     vdW  Elec       q    Type
REMARK                         _______ _______ _______ _____ _____    ______ ____
ROOT
ATOM      1  O   UNL     1       5.288   5.139  19.373  0.00  0.00    +0.000 OA
ATOM      2  C   UNL     1       4.180   5.465  18.937  0.00  0.00    +0.000 C 
ATOM      3  N   UNL     1       4.088   6.530  18.029  0.00  0.00    +0.000 N 
ENDROOT
BRANCH   2   4
ATOM      4  C   UNL     1       3.015   4.595  19.380  0.00  0.00    +0.000 A 
ATOM      5  C   UNL     1       2.911   4.354  20.764  0.00  0.00    +0.000 A 
ATOM      6  C   UNL     1       1.952   3.478  21.278  0.00  0.00    +0.000 A 
ATOM      7  F   UNL     1       1.902   3.262  22.599  0.00  0.00    +0.000 F 
ATOM      8  C   UNL     1       1.066   2.812  20.454  0.00  0.00    +0.000 A 
ATOM      9  C   UNL     1       1.151   3.043  19.097  0.00  0.00    +0.000 A 
ATOM     10  F   UNL     1       0.330   2.396  18.260  0.00  0.00    +0.000 F 
ATOM     11  C   UNL     1       2.100   3.917  18.565  0.00  0.00    +0.000 A 
ENDBRANCH   2   4
BRANCH   3  12
ATOM     12  C   UNL     1       2.884   7.075  17.411  0.00  0.00    +0.000 C 
BRANCH  12  13
ATOM     13  C   UNL     1       2.224   8.105  18.340  0.00  0.00    +0.000 A 
ATOM     14  N   UNL     1       1.769   7.719  19.484  0.00  0.00    +0.000 NA
ATOM     15  C   UNL     1       1.215   8.696  20.336  0.00  0.00    +0.000 A 
ATOM     16  C   UNL     1       0.824   8.312  21.618  0.00  0.00    +0.000 A 
ATOM     17  C   UNL     1       0.321   9.255  22.517  0.00  0.00    +0.000 A 
ATOM     18  C   UNL     1       0.195  10.593  22.136  0.00  0.00    +0.000 A 
ATOM     19  C   UNL     1       0.565  10.990  20.853  0.00  0.00    +0.000 A 
ATOM     20  C   UNL     1       1.076  10.038  19.967  0.00  0.00    +0.000 A 
ATOM     21  C   UNL     1       1.540  10.417  18.627  0.00  0.00    +0.000 A 
ATOM     22  O   UNL     1       1.429  11.553  18.183  0.00  0.00    +0.000 OA
ATOM     23  N   UNL     1       2.129   9.407  17.910  0.00  0.00    +0.000 N 
ATOM     24  H   UNL     1       2.535   9.705  17.037  0.00  0.00    +0.000 HD
ENDBRANCH  12  13
ENDBRANCH   3  12
BRANCH   3  25
ATOM     25  C   UNL     1       5.341   7.146  17.535  0.00  0.00    +0.000 C 
BRANCH  25  26
ATOM     26  C   UNL     1       6.038   6.438  16.358  0.00  0.00    +0.000 C 
ATOM     27  C   UNL     1       5.199   5.444  15.577  0.00  0.00    +0.000 C 
ATOM     28  C   UNL     1       6.262   4.628  14.883  0.00  0.00    +0.000 C 
ATOM     29  C   UNL     1       7.347   4.556  15.937  0.00  0.00    +0.000 C 
ATOM     30  O   UNL     1       7.230   5.731  16.758  0.00  0.00    +0.000 OA
ENDBRANCH  25  26
ENDBRANCH   3  25
TORSDOF 5
ENDMDL
MODEL 9
REMARK VINA RESULT:      -8.1      2.812      4.980
REMARK  Name = 
REMARK  5 active torsions:
REMARK  status: ('A' for Active; 'I' for Inactive)
REMARK    1  A    between atoms: C_2  and  C_3
REMARK    2  A    between atoms: N_11  and  C_12
REMARK    3  A    between atoms: N_11  and  C_24
REMARK    4  A    between atoms: C_12  and  C_13
REMARK    5  A    between atoms: C_24  and  C_25
REMARK                            x       y       z     vdW  Elec       q    Type
REMARK                         _______ _______ _______ _____ _____    ______ ____
ROOT
ATOM      1  O   UNL     1       5.762   4.942  19.635  0.00  0.00    +0.000 OA
ATOM      2  C   UNL     1       4.633   5.120  19.168  0.00  0.00    +0.000 C 
ATOM      3  N   UNL     1       4.429   6.161  18.251  0.00  0.00    +0.000 N 
ENDROOT
BRANCH   2   4
ATOM      4  C   UNL     1       3.580   4.107  19.585  0.00  0.00    +0.000 A 
ATOM      5  C   UNL     1       3.154   3.206  18.590  0.00  0.00    +0.000 A 
ATOM      6  C   UNL     1       2.111   2.307  18.822  0.00  0.00    +0.000 A 
ATOM      7  F   UNL     1       1.725   1.483  17.839  0.00  0.00    +0.000 F 
ATOM      8  C   UNL     1       1.454   2.260  20.036  0.00  0.00    +0.000 A 
ATOM      9  C   UNL     1       1.864   3.132  21.023  0.00  0.00    +0.000 A 
ATOM     10  F   UNL     1       1.235   3.140  22.205  0.00  0.00    +0.000 F 
ATOM     11  C   UNL     1       2.906   4.035  20.811  0.00  0.00    +0.000 A 
ENDBRANCH   2   4
BRANCH   3  12
ATOM     12  C   UNL     1       3.182   6.543  17.598  0.00  0.00    +0.000 C 
BRANCH  12  13
ATOM     13  C   UNL     1       2.472   7.643  18.401  0.00  0.00    +0.000 A 
ATOM     14  N   UNL     1       2.002   7.365  19.570  0.00  0.00    +0.000 NA
ATOM     15  C   UNL     1       1.401   8.408  20.303  0.00  0.00    +0.000 A 
ATOM     16  C   UNL     1       0.992   8.147  21.610  0.00  0.00    +0.000 A 
ATOM     17  C   UNL     1       0.442   9.163  22.396  0.00  0.00    +0.000 A 
ATOM     18  C   UNL     1       0.286  10.449  21.874  0.00  0.00    +0.000 A 
ATOM     19  C   UNL     1       0.674  10.722  20.564  0.00  0.00    +0.000 A 
ATOM     20  C   UNL     1       1.231   9.699  19.793  0.00  0.00    +0.000 A 
ATOM     21  C   UNL     1       1.714   9.950  18.430  0.00  0.00    +0.000 A 
ATOM     22  O   UNL     1       1.580  11.030  17.867  0.00  0.00    +0.000 OA
ATOM     23  N   UNL     1       2.349   8.890  17.834  0.00  0.00    +0.000 N 
ATOM     24  H   UNL     1       2.766   9.107  16.943  0.00  0.00    +0.000 HD
ENDBRANCH  12  13
ENDBRANCH   3  12
BRANCH   3  25
ATOM     25  C   UNL     1       5.605   6.933  17.786  0.00  0.00    +0.000 C 
BRANCH  25  26
ATOM     26  C   UNL     1       6.320   6.406  16.528  0.00  0.00    +0.000 C 
ATOM     27  C   UNL     1       5.435   5.807  15.451  0.00  0.00    +0.000 C 
ATOM     28  C   UNL     1       6.429   4.992  14.660  0.00  0.00    +0.000 C 
ATOM     29  C   UNL     1       7.344   4.464  15.746  0.00  0.00    +0.000 C 
ATOM     30  O   UNL     1       7.318   5.409  16.829  0.00  0.00    +0.000 OA
ENDBRANCH  25  26
ENDBRANCH   3  25
TORSDOF 5
ENDMDL
