MODEL 1
REMARK VINA RESULT:      -9.2      0.000      0.000
REMARK  Name = 
REMARK  2 active torsions:
REMARK  status: ('A' for Active; 'I' for Inactive)
REMARK    1  A    between atoms: C_2  and  C_15
REMARK    2  A    between atoms: N_3  and  C_4
REMARK                            x       y       z     vdW  Elec       q    Type
REMARK                         _______ _______ _______ _____ _____    ______ ____
ROOT
ATOM      1  C   UNL     1       1.142   9.575  19.350  0.00  0.00    +0.000 A 
ATOM      2  C   UNL     1       1.052  10.771  18.600  0.00  0.00    +0.000 A 
ATOM      3  C   UNL     1       0.060  11.704  18.823  0.00  0.00    +0.000 A 
ATOM      4  C   UNL     1      -0.760  11.535  19.914  0.00  0.00    +0.000 A 
ATOM      5  C   UNL     1      -2.095  12.098  19.908  0.00  0.00    +0.000 A 
ATOM      6  O   UNL     1      -2.670  12.269  18.831  0.00  0.00    +0.000 OA
ATOM      7  N   UNL     1      -2.630  12.353  21.140  0.00  0.00    +0.000 N 
ATOM      8  C   UNL     1      -1.917  12.046  22.280  0.00  0.00    +0.000 A 
ATOM      9  N   UNL     1      -0.967  11.118  22.261  0.00  0.00    +0.000 NA
ATOM     10  C   UNL     1      -0.463  10.679  20.957  0.00  0.00    +0.000 A 
ATOM     11  C   UNL     1       0.430   9.582  20.609  0.00  0.00    +0.000 A 
ATOM     12  C   UNL     1      -2.347  12.866  23.562  0.00  0.00    +0.000 C 
ATOM     13  C   UNL     1      -2.679  14.410  23.507  0.00  0.00    +0.000 C 
ATOM     14  C   UNL     1      -3.822  14.949  22.627  0.00  0.00    +0.000 C 
ATOM     15  C   UNL     1      -3.708  14.504  21.188  0.00  0.00    +0.000 C 
ATOM     16  C   UNL     1      -3.925  13.005  21.150  0.00  0.00    +0.000 C 
ENDROOT
BRANCH   1  18
ATOM     17  O   UNL     1       2.109   8.852  17.324  0.00  0.00    +0.000 OA
ATOM     18  C   UNL     1       1.941   8.528  18.506  0.00  0.00    +0.000 C 
ATOM     19  N   UNL     1       2.442   7.301  18.945  0.00  0.00    +0.000 N 
ATOM     20  H   UNL     1       2.239   6.985  19.885  0.00  0.00    +0.000 HD
BRANCH  19  21
ATOM     21  C   UNL     1       3.259   6.372  18.125  0.00  0.00    +0.000 A 
ATOM     22  C   UNL     1       4.422   6.726  17.390  0.00  0.00    +0.000 A 
ATOM     23  C   UNL     1       5.179   5.781  16.640  0.00  0.00    +0.000 A 
ATOM     24  C   UNL     1       4.772   4.455  16.568  0.00  0.00    +0.000 A 
ATOM     25  C   UNL     1       3.645   4.067  17.287  0.00  0.00    +0.000 A 
ATOM     26  C   UNL     1       2.908   5.006  18.054  0.00  0.00    +0.000 A 
ATOM     27 CL   UNL     1       1.537   4.407  18.926  0.00  0.00    +0.000 Cl
ATOM     28  O   UNL     1       5.421   3.492  15.835  0.00  0.00    +0.000 OA
ATOM     29  C   UNL     1       6.362   4.050  14.905  0.00  0.00    +0.000 C 
ATOM     30  C   UNL     1       7.163   5.158  15.567  0.00  0.00    +0.000 C 
ATOM     31  O   UNL     1       6.308   6.234  15.992  0.00  0.00    +0.000 OA
ENDBRANCH  19  21
ENDBRANCH   1  18
TORSDOF 2
ENDMDL
MODEL 2
REMARK VINA RESULT:      -9.1      3.532     10.121
REMARK  Name = 
REMARK  2 active torsions:
REMARK  status: ('A' for Active; 'I' for Inactive)
REMARK    1  A    between atoms: C_2  and  C_15
REMARK    2  A    between atoms: N_3  and  C_4
REMARK                            x       y       z     vdW  Elec       q    Type
REMARK                         _______ _______ _______ _____ _____    ______ ____
ROOT
ATOM      1  C   UNL     1       1.269   9.616  19.596  0.00  0.00    +0.000 A 
ATOM      2  C   UNL     1       1.430   9.285  18.230  0.00  0.00    +0.000 A 
ATOM      3  C   UNL     1       2.046   8.120  17.825  0.00  0.00    +0.000 A 
ATOM      4  C   UNL     1       2.363   7.184  18.781  0.00  0.00    +0.000 A 
ATOM      5  C   UNL     1       3.451   6.254  18.549  0.00  0.00    +0.000 A 
ATOM      6  O   UNL     1       4.373   6.582  17.800  0.00  0.00    +0.000 OA
ATOM      7  N   UNL     1       3.376   5.078  19.243  0.00  0.00    +0.000 N 
ATOM      8  C   UNL     1       2.330   4.856  20.115  0.00  0.00    +0.000 A 
ATOM      9  N   UNL     1       1.667   5.871  20.657  0.00  0.00    +0.000 NA
ATOM     10  C   UNL     1       1.833   7.198  20.057  0.00  0.00    +0.000 A 
ATOM     11  C   UNL     1       1.387   8.506  20.516  0.00  0.00    +0.000 A 
ATOM     12  C   UNL     1       2.034   3.331  20.407  0.00  0.00    +0.000 C 
ATOM     13  C   UNL     1       2.060   2.232  19.272  0.00  0.00    +0.000 C 
ATOM     14  C   UNL     1       3.338   1.955  18.459  0.00  0.00    +0.000 C 
ATOM     15  C   UNL     1       3.910   3.204  17.831  0.00  0.00    +0.000 C 
ATOM     16  C   UNL     1       4.403   4.099  18.951  0.00  0.00    +0.000 C 
ENDROOT
BRANCH   1  18
ATOM     17  O   UNL     1       1.196  11.606  20.860  0.00  0.00    +0.000 OA
ATOM     18  C   UNL     1       1.099  11.167  19.707  0.00  0.00    +0.000 C 
ATOM     19  N   UNL     1       0.834  12.060  18.667  0.00  0.00    +0.000 N 
ATOM     20  H   UNL     1       0.668  11.706  17.733  0.00  0.00    +0.000 HD
BRANCH  19  21
ATOM     21  C   UNL     1       0.754  13.535  18.811  0.00  0.00    +0.000 A 
ATOM     22  C   UNL     1      -0.409  14.267  19.170  0.00  0.00    +0.000 A 
ATOM     23  C   UNL     1      -0.416  15.683  19.316  0.00  0.00    +0.000 A 
ATOM     24  C   UNL     1       0.735  16.420  19.067  0.00  0.00    +0.000 A 
ATOM     25  C   UNL     1       1.899  15.737  18.726  0.00  0.00    +0.000 A 
ATOM     26  C   UNL     1       1.908  14.323  18.607  0.00  0.00    +0.000 A 
ATOM     27 CL   UNL     1       3.418  13.578  18.200  0.00  0.00    +0.000 Cl
ATOM     28  O   UNL     1       0.801  17.790  19.144  0.00  0.00    +0.000 OA
ATOM     29  C   UNL     1      -0.498  18.401  19.194  0.00  0.00    +0.000 C 
ATOM     30  C   UNL     1      -1.404  17.637  20.143  0.00  0.00    +0.000 C 
ATOM     31  O   UNL     1      -1.597  16.282  19.700  0.00  0.00    +0.000 OA
ENDBRANCH  19  21
ENDBRANCH   1  18
TORSDOF 2
ENDMDL
MODEL 3
REMARK VINA RESULT:      -9.0      3.596     10.028
REMARK  Name = 
REMARK  2 active torsions:
REMARK  status: ('A' for Active; 'I' for Inactive)
REMARK    1  A    between atoms: C_2  and  C_15
REMARK    2  A    between atoms: N_3  and  C_4
REMARK                            x       y       z     vdW  Elec       q    Type
REMARK                         _______ _______ _______ _____ _____    ______ ____
ROOT
ATOM      1  C   UNL     1       1.186   9.461  19.748  0.00  0.00    +0.000 A 
ATOM      2  C   UNL     1       1.350   9.204  18.367  0.00  0.00    +0.000 A 
ATOM      3  C   UNL     1       2.018   8.091  17.902  0.00  0.00    +0.000 A 
ATOM      4  C   UNL     1       2.388   7.127  18.810  0.00  0.00    +0.000 A 
ATOM      5  C   UNL     1       3.517   6.263  18.526  0.00  0.00    +0.000 A 
ATOM      6  O   UNL     1       4.415   6.671  17.787  0.00  0.00    +0.000 OA
ATOM      7  N   UNL     1       3.505   5.053  19.163  0.00  0.00    +0.000 N 
ATOM      8  C   UNL     1       2.480   4.739  20.030  0.00  0.00    +0.000 A 
ATOM      9  N   UNL     1       1.773   5.694  20.625  0.00  0.00    +0.000 NA
ATOM     10  C   UNL     1       1.870   7.054  20.089  0.00  0.00    +0.000 A 
ATOM     11  C   UNL     1       1.366   8.316  20.614  0.00  0.00    +0.000 A 
ATOM     12  C   UNL     1       2.260   3.189  20.250  0.00  0.00    +0.000 C 
ATOM     13  C   UNL     1       2.328   2.148  19.064  0.00  0.00    +0.000 C 
ATOM     14  C   UNL     1       3.610   1.973  18.229  0.00  0.00    +0.000 C 
ATOM     15  C   UNL     1       4.116   3.277  17.658  0.00  0.00    +0.000 C 
ATOM     16  C   UNL     1       4.576   4.140  18.816  0.00  0.00    +0.000 C 
ENDROOT
BRANCH   1  18
ATOM     17  O   UNL     1       1.341  11.443  21.018  0.00  0.00    +0.000 OA
ATOM     18  C   UNL     1       0.943  10.995  19.936  0.00  0.00    +0.000 C 
ATOM     19  N   UNL     1       0.319  11.863  19.037  0.00  0.00    +0.000 N 
ATOM     20  H   UNL     1      -0.087  11.495  18.186  0.00  0.00    +0.000 HD
BRANCH  19  21
ATOM     21  C   UNL     1       0.177  13.328  19.228  0.00  0.00    +0.000 A 
ATOM     22  C   UNL     1       1.089  14.313  18.767  0.00  0.00    +0.000 A 
ATOM     23  C   UNL     1       0.884  15.708  18.960  0.00  0.00    +0.000 A 
ATOM     24  C   UNL     1      -0.227  16.163  19.661  0.00  0.00    +0.000 A 
ATOM     25  C   UNL     1      -1.152  15.228  20.116  0.00  0.00    +0.000 A 
ATOM     26  C   UNL     1      -0.956  13.840  19.898  0.00  0.00    +0.000 A 
ATOM     27 CL   UNL     1      -2.183  12.770  20.490  0.00  0.00    +0.000 Cl
ATOM     28  O   UNL     1      -0.477  17.487  19.927  0.00  0.00    +0.000 OA
ATOM     29  C   UNL     1       0.668  18.321  19.694  0.00  0.00    +0.000 C 
ATOM     30  C   UNL     1       1.348  17.931  18.392  0.00  0.00    +0.000 C 
ATOM     31  O   UNL     1       1.823  16.574  18.441  0.00  0.00    +0.000 OA
ENDBRANCH  19  21
ENDBRANCH   1  18
TORSDOF 2
ENDMDL
MODEL 4
REMARK VINA RESULT:      -8.9      3.938      9.919
REMARK  Name = 
REMARK  2 active torsions:
REMARK  status: ('A' for Active; 'I' for Inactive)
REMARK    1  A    between atoms: C_2  and  C_15
REMARK    2  A    between atoms: N_3  and  C_4
REMARK                            x       y       z     vdW  Elec       q    Type
REMARK                         _______ _______ _______ _____ _____    ______ ____
ROOT
ATOM      1  C   UNL     1       1.407   9.319  19.736  0.00  0.00    +0.000 A 
ATOM      2  C   UNL     1       1.635   9.038  18.369  0.00  0.00    +0.000 A 
ATOM      3  C   UNL     1       2.250   7.877  17.950  0.00  0.00    +0.000 A 
ATOM      4  C   UNL     1       2.497   6.898  18.884  0.00  0.00    +0.000 A 
ATOM      5  C   UNL     1       3.577   5.955  18.672  0.00  0.00    +0.000 A 
ATOM      6  O   UNL     1       4.544   6.293  17.987  0.00  0.00    +0.000 OA
ATOM      7  N   UNL     1       3.443   4.755  19.313  0.00  0.00    +0.000 N 
ATOM      8  C   UNL     1       2.348   4.521  20.119  0.00  0.00    +0.000 A 
ATOM      9  N   UNL     1       1.676   5.528  20.666  0.00  0.00    +0.000 NA
ATOM     10  C   UNL     1       1.900   6.873  20.129  0.00  0.00    +0.000 A 
ATOM     11  C   UNL     1       1.455   8.172  20.617  0.00  0.00    +0.000 A 
ATOM     12  C   UNL     1       2.008   2.992  20.334  0.00  0.00    +0.000 C 
ATOM     13  C   UNL     1       2.073   1.938  19.158  0.00  0.00    +0.000 C 
ATOM     14  C   UNL     1       3.387   1.666  18.403  0.00  0.00    +0.000 C 
ATOM     15  C   UNL     1       4.017   2.927  17.857  0.00  0.00    +0.000 C 
ATOM     16  C   UNL     1       4.466   3.766  19.036  0.00  0.00    +0.000 C 
ENDROOT
BRANCH   1  18
ATOM     17  O   UNL     1       0.650  11.214  20.920  0.00  0.00    +0.000 OA
ATOM     18  C   UNL     1       1.261  10.868  19.901  0.00  0.00    +0.000 C 
ATOM     19  N   UNL     1       1.719  11.853  19.024  0.00  0.00    +0.000 N 
ATOM     20  H   UNL     1       2.145  11.583  18.146  0.00  0.00    +0.000 HD
BRANCH  19  21
ATOM     21  C   UNL     1       1.621  13.315  19.259  0.00  0.00    +0.000 A 
ATOM     22  C   UNL     1       2.612  14.119  19.883  0.00  0.00    +0.000 A 
ATOM     23  C   UNL     1       2.469  15.525  20.058  0.00  0.00    +0.000 A 
ATOM     24  C   UNL     1       1.307  16.168  19.651  0.00  0.00    +0.000 A 
ATOM     25  C   UNL     1       0.318  15.416  19.022  0.00  0.00    +0.000 A 
ATOM     26  C   UNL     1       0.476  14.019  18.826  0.00  0.00    +0.000 A 
ATOM     27 CL   UNL     1      -0.808  13.189  18.013  0.00  0.00    +0.000 Cl
ATOM     28  O   UNL     1       1.072  17.510  19.821  0.00  0.00    +0.000 OA
ATOM     29  C   UNL     1       1.996  18.117  20.737  0.00  0.00    +0.000 C 
ATOM     30  C   UNL     1       3.408  17.630  20.464  0.00  0.00    +0.000 C 
ATOM     31  O   UNL     1       3.511  16.206  20.650  0.00  0.00    +0.000 OA
ENDBRANCH  19  21
ENDBRANCH   1  18
TORSDOF 2
ENDMDL
MODEL 5
REMARK VINA RESULT:      -8.6      3.672     10.080
REMARK  Name = 
REMARK  2 active torsions:
REMARK  status: ('A' for Active; 'I' for Inactive)
REMARK    1  A    between atoms: C_2  and  C_15
REMARK    2  A    between atoms: N_3  and  C_4
REMARK                            x       y       z     vdW  Elec       q    Type
REMARK                         _______ _______ _______ _____ _____    ______ ____
ROOT
ATOM      1  C   UNL     1       1.186   9.544  19.587  0.00  0.00    +0.000 A 
ATOM      2  C   UNL     1       1.365   9.232  18.219  0.00  0.00    +0.000 A 
ATOM      3  C   UNL     1       2.033   8.098  17.806  0.00  0.00    +0.000 A 
ATOM      4  C   UNL     1       2.388   7.169  18.756  0.00  0.00    +0.000 A 
ATOM      5  C   UNL     1       3.516   6.290  18.519  0.00  0.00    +0.000 A 
ATOM      6  O   UNL     1       4.424   6.665  17.776  0.00  0.00    +0.000 OA
ATOM      7  N   UNL     1       3.490   5.106  19.203  0.00  0.00    +0.000 N 
ATOM      8  C   UNL     1       2.453   4.831  20.070  0.00  0.00    +0.000 A 
ATOM      9  N   UNL     1       1.745   5.811  20.619  0.00  0.00    +0.000 NA
ATOM     10  C   UNL     1       1.855   7.149  20.030  0.00  0.00    +0.000 A 
ATOM     11  C   UNL     1       1.351   8.433  20.499  0.00  0.00    +0.000 A 
ATOM     12  C   UNL     1       2.224   3.292  20.349  0.00  0.00    +0.000 C 
ATOM     13  C   UNL     1       2.300   2.205  19.205  0.00  0.00    +0.000 C 
ATOM     14  C   UNL     1       3.591   1.991  18.393  0.00  0.00    +0.000 C 
ATOM     15  C   UNL     1       4.111   3.269  17.777  0.00  0.00    +0.000 C 
ATOM     16  C   UNL     1       4.561   4.175  18.906  0.00  0.00    +0.000 C 
ENDROOT
BRANCH   1  18
ATOM     17  O   UNL     1       0.247  11.563  18.810  0.00  0.00    +0.000 OA
ATOM     18  C   UNL     1       0.948  11.085  19.711  0.00  0.00    +0.000 C 
ATOM     19  N   UNL     1       1.455  11.938  20.693  0.00  0.00    +0.000 N 
ATOM     20  H   UNL     1       2.098  11.576  21.386  0.00  0.00    +0.000 HD
BRANCH  19  21
ATOM     21  C   UNL     1       1.141  13.383  20.811  0.00  0.00    +0.000 A 
ATOM     22  C   UNL     1       1.784  14.428  20.095  0.00  0.00    +0.000 A 
ATOM     23  C   UNL     1       1.420  15.798  20.233  0.00  0.00    +0.000 A 
ATOM     24  C   UNL     1       0.424  16.172  21.127  0.00  0.00    +0.000 A 
ATOM     25  C   UNL     1      -0.240  15.175  21.836  0.00  0.00    +0.000 A 
ATOM     26  C   UNL     1       0.109  13.809  21.676  0.00  0.00    +0.000 A 
ATOM     27 CL   UNL     1      -0.798  12.652  22.592  0.00  0.00    +0.000 Cl
ATOM     28  O   UNL     1       0.043  17.472  21.351  0.00  0.00    +0.000 OA
ATOM     29  C   UNL     1       0.980  18.419  20.816  0.00  0.00    +0.000 C 
ATOM     30  C   UNL     1       1.425  17.995  19.427  0.00  0.00    +0.000 C 
ATOM     31  O   UNL     1       2.094  16.721  19.463  0.00  0.00    +0.000 OA
ENDBRANCH  19  21
ENDBRANCH   1  18
TORSDOF 2
ENDMDL
MODEL 6
REMARK VINA RESULT:      -8.6      1.335      1.868
REMARK  Name = 
REMARK  2 active torsions:
REMARK  status: ('A' for Active; 'I' for Inactive)
REMARK    1  A    between atoms: C_2  and  C_15
REMARK    2  A    between atoms: N_3  and  C_4
REMARK                            x       y       z     vdW  Elec       q    Type
REMARK                         _______ _______ _______ _____ _____    ______ ____
ROOT
ATOM      1  C   UNL     1       0.740   9.457  19.018  0.00  0.00    +0.000 A 
ATOM      2  C   UNL     1       1.112   9.480  20.382  0.00  0.00    +0.000 A 
ATOM      3  C   UNL     1       0.803  10.539  21.209  0.00  0.00    +0.000 A 
ATOM      4  C   UNL     1      -0.031  11.521  20.727  0.00  0.00    +0.000 A 
ATOM      5  C   UNL     1       0.044  12.862  21.270  0.00  0.00    +0.000 A 
ATOM      6  O   UNL     1       1.107  13.257  21.753  0.00  0.00    +0.000 OA
ATOM      7  N   UNL     1      -1.096  13.608  21.150  0.00  0.00    +0.000 N 
ATOM      8  C   UNL     1      -2.203  13.081  20.518  0.00  0.00    +0.000 A 
ATOM      9  N   UNL     1      -2.080  12.097  19.634  0.00  0.00    +0.000 NA
ATOM     10  C   UNL     1      -0.814  11.361  19.600  0.00  0.00    +0.000 A 
ATOM     11  C   UNL     1      -0.322  10.369  18.653  0.00  0.00    +0.000 A 
ATOM     12  C   UNL     1      -3.572  13.760  20.923  0.00  0.00    +0.000 C 
ATOM     13  C   UNL     1      -3.913  14.153  22.414  0.00  0.00    +0.000 C 
ATOM     14  C   UNL     1      -3.044  15.159  23.193  0.00  0.00    +0.000 C 
ATOM     15  C   UNL     1      -1.580  14.784  23.193  0.00  0.00    +0.000 C 
ATOM     16  C   UNL     1      -1.070  14.917  21.772  0.00  0.00    +0.000 C 
ENDROOT
BRANCH   1  18
ATOM     17  O   UNL     1       2.088   8.892  17.166  0.00  0.00    +0.000 OA
ATOM     18  C   UNL     1       1.699   8.477  18.265  0.00  0.00    +0.000 C 
ATOM     19  N   UNL     1       2.119   7.216  18.695  0.00  0.00    +0.000 N 
ATOM     20  H   UNL     1       1.743   6.828  19.551  0.00  0.00    +0.000 HD
BRANCH  19  21
ATOM     21  C   UNL     1       3.090   6.352  17.979  0.00  0.00    +0.000 A 
ATOM     22  C   UNL     1       4.310   6.788  17.396  0.00  0.00    +0.000 A 
ATOM     23  C   UNL     1       5.213   5.903  16.741  0.00  0.00    +0.000 A 
ATOM     24  C   UNL     1       4.904   4.554  16.612  0.00  0.00    +0.000 A 
ATOM     25  C   UNL     1       3.724   4.087  17.183  0.00  0.00    +0.000 A 
ATOM     26  C   UNL     1       2.839   4.967  17.857  0.00  0.00    +0.000 A 
ATOM     27 CL   UNL     1       1.411   4.272  18.547  0.00  0.00    +0.000 Cl
ATOM     28  O   UNL     1       5.699   3.644  15.960  0.00  0.00    +0.000 OA
ATOM     29  C   UNL     1       6.710   4.273  15.158  0.00  0.00    +0.000 C 
ATOM     30  C   UNL     1       7.351   5.420  15.920  0.00  0.00    +0.000 C 
ATOM     31  O   UNL     1       6.382   6.434  16.241  0.00  0.00    +0.000 OA
ENDBRANCH  19  21
ENDBRANCH   1  18
TORSDOF 2
ENDMDL
MODEL 7
REMARK VINA RESULT:      -8.5      1.533      2.075
REMARK  Name = 
REMARK  2 active torsions:
REMARK  status: ('A' for Active; 'I' for Inactive)
REMARK    1  A    between atoms: C_2  and  C_15
REMARK    2  A    between atoms: N_3  and  C_4
REMARK                            x       y       z     vdW  Elec       q    Type
REMARK                         _______ _______ _______ _____ _____    ______ ____
ROOT
ATOM      1  C   UNL     1       0.972  10.163  18.950  0.00  0.00    +0.000 A 
ATOM      2  C   UNL     1      -0.086   9.570  19.678  0.00  0.00    +0.000 A 
ATOM      3  C   UNL     1      -0.720  10.223  20.714  0.00  0.00    +0.000 A 
ATOM      4  C   UNL     1      -0.419  11.547  20.931  0.00  0.00    +0.000 A 
ATOM      5  C   UNL     1      -0.586  12.118  22.252  0.00  0.00    +0.000 A 
ATOM      6  O   UNL     1      -0.501  11.385  23.239  0.00  0.00    +0.000 OA
ATOM      7  N   UNL     1      -0.781  13.471  22.286  0.00  0.00    +0.000 N 
ATOM      8  C   UNL     1      -0.780  14.199  21.115  0.00  0.00    +0.000 A 
ATOM      9  N   UNL     1      -0.154  13.750  20.033  0.00  0.00    +0.000 NA
ATOM     10  C   UNL     1       0.231  12.336  20.002  0.00  0.00    +0.000 A 
ATOM     11  C   UNL     1       1.061  11.603  19.055  0.00  0.00    +0.000 A 
ATOM     12  C   UNL     1      -1.549  15.578  21.200  0.00  0.00    +0.000 C 
ATOM     13  C   UNL     1      -2.929  15.731  21.953  0.00  0.00    +0.000 C 
ATOM     14  C   UNL     1      -3.055  15.428  23.458  0.00  0.00    +0.000 C 
ATOM     15  C   UNL     1      -2.543  14.053  23.819  0.00  0.00    +0.000 C 
ATOM     16  C   UNL     1      -1.045  14.044  23.591  0.00  0.00    +0.000 C 
ENDROOT
BRANCH   1  18
ATOM     17  O   UNL     1       2.184   9.256  17.141  0.00  0.00    +0.000 OA
ATOM     18  C   UNL     1       1.820   9.020  18.300  0.00  0.00    +0.000 C 
ATOM     19  N   UNL     1       2.169   7.799  18.880  0.00  0.00    +0.000 N 
ATOM     20  H   UNL     1       1.807   7.557  19.794  0.00  0.00    +0.000 HD
BRANCH  19  21
ATOM     21  C   UNL     1       3.038   6.774  18.249  0.00  0.00    +0.000 A 
ATOM     22  C   UNL     1       4.126   7.040  17.376  0.00  0.00    +0.000 A 
ATOM     23  C   UNL     1       4.941   6.012  16.822  0.00  0.00    +0.000 A 
ATOM     24  C   UNL     1       4.665   4.677  17.091  0.00  0.00    +0.000 A 
ATOM     25  C   UNL     1       3.615   4.377  17.954  0.00  0.00    +0.000 A 
ATOM     26  C   UNL     1       2.823   5.406  18.525  0.00  0.00    +0.000 A 
ATOM     27 CL   UNL     1       1.557   4.918  19.602  0.00  0.00    +0.000 Cl
ATOM     28  O   UNL     1       5.374   3.626  16.563  0.00  0.00    +0.000 OA
ATOM     29  C   UNL     1       6.214   4.023  15.468  0.00  0.00    +0.000 C 
ATOM     30  C   UNL     1       6.928   5.323  15.796  0.00  0.00    +0.000 C 
ATOM     31  O   UNL     1       5.989   6.391  16.011  0.00  0.00    +0.000 OA
ENDBRANCH  19  21
ENDBRANCH   1  18
TORSDOF 2
ENDMDL
MODEL 8
REMARK VINA RESULT:      -8.5      3.293     10.452
REMARK  Name = 
REMARK  2 active torsions:
REMARK  status: ('A' for Active; 'I' for Inactive)
REMARK    1  A    between atoms: C_2  and  C_15
REMARK    2  A    between atoms: N_3  and  C_4
REMARK                            x       y       z     vdW  Elec       q    Type
REMARK                         _______ _______ _______ _____ _____    ______ ____
ROOT
ATOM      1  C   UNL     1       0.330   9.769  18.755  0.00  0.00    +0.000 A 
ATOM      2  C   UNL     1       0.742   9.344  20.039  0.00  0.00    +0.000 A 
ATOM      3  C   UNL     1       1.619   8.295  20.219  0.00  0.00    +0.000 A 
ATOM      4  C   UNL     1       2.231   7.760  19.110  0.00  0.00    +0.000 A 
ATOM      5  C   UNL     1       2.689   6.386  19.130  0.00  0.00    +0.000 A 
ATOM      6  O   UNL     1       2.127   5.576  19.870  0.00  0.00    +0.000 OA
ATOM      7  N   UNL     1       3.705   6.093  18.263  0.00  0.00    +0.000 N 
ATOM      8  C   UNL     1       4.203   7.070  17.426  0.00  0.00    +0.000 A 
ATOM      9  N   UNL     1       3.464   8.121  17.090  0.00  0.00    +0.000 NA
ATOM     10  C   UNL     1       2.263   8.397  17.884  0.00  0.00    +0.000 A 
ATOM     11  C   UNL     1       1.182   9.348  17.664  0.00  0.00    +0.000 A 
ATOM     12  C   UNL     1       5.674   6.805  16.912  0.00  0.00    +0.000 C 
ATOM     13  C   UNL     1       6.811   6.243  17.854  0.00  0.00    +0.000 C 
ATOM     14  C   UNL     1       6.672   4.871  18.541  0.00  0.00    +0.000 C 
ATOM     15  C   UNL     1       5.388   4.741  19.327  0.00  0.00    +0.000 C 
ATOM     16  C   UNL     1       4.240   4.748  18.339  0.00  0.00    +0.000 C 
ENDROOT
BRANCH   1  18
ATOM     17  O   UNL     1      -1.108  11.248  19.898  0.00  0.00    +0.000 OA
ATOM     18  C   UNL     1      -1.035  10.518  18.901  0.00  0.00    +0.000 C 
ATOM     19  N   UNL     1      -2.142  10.422  18.056  0.00  0.00    +0.000 N 
ATOM     20  H   UNL     1      -2.128   9.764  17.286  0.00  0.00    +0.000 HD
BRANCH  19  21
ATOM     21  C   UNL     1      -3.392  11.209  18.196  0.00  0.00    +0.000 A 
ATOM     22  C   UNL     1      -3.828  11.862  19.379  0.00  0.00    +0.000 A 
ATOM     23  C   UNL     1      -5.028  12.626  19.444  0.00  0.00    +0.000 A 
ATOM     24  C   UNL     1      -5.856  12.727  18.333  0.00  0.00    +0.000 A 
ATOM     25  C   UNL     1      -5.455  12.112  17.149  0.00  0.00    +0.000 A 
ATOM     26  C   UNL     1      -4.245  11.374  17.082  0.00  0.00    +0.000 A 
ATOM     27 CL   UNL     1      -3.836  10.671  15.553  0.00  0.00    +0.000 Cl
ATOM     28  O   UNL     1      -7.049  13.407  18.324  0.00  0.00    +0.000 OA
ATOM     29  C   UNL     1      -7.508  13.729  19.645  0.00  0.00    +0.000 C 
ATOM     30  C   UNL     1      -6.357  14.242  20.493  0.00  0.00    +0.000 C 
ATOM     31  O   UNL     1      -5.334  13.241  20.639  0.00  0.00    +0.000 OA
ENDBRANCH  19  21
ENDBRANCH   1  18
TORSDOF 2
ENDMDL
MODEL 9
REMARK VINA RESULT:      -8.4      3.584     10.215
REMARK  Name = 
REMARK  2 active torsions:
REMARK  status: ('A' for Active; 'I' for Inactive)
REMARK    1  A    between atoms: C_2  and  C_15
REMARK    2  A    between atoms: N_3  and  C_4
REMARK                            x       y       z     vdW  Elec       q    Type
REMARK                         _______ _______ _______ _____ _____    ______ ____
ROOT
ATOM      1  C   UNL     1       1.194   9.594  19.560  0.00  0.00    +0.000 A 
ATOM      2  C   UNL     1       1.366   9.242  18.201  0.00  0.00    +0.000 A 
ATOM      3  C   UNL     1       2.019   8.089  17.819  0.00  0.00    +0.000 A 
ATOM      4  C   UNL     1       2.364   7.182  18.794  0.00  0.00    +0.000 A 
ATOM      5  C   UNL     1       3.481   6.283  18.581  0.00  0.00    +0.000 A 
ATOM      6  O   UNL     1       4.392   6.625  17.825  0.00  0.00    +0.000 OA
ATOM      7  N   UNL     1       3.442   5.119  19.297  0.00  0.00    +0.000 N 
ATOM      8  C   UNL     1       2.403   4.882  20.174  0.00  0.00    +0.000 A 
ATOM      9  N   UNL     1       1.708   5.886  20.695  0.00  0.00    +0.000 NA
ATOM     10  C   UNL     1       1.833   7.205  20.069  0.00  0.00    +0.000 A 
ATOM     11  C   UNL     1       1.346   8.507  20.503  0.00  0.00    +0.000 A 
ATOM     12  C   UNL     1       2.155   3.354  20.495  0.00  0.00    +0.000 C 
ATOM     13  C   UNL     1       2.216   2.234  19.382  0.00  0.00    +0.000 C 
ATOM     14  C   UNL     1       3.503   1.981  18.575  0.00  0.00    +0.000 C 
ATOM     15  C   UNL     1       4.036   3.236  17.922  0.00  0.00    +0.000 C 
ATOM     16  C   UNL     1       4.500   4.167  19.024  0.00  0.00    +0.000 C 
ENDROOT
BRANCH   1  18
ATOM     17  O   UNL     1       0.031  11.556  18.957  0.00  0.00    +0.000 OA
ATOM     18  C   UNL     1       0.975  11.141  19.641  0.00  0.00    +0.000 C 
ATOM     19  N   UNL     1       1.735  12.061  20.367  0.00  0.00    +0.000 N 
ATOM     20  H   UNL     1       2.560  11.748  20.862  0.00  0.00    +0.000 HD
BRANCH  19  21
ATOM     21  C   UNL     1       1.443  13.513  20.471  0.00  0.00    +0.000 A 
ATOM     22  C   UNL     1       0.686  14.131  21.500  0.00  0.00    +0.000 A 
ATOM     23  C   UNL     1       0.461  15.536  21.558  0.00  0.00    +0.000 A 
ATOM     24  C   UNL     1       0.955  16.366  20.559  0.00  0.00    +0.000 A 
ATOM     25  C   UNL     1       1.716  15.799  19.541  0.00  0.00    +0.000 A 
ATOM     26  C   UNL     1       1.959  14.402  19.501  0.00  0.00    +0.000 A 
ATOM     27 CL   UNL     1       2.936  13.809  18.200  0.00  0.00    +0.000 Cl
ATOM     28  O   UNL     1       0.748  17.723  20.518  0.00  0.00    +0.000 OA
ATOM     29  C   UNL     1      -0.284  18.150  21.420  0.00  0.00    +0.000 C 
ATOM     30  C   UNL     1      -0.134  17.453  22.761  0.00  0.00    +0.000 C 
ATOM     31  O   UNL     1      -0.264  16.026  22.622  0.00  0.00    +0.000 OA
ENDBRANCH  19  21
ENDBRANCH   1  18
TORSDOF 2
ENDMDL
