MODEL 1
REMARK VINA RESULT:      -9.0      0.000      0.000
REMARK  Name = 
REMARK  6 active torsions:
REMARK  status: ('A' for Active; 'I' for Inactive)
REMARK    1  A    between atoms: C_1  and  C_2
REMARK    2  A    between atoms: C_4  and  C_5
REMARK    3  A    between atoms: C_5  and  N_6
REMARK    4  A    between atoms: C_7  and  C_9
REMARK    5  A    between atoms: C_11  and  C_12
REMARK    6  A    between atoms: C_21  and  C_22
REMARK                            x       y       z     vdW  Elec       q    Type
REMARK                         _______ _______ _______ _____ _____    ______ ____
ROOT
ATOM      1  N   UNL     1       5.021   5.823  17.760  0.00  0.00    +0.000 N 
ATOM      2  C   UNL     1       4.783   5.020  18.848  0.00  0.00    +0.000 C 
ATOM      3  O   UNL     1       5.573   4.255  19.371  0.00  0.00    +0.000 OA
ATOM      4  H   UNL     1       4.261   6.397  17.405  0.00  0.00    +0.000 HD
ENDROOT
BRANCH   2   5
ATOM      5  C   UNL     1       3.437   5.075  19.427  0.00  0.00    +0.000 A 
ATOM      6  C   UNL     1       2.970   6.251  20.011  0.00  0.00    +0.000 A 
ATOM      7  C   UNL     1       1.663   6.299  20.469  0.00  0.00    +0.000 A 
ATOM      8  N   UNL     1       0.812   5.248  20.479  0.00  0.00    +0.000 NA
ATOM      9  C   UNL     1       1.330   4.121  19.953  0.00  0.00    +0.000 A 
ATOM     10  O   UNL     1       0.641   2.952  19.850  0.00  0.00    +0.000 OA
ATOM     11  N   UNL     1       1.422   1.999  19.222  0.00  0.00    +0.000 NA
ATOM     12  C   UNL     1       2.591   2.599  18.953  0.00  0.00    +0.000 A 
ATOM     13  C   UNL     1       3.645   1.832  18.243  0.00  0.00    +0.000 C 
ATOM     14  C   UNL     1       2.592   3.951  19.405  0.00  0.00    +0.000 A 
BRANCH   7  15
ATOM     15  C   UNL     1       1.072   7.565  20.880  0.00  0.00    +0.000 A 
ATOM     16  C   UNL     1       0.078   7.923  21.767  0.00  0.00    +0.000 A 
ATOM     17  C   UNL     1      -0.127   9.316  21.605  0.00  0.00    +0.000 A 
ATOM     18  C   UNL     1       0.766   9.726  20.645  0.00  0.00    +0.000 A 
ATOM     19  O   UNL     1       1.504   8.678  20.206  0.00  0.00    +0.000 OA
ENDBRANCH   7  15
ENDBRANCH   2   5
BRANCH   1  20
ATOM     20  C   UNL     1       6.231   5.870  16.894  0.00  0.00    +0.000 C 
ATOM     21  C   UNL     1       6.943   4.502  16.792  0.00  0.00    +0.000 C 
ATOM     22  C   UNL     1       6.274   3.479  15.883  0.00  0.00    +0.000 C 
ATOM     23  C   UNL     1       5.835   4.040  14.533  0.00  0.00    +0.000 C 
ATOM     24  C   UNL     1       5.229   5.441  14.538  0.00  0.00    +0.000 C 
ATOM     25  C   UNL     1       5.906   6.422  15.487  0.00  0.00    +0.000 C 
BRANCH  20  29
ATOM     26  C   UNL     1       8.788   9.987  18.162  0.00  0.00    +0.000 C 
ATOM     27  C   UNL     1       8.198   8.643  18.033  0.00  0.00    +0.000 A 
ATOM     28  N   UNL     1       7.285   8.190  17.201  0.00  0.00    +0.000 NA
ATOM     29  C   UNL     1       7.176   6.866  17.592  0.00  0.00    +0.000 A 
ATOM     30  N   UNL     1       7.981   6.521  18.609  0.00  0.00    +0.000 NA
ATOM     31  O   UNL     1       8.661   7.700  18.902  0.00  0.00    +0.000 OA
ENDBRANCH  20  29
ENDBRANCH   1  20
TORSDOF 4
ENDMDL
MODEL 2
REMARK VINA RESULT:      -8.6      1.235      1.315
REMARK  Name = 
REMARK  6 active torsions:
REMARK  status: ('A' for Active; 'I' for Inactive)
REMARK    1  A    between atoms: C_1  and  C_2
REMARK    2  A    between atoms: C_4  and  C_5
REMARK    3  A    between atoms: C_5  and  N_6
REMARK    4  A    between atoms: C_7  and  C_9
REMARK    5  A    between atoms: C_11  and  C_12
REMARK    6  A    between atoms: C_21  and  C_22
REMARK                            x       y       z     vdW  Elec       q    Type
REMARK                         _______ _______ _______ _____ _____    ______ ____
ROOT
ATOM      1  N   UNL     1       5.045   5.683  17.704  0.00  0.00    +0.000 N 
ATOM      2  C   UNL     1       3.912   6.459  17.718  0.00  0.00    +0.000 C 
ATOM      3  O   UNL     1       3.636   7.353  16.939  0.00  0.00    +0.000 OA
ATOM      4  H   UNL     1       5.164   4.985  18.434  0.00  0.00    +0.000 HD
ENDROOT
BRANCH   2   5
ATOM      5  C   UNL     1       2.945   6.196  18.789  0.00  0.00    +0.000 A 
ATOM      6  C   UNL     1       2.585   7.210  19.675  0.00  0.00    +0.000 A 
ATOM      7  C   UNL     1       1.604   6.956  20.620  0.00  0.00    +0.000 A 
ATOM      8  N   UNL     1       1.017   5.753  20.817  0.00  0.00    +0.000 NA
ATOM      9  C   UNL     1       1.439   4.795  19.969  0.00  0.00    +0.000 A 
ATOM     10  O   UNL     1       0.969   3.519  19.981  0.00  0.00    +0.000 OA
ATOM     11  N   UNL     1       1.554   2.791  18.962  0.00  0.00    +0.000 NA
ATOM     12  C   UNL     1       2.388   3.635  18.337  0.00  0.00    +0.000 A 
ATOM     13  C   UNL     1       3.153   3.151  17.161  0.00  0.00    +0.000 C 
ATOM     14  C   UNL     1       2.362   4.926  18.944  0.00  0.00    +0.000 A 
BRANCH   7  15
ATOM     15  C   UNL     1       1.046   8.043  21.413  0.00  0.00    +0.000 A 
ATOM     16  C   UNL     1       1.586   9.037  22.202  0.00  0.00    +0.000 A 
ATOM     17  C   UNL     1       0.496   9.699  22.822  0.00  0.00    +0.000 A 
ATOM     18  C   UNL     1      -0.641   9.082  22.359  0.00  0.00    +0.000 A 
ATOM     19  O   UNL     1      -0.321   8.086  21.497  0.00  0.00    +0.000 OA
ENDBRANCH   7  15
ENDBRANCH   2   5
BRANCH   1  20
ATOM     20  C   UNL     1       6.245   5.816  16.833  0.00  0.00    +0.000 C 
ATOM     21  C   UNL     1       7.016   4.487  16.676  0.00  0.00    +0.000 C 
ATOM     22  C   UNL     1       6.387   3.469  15.733  0.00  0.00    +0.000 C 
ATOM     23  C   UNL     1       5.913   4.059  14.407  0.00  0.00    +0.000 C 
ATOM     24  C   UNL     1       5.246   5.431  14.469  0.00  0.00    +0.000 C 
ATOM     25  C   UNL     1       5.885   6.406  15.449  0.00  0.00    +0.000 C 
BRANCH  20  29
ATOM     26  C   UNL     1       8.731   9.960  18.156  0.00  0.00    +0.000 C 
ATOM     27  C   UNL     1       8.147   8.614  18.023  0.00  0.00    +0.000 A 
ATOM     28  N   UNL     1       7.283   8.142  17.149  0.00  0.00    +0.000 NA
ATOM     29  C   UNL     1       7.150   6.828  17.562  0.00  0.00    +0.000 A 
ATOM     30  N   UNL     1       7.894   6.504  18.632  0.00  0.00    +0.000 NA
ATOM     31  O   UNL     1       8.558   7.690  18.937  0.00  0.00    +0.000 OA
ENDBRANCH  20  29
ENDBRANCH   1  20
TORSDOF 4
ENDMDL
MODEL 3
REMARK VINA RESULT:      -8.5      1.426      3.249
REMARK  Name = 
REMARK  6 active torsions:
REMARK  status: ('A' for Active; 'I' for Inactive)
REMARK    1  A    between atoms: C_1  and  C_2
REMARK    2  A    between atoms: C_4  and  C_5
REMARK    3  A    between atoms: C_5  and  N_6
REMARK    4  A    between atoms: C_7  and  C_9
REMARK    5  A    between atoms: C_11  and  C_12
REMARK    6  A    between atoms: C_21  and  C_22
REMARK                            x       y       z     vdW  Elec       q    Type
REMARK                         _______ _______ _______ _____ _____    ______ ____
ROOT
ATOM      1  N   UNL     1       5.225   5.747  18.007  0.00  0.00    +0.000 N 
ATOM      2  C   UNL     1       4.848   4.860  18.986  0.00  0.00    +0.000 C 
ATOM      3  O   UNL     1       5.539   3.986  19.476  0.00  0.00    +0.000 OA
ATOM      4  H   UNL     1       4.537   6.413  17.665  0.00  0.00    +0.000 HD
ENDROOT
BRANCH   2   5
ATOM      5  C   UNL     1       3.470   4.964  19.476  0.00  0.00    +0.000 A 
ATOM      6  C   UNL     1       3.008   6.158  20.027  0.00  0.00    +0.000 A 
ATOM      7  C   UNL     1       1.677   6.254  20.399  0.00  0.00    +0.000 A 
ATOM      8  N   UNL     1       0.790   5.233  20.356  0.00  0.00    +0.000 NA
ATOM      9  C   UNL     1       1.302   4.087  19.866  0.00  0.00    +0.000 A 
ATOM     10  O   UNL     1       0.581   2.942  19.720  0.00  0.00    +0.000 OA
ATOM     11  N   UNL     1       1.367   1.960  19.146  0.00  0.00    +0.000 NA
ATOM     12  C   UNL     1       2.570   2.517  18.951  0.00  0.00    +0.000 A 
ATOM     13  C   UNL     1       3.641   1.712  18.312  0.00  0.00    +0.000 C 
ATOM     14  C   UNL     1       2.590   3.871  19.401  0.00  0.00    +0.000 A 
BRANCH   7  15
ATOM     15  C   UNL     1       1.105   7.541  20.769  0.00  0.00    +0.000 A 
ATOM     16  C   UNL     1       0.163   7.949  21.690  0.00  0.00    +0.000 A 
ATOM     17  C   UNL     1      -0.057   9.330  21.459  0.00  0.00    +0.000 A 
ATOM     18  C   UNL     1       0.777   9.685  20.427  0.00  0.00    +0.000 A 
ATOM     19  O   UNL     1       1.493   8.612  20.008  0.00  0.00    +0.000 OA
ENDBRANCH   7  15
ENDBRANCH   2   5
BRANCH   1  20
ATOM     20  C   UNL     1       6.496   5.784  17.234  0.00  0.00    +0.000 C 
ATOM     21  C   UNL     1       6.825   7.195  16.698  0.00  0.00    +0.000 C 
ATOM     22  C   UNL     1       7.367   8.179  17.726  0.00  0.00    +0.000 C 
ATOM     23  C   UNL     1       8.455   7.601  18.627  0.00  0.00    +0.000 C 
ATOM     24  C   UNL     1       8.258   6.163  19.102  0.00  0.00    +0.000 C 
ATOM     25  C   UNL     1       7.681   5.221  18.054  0.00  0.00    +0.000 C 
BRANCH  20  29
ATOM     26  C   UNL     1       6.423   3.763  12.650  0.00  0.00    +0.000 C 
ATOM     27  C   UNL     1       6.279   4.094  14.078  0.00  0.00    +0.000 A 
ATOM     28  N   UNL     1       6.727   5.123  14.765  0.00  0.00    +0.000 NA
ATOM     29  C   UNL     1       6.256   4.845  16.036  0.00  0.00    +0.000 A 
ATOM     30  N   UNL     1       5.552   3.706  16.129  0.00  0.00    +0.000 NA
ATOM     31  O   UNL     1       5.565   3.207  14.830  0.00  0.00    +0.000 OA
ENDBRANCH  20  29
ENDBRANCH   1  20
TORSDOF 4
ENDMDL
MODEL 4
REMARK VINA RESULT:      -8.1      1.809      3.405
REMARK  Name = 
REMARK  6 active torsions:
REMARK  status: ('A' for Active; 'I' for Inactive)
REMARK    1  A    between atoms: C_1  and  C_2
REMARK    2  A    between atoms: C_4  and  C_5
REMARK    3  A    between atoms: C_5  and  N_6
REMARK    4  A    between atoms: C_7  and  C_9
REMARK    5  A    between atoms: C_11  and  C_12
REMARK    6  A    between atoms: C_21  and  C_22
REMARK                            x       y       z     vdW  Elec       q    Type
REMARK                         _______ _______ _______ _____ _____    ______ ____
ROOT
ATOM      1  N   UNL     1       5.360   5.775  18.189  0.00  0.00    +0.000 N 
ATOM      2  C   UNL     1       4.100   6.181  17.827  0.00  0.00    +0.000 C 
ATOM      3  O   UNL     1       3.756   6.587  16.732  0.00  0.00    +0.000 OA
ATOM      4  H   UNL     1       5.519   5.484  19.150  0.00  0.00    +0.000 HD
ENDROOT
BRANCH   2   5
ATOM      5  C   UNL     1       3.069   6.141  18.869  0.00  0.00    +0.000 A 
ATOM      6  C   UNL     1       2.690   7.308  19.530  0.00  0.00    +0.000 A 
ATOM      7  C   UNL     1       1.652   7.253  20.444  0.00  0.00    +0.000 A 
ATOM      8  N   UNL     1       1.019   6.119  20.825  0.00  0.00    +0.000 NA
ATOM      9  C   UNL     1       1.460   5.012  20.195  0.00  0.00    +0.000 A 
ATOM     10  O   UNL     1       0.952   3.769  20.415  0.00  0.00    +0.000 OA
ATOM     11  N   UNL     1       1.571   2.854  19.584  0.00  0.00    +0.000 NA
ATOM     12  C   UNL     1       2.462   3.551  18.865  0.00  0.00    +0.000 A 
ATOM     13  C   UNL     1       3.277   2.843  17.846  0.00  0.00    +0.000 C 
ATOM     14  C   UNL     1       2.441   4.932  19.220  0.00  0.00    +0.000 A 
BRANCH   7  15
ATOM     15  C   UNL     1       1.082   8.478  20.989  0.00  0.00    +0.000 A 
ATOM     16  C   UNL     1       0.684   8.881  22.246  0.00  0.00    +0.000 A 
ATOM     17  C   UNL     1       0.077  10.152  22.090  0.00  0.00    +0.000 A 
ATOM     18  C   UNL     1       0.160  10.457  20.753  0.00  0.00    +0.000 A 
ATOM     19  O   UNL     1       0.776   9.455  20.078  0.00  0.00    +0.000 OA
ENDBRANCH   7  15
ENDBRANCH   2   5
BRANCH   1  20
ATOM     20  C   UNL     1       6.616   5.841  17.393  0.00  0.00    +0.000 C 
ATOM     21  C   UNL     1       6.887   7.252  16.824  0.00  0.00    +0.000 C 
ATOM     22  C   UNL     1       7.412   8.274  17.825  0.00  0.00    +0.000 C 
ATOM     23  C   UNL     1       8.534   7.751  18.718  0.00  0.00    +0.000 C 
ATOM     24  C   UNL     1       8.395   6.317  19.222  0.00  0.00    +0.000 C 
ATOM     25  C   UNL     1       7.834   5.335  18.202  0.00  0.00    +0.000 C 
BRANCH  20  29
ATOM     26  C   UNL     1       6.319   3.820  12.818  0.00  0.00    +0.000 C 
ATOM     27  C   UNL     1       6.297   4.128  14.258  0.00  0.00    +0.000 A 
ATOM     28  N   UNL     1       6.651   5.219  14.903  0.00  0.00    +0.000 NA
ATOM     29  C   UNL     1       6.389   4.871  16.217  0.00  0.00    +0.000 A 
ATOM     30  N   UNL     1       5.897   3.633  16.375  0.00  0.00    +0.000 NA
ATOM     31  O   UNL     1       5.834   3.138  15.075  0.00  0.00    +0.000 OA
ENDBRANCH  20  29
ENDBRANCH   1  20
TORSDOF 4
ENDMDL
MODEL 5
REMARK VINA RESULT:      -7.2      7.158      9.799
REMARK  Name = 
REMARK  6 active torsions:
REMARK  status: ('A' for Active; 'I' for Inactive)
REMARK    1  A    between atoms: C_1  and  C_2
REMARK    2  A    between atoms: C_4  and  C_5
REMARK    3  A    between atoms: C_5  and  N_6
REMARK    4  A    between atoms: C_7  and  C_9
REMARK    5  A    between atoms: C_11  and  C_12
REMARK    6  A    between atoms: C_21  and  C_22
REMARK                            x       y       z     vdW  Elec       q    Type
REMARK                         _______ _______ _______ _____ _____    ______ ____
ROOT
ATOM      1  N   UNL     1      -0.968  11.148  19.857  0.00  0.00    +0.000 N 
ATOM      2  C   UNL     1      -1.754  12.201  19.462  0.00  0.00    +0.000 C 
ATOM      3  O   UNL     1      -1.618  13.367  19.783  0.00  0.00    +0.000 OA
ATOM      4  H   UNL     1      -1.211  10.214  19.535  0.00  0.00    +0.000 HD
ENDROOT
BRANCH   2   5
ATOM      5  C   UNL     1      -2.883  11.888  18.579  0.00  0.00    +0.000 A 
ATOM      6  C   UNL     1      -2.656  11.461  17.273  0.00  0.00    +0.000 A 
ATOM      7  C   UNL     1      -3.739  11.088  16.493  0.00  0.00    +0.000 A 
ATOM      8  N   UNL     1      -5.033  11.191  16.872  0.00  0.00    +0.000 NA
ATOM      9  C   UNL     1      -5.199  11.660  18.124  0.00  0.00    +0.000 A 
ATOM     10  O   UNL     1      -6.415  11.828  18.710  0.00  0.00    +0.000 OA
ATOM     11  N   UNL     1      -6.254  12.272  20.009  0.00  0.00    +0.000 NA
ATOM     12  C   UNL     1      -4.932  12.379  20.202  0.00  0.00    +0.000 A 
ATOM     13  C   UNL     1      -4.432  12.811  21.531  0.00  0.00    +0.000 C 
ATOM     14  C   UNL     1      -4.210  12.010  19.029  0.00  0.00    +0.000 A 
BRANCH   7  15
ATOM     15  C   UNL     1      -3.531  10.431  15.209  0.00  0.00    +0.000 A 
ATOM     16  C   UNL     1      -2.452   9.829  14.597  0.00  0.00    +0.000 A 
ATOM     17  C   UNL     1      -2.863   9.504  13.280  0.00  0.00    +0.000 A 
ATOM     18  C   UNL     1      -4.171   9.908  13.175  0.00  0.00    +0.000 A 
ATOM     19  O   UNL     1      -4.590  10.461  14.340  0.00  0.00    +0.000 OA
ENDBRANCH   7  15
ENDBRANCH   2   5
BRANCH   1  20
ATOM     20  C   UNL     1       0.144  11.145  20.846  0.00  0.00    +0.000 C 
ATOM     21  C   UNL     1      -0.273  11.738  22.211  0.00  0.00    +0.000 C 
ATOM     22  C   UNL     1      -1.121  10.829  23.091  0.00  0.00    +0.000 C 
ATOM     23  C   UNL     1      -0.608   9.394  23.182  0.00  0.00    +0.000 C 
ATOM     24  C   UNL     1      -0.066   8.779  21.893  0.00  0.00    +0.000 C 
ATOM     25  C   UNL     1       0.746   9.731  21.026  0.00  0.00    +0.000 C 
BRANCH  20  29
ATOM     26  C   UNL     1       3.599  14.699  20.117  0.00  0.00    +0.000 C 
ATOM     27  C   UNL     1       2.650  13.576  20.027  0.00  0.00    +0.000 A 
ATOM     28  N   UNL     1       1.839  13.070  20.932  0.00  0.00    +0.000 NA
ATOM     29  C   UNL     1       1.226  12.050  20.226  0.00  0.00    +0.000 A 
ATOM     30  N   UNL     1       1.634  11.933  18.952  0.00  0.00    +0.000 NA
ATOM     31  O   UNL     1       2.578  12.948  18.819  0.00  0.00    +0.000 OA
ENDBRANCH  20  29
ENDBRANCH   1  20
TORSDOF 4
ENDMDL
MODEL 6
REMARK VINA RESULT:      -7.1      6.656      9.358
REMARK  Name = 
REMARK  6 active torsions:
REMARK  status: ('A' for Active; 'I' for Inactive)
REMARK    1  A    between atoms: C_1  and  C_2
REMARK    2  A    between atoms: C_4  and  C_5
REMARK    3  A    between atoms: C_5  and  N_6
REMARK    4  A    between atoms: C_7  and  C_9
REMARK    5  A    between atoms: C_11  and  C_12
REMARK    6  A    between atoms: C_21  and  C_22
REMARK                            x       y       z     vdW  Elec       q    Type
REMARK                         _______ _______ _______ _____ _____    ______ ____
ROOT
ATOM      1  N   UNL     1      -0.801  11.326  20.096  0.00  0.00    +0.000 N 
ATOM      2  C   UNL     1      -1.532  12.268  19.415  0.00  0.00    +0.000 C 
ATOM      3  O   UNL     1      -1.091  13.156  18.709  0.00  0.00    +0.000 OA
ATOM      4  H   UNL     1      -1.297  10.653  20.676  0.00  0.00    +0.000 HD
ENDROOT
BRANCH   2   5
ATOM      5  C   UNL     1      -2.989  12.210  19.569  0.00  0.00    +0.000 A 
ATOM      6  C   UNL     1      -3.586  12.598  20.766  0.00  0.00    +0.000 A 
ATOM      7  C   UNL     1      -4.969  12.618  20.851  0.00  0.00    +0.000 A 
ATOM      8  N   UNL     1      -5.806  12.196  19.875  0.00  0.00    +0.000 NA
ATOM      9  C   UNL     1      -5.176  11.781  18.758  0.00  0.00    +0.000 A 
ATOM     10  O   UNL     1      -5.826  11.332  17.650  0.00  0.00    +0.000 OA
ATOM     11  N   UNL     1      -4.912  11.031  16.658  0.00  0.00    +0.000 NA
ATOM     12  C   UNL     1      -3.704  11.295  17.176  0.00  0.00    +0.000 A 
ATOM     13  C   UNL     1      -2.500  11.098  16.330  0.00  0.00    +0.000 C 
ATOM     14  C   UNL     1      -3.812  11.767  18.517  0.00  0.00    +0.000 A 
BRANCH   7  15
ATOM     15  C   UNL     1      -5.629  13.223  21.999  0.00  0.00    +0.000 A 
ATOM     16  C   UNL     1      -5.669  14.495  22.530  0.00  0.00    +0.000 A 
ATOM     17  C   UNL     1      -6.384  14.403  23.750  0.00  0.00    +0.000 A 
ATOM     18  C   UNL     1      -6.755  13.087  23.879  0.00  0.00    +0.000 A 
ATOM     19  O   UNL     1      -6.313  12.365  22.820  0.00  0.00    +0.000 OA
ENDBRANCH   7  15
ENDBRANCH   2   5
BRANCH   1  20
ATOM     20  C   UNL     1       0.677  11.229  20.238  0.00  0.00    +0.000 C 
ATOM     21  C   UNL     1       1.110  10.093  21.191  0.00  0.00    +0.000 C 
ATOM     22  C   UNL     1       1.026   8.685  20.617  0.00  0.00    +0.000 C 
ATOM     23  C   UNL     1       1.602   8.551  19.209  0.00  0.00    +0.000 C 
ATOM     24  C   UNL     1       1.316   9.697  18.242  0.00  0.00    +0.000 C 
ATOM     25  C   UNL     1       1.376  11.086  18.865  0.00  0.00    +0.000 C 
BRANCH  20  29
ATOM     26  C   UNL     1       3.003  15.570  21.161  0.00  0.00    +0.000 C 
ATOM     27  C   UNL     1       2.147  14.371  21.150  0.00  0.00    +0.000 A 
ATOM     28  N   UNL     1       2.109  13.358  20.310  0.00  0.00    +0.000 NA
ATOM     29  C   UNL     1       1.103  12.577  20.852  0.00  0.00    +0.000 A 
ATOM     30  N   UNL     1       0.551  13.078  21.967  0.00  0.00    +0.000 NA
ATOM     31  O   UNL     1       1.244  14.269  22.167  0.00  0.00    +0.000 OA
ENDBRANCH  20  29
ENDBRANCH   1  20
TORSDOF 4
ENDMDL
MODEL 7
REMARK VINA RESULT:      -7.1      7.334     12.472
REMARK  Name = 
REMARK  6 active torsions:
REMARK  status: ('A' for Active; 'I' for Inactive)
REMARK    1  A    between atoms: C_1  and  C_2
REMARK    2  A    between atoms: C_4  and  C_5
REMARK    3  A    between atoms: C_5  and  N_6
REMARK    4  A    between atoms: C_7  and  C_9
REMARK    5  A    between atoms: C_11  and  C_12
REMARK    6  A    between atoms: C_21  and  C_22
REMARK                            x       y       z     vdW  Elec       q    Type
REMARK                         _______ _______ _______ _____ _____    ______ ____
ROOT
ATOM      1  N   UNL     1      -3.979  13.052  22.401  0.00  0.00    +0.000 N 
ATOM      2  C   UNL     1      -3.957  13.634  21.158  0.00  0.00    +0.000 C 
ATOM      3  O   UNL     1      -4.148  14.809  20.904  0.00  0.00    +0.000 OA
ATOM      4  H   UNL     1      -3.829  12.048  22.469  0.00  0.00    +0.000 HD
ENDROOT
BRANCH   2   5
ATOM      5  C   UNL     1      -3.695  12.748  20.018  0.00  0.00    +0.000 A 
ATOM      6  C   UNL     1      -2.388  12.388  19.693  0.00  0.00    +0.000 A 
ATOM      7  C   UNL     1      -2.178  11.481  18.668  0.00  0.00    +0.000 A 
ATOM      8  N   UNL     1      -3.152  10.971  17.879  0.00  0.00    +0.000 NA
ATOM      9  C   UNL     1      -4.391  11.393  18.202  0.00  0.00    +0.000 A 
ATOM     10  O   UNL     1      -5.516  10.992  17.549  0.00  0.00    +0.000 OA
ATOM     11  N   UNL     1      -6.630  11.554  18.143  0.00  0.00    +0.000 NA
ATOM     12  C   UNL     1      -6.171  12.302  19.157  0.00  0.00    +0.000 A 
ATOM     13  C   UNL     1      -7.143  13.020  20.019  0.00  0.00    +0.000 C 
ATOM     14  C   UNL     1      -4.748  12.244  19.235  0.00  0.00    +0.000 A 
BRANCH   7  15
ATOM     15  C   UNL     1      -0.855  10.914  18.445  0.00  0.00    +0.000 A 
ATOM     16  C   UNL     1      -0.391   9.730  17.909  0.00  0.00    +0.000 A 
ATOM     17  C   UNL     1       1.012   9.720  18.106  0.00  0.00    +0.000 A 
ATOM     18  C   UNL     1       1.321  10.904  18.730  0.00  0.00    +0.000 A 
ATOM     19  O   UNL     1       0.200  11.640  18.931  0.00  0.00    +0.000 OA
ENDBRANCH   7  15
ENDBRANCH   2   5
BRANCH   1  20
ATOM     20  C   UNL     1      -4.353  13.668  23.703  0.00  0.00    +0.000 C 
ATOM     21  C   UNL     1      -5.356  14.833  23.543  0.00  0.00    +0.000 C 
ATOM     22  C   UNL     1      -6.798  14.426  23.268  0.00  0.00    +0.000 C 
ATOM     23  C   UNL     1      -7.308  13.300  24.165  0.00  0.00    +0.000 C 
ATOM     24  C   UNL     1      -6.329  12.168  24.466  0.00  0.00    +0.000 C 
ATOM     25  C   UNL     1      -4.892  12.616  24.700  0.00  0.00    +0.000 C 
BRANCH  20  29
ATOM     26  C   UNL     1      -0.961  16.160  26.421  0.00  0.00    +0.000 C 
ATOM     27  C   UNL     1      -1.701  15.320  25.463  0.00  0.00    +0.000 A 
ATOM     28  N   UNL     1      -2.991  15.087  25.352  0.00  0.00    +0.000 NA
ATOM     29  C   UNL     1      -3.033  14.228  24.267  0.00  0.00    +0.000 A 
ATOM     30  N   UNL     1      -1.834  13.948  23.734  0.00  0.00    +0.000 NA
ATOM     31  O   UNL     1      -0.948  14.674  24.527  0.00  0.00    +0.000 OA
ENDBRANCH  20  29
ENDBRANCH   1  20
TORSDOF 4
ENDMDL
MODEL 8
REMARK VINA RESULT:      -7.1      2.380      7.472
REMARK  Name = 
REMARK  6 active torsions:
REMARK  status: ('A' for Active; 'I' for Inactive)
REMARK    1  A    between atoms: C_1  and  C_2
REMARK    2  A    between atoms: C_4  and  C_5
REMARK    3  A    between atoms: C_5  and  N_6
REMARK    4  A    between atoms: C_7  and  C_9
REMARK    5  A    between atoms: C_11  and  C_12
REMARK    6  A    between atoms: C_21  and  C_22
REMARK                            x       y       z     vdW  Elec       q    Type
REMARK                         _______ _______ _______ _____ _____    ______ ____
ROOT
ATOM      1  N   UNL     1       3.304   4.774  18.076  0.00  0.00    +0.000 N 
ATOM      2  C   UNL     1       4.254   3.843  17.738  0.00  0.00    +0.000 C 
ATOM      3  O   UNL     1       4.442   2.770  18.281  0.00  0.00    +0.000 OA
ATOM      4  H   UNL     1       3.273   5.647  17.554  0.00  0.00    +0.000 HD
ENDROOT
BRANCH   2   5
ATOM      5  C   UNL     1       5.144   4.182  16.622  0.00  0.00    +0.000 A 
ATOM      6  C   UNL     1       4.983   3.567  15.382  0.00  0.00    +0.000 A 
ATOM      7  C   UNL     1       5.780   3.972  14.325  0.00  0.00    +0.000 A 
ATOM      8  N   UNL     1       6.786   4.873  14.419  0.00  0.00    +0.000 NA
ATOM      9  C   UNL     1       6.933   5.398  15.651  0.00  0.00    +0.000 A 
ATOM     10  O   UNL     1       7.872   6.332  15.964  0.00  0.00    +0.000 OA
ATOM     11  N   UNL     1       7.738   6.710  17.287  0.00  0.00    +0.000 NA
ATOM     12  C   UNL     1       6.716   5.992  17.774  0.00  0.00    +0.000 A 
ATOM     13  C   UNL     1       6.301   6.196  19.185  0.00  0.00    +0.000 C 
ATOM     14  C   UNL     1       6.170   5.130  16.777  0.00  0.00    +0.000 A 
BRANCH   7  15
ATOM     15  C   UNL     1       5.497   3.517  12.971  0.00  0.00    +0.000 A 
ATOM     16  C   UNL     1       4.424   3.645  12.114  0.00  0.00    +0.000 A 
ATOM     17  C   UNL     1       4.713   2.846  10.980  0.00  0.00    +0.000 A 
ATOM     18  C   UNL     1       5.952   2.296  11.203  0.00  0.00    +0.000 A 
ATOM     19  O   UNL     1       6.441   2.703  12.400  0.00  0.00    +0.000 OA
ENDBRANCH   7  15
ENDBRANCH   2   5
BRANCH   1  20
ATOM     20  C   UNL     1       2.371   4.763  19.235  0.00  0.00    +0.000 C 
ATOM     21  C   UNL     1       1.013   4.105  18.900  0.00  0.00    +0.000 C 
ATOM     22  C   UNL     1       1.020   2.583  18.831  0.00  0.00    +0.000 C 
ATOM     23  C   UNL     1       1.754   1.911  19.988  0.00  0.00    +0.000 C 
ATOM     24  C   UNL     1       3.047   2.574  20.456  0.00  0.00    +0.000 C 
ATOM     25  C   UNL     1       3.009   4.096  20.477  0.00  0.00    +0.000 C 
BRANCH  20  29
ATOM     26  C   UNL     1       1.061   9.036  21.500  0.00  0.00    +0.000 C 
ATOM     27  C   UNL     1       1.540   7.975  20.597  0.00  0.00    +0.000 A 
ATOM     28  N   UNL     1       1.584   6.670  20.762  0.00  0.00    +0.000 NA
ATOM     29  C   UNL     1       2.130   6.250  19.562  0.00  0.00    +0.000 A 
ATOM     30  N   UNL     1       2.407   7.241  18.701  0.00  0.00    +0.000 NA
ATOM     31  O   UNL     1       2.014   8.387  19.387  0.00  0.00    +0.000 OA
ENDBRANCH  20  29
ENDBRANCH   1  20
TORSDOF 4
ENDMDL
MODEL 9
REMARK VINA RESULT:      -7.0      2.577      7.466
REMARK  Name = 
REMARK  6 active torsions:
REMARK  status: ('A' for Active; 'I' for Inactive)
REMARK    1  A    between atoms: C_1  and  C_2
REMARK    2  A    between atoms: C_4  and  C_5
REMARK    3  A    between atoms: C_5  and  N_6
REMARK    4  A    between atoms: C_7  and  C_9
REMARK    5  A    between atoms: C_11  and  C_12
REMARK    6  A    between atoms: C_21  and  C_22
REMARK                            x       y       z     vdW  Elec       q    Type
REMARK                         _______ _______ _______ _____ _____    ______ ____
ROOT
ATOM      1  N   UNL     1       3.342   4.879  17.803  0.00  0.00    +0.000 N 
ATOM      2  C   UNL     1       4.250   3.899  17.488  0.00  0.00    +0.000 C 
ATOM      3  O   UNL     1       4.406   2.841  18.070  0.00  0.00    +0.000 OA
ATOM      4  H   UNL     1       3.336   5.731  17.248  0.00  0.00    +0.000 HD
ENDROOT
BRANCH   2   5
ATOM      5  C   UNL     1       5.135   4.160  16.348  0.00  0.00    +0.000 A 
ATOM      6  C   UNL     1       4.940   3.494  15.139  0.00  0.00    +0.000 A 
ATOM      7  C   UNL     1       5.735   3.827  14.055  0.00  0.00    +0.000 A 
ATOM      8  N   UNL     1       6.768   4.700  14.096  0.00  0.00    +0.000 NA
ATOM      9  C   UNL     1       6.947   5.275  15.301  0.00  0.00    +0.000 A 
ATOM     10  O   UNL     1       7.917   6.195  15.559  0.00  0.00    +0.000 OA
ATOM     11  N   UNL     1       7.811   6.635  16.865  0.00  0.00    +0.000 NA
ATOM     12  C   UNL     1       6.775   5.972  17.397  0.00  0.00    +0.000 A 
ATOM     13  C   UNL     1       6.385   6.253  18.802  0.00  0.00    +0.000 C 
ATOM     14  C   UNL     1       6.191   5.083  16.447  0.00  0.00    +0.000 A 
BRANCH   7  15
ATOM     15  C   UNL     1       5.420   3.319  12.726  0.00  0.00    +0.000 A 
ATOM     16  C   UNL     1       4.398   3.538  11.826  0.00  0.00    +0.000 A 
ATOM     17  C   UNL     1       4.594   2.625  10.761  0.00  0.00    +0.000 A 
ATOM     18  C   UNL     1       5.733   1.919  11.064  0.00  0.00    +0.000 A 
ATOM     19  O   UNL     1       6.248   2.337  12.247  0.00  0.00    +0.000 OA
ENDBRANCH   7  15
ENDBRANCH   2   5
BRANCH   1  20
ATOM     20  C   UNL     1       2.428   4.948  18.975  0.00  0.00    +0.000 C 
ATOM     21  C   UNL     1       1.091   4.211  18.732  0.00  0.00    +0.000 C 
ATOM     22  C   UNL     1       1.155   2.691  18.812  0.00  0.00    +0.000 C 
ATOM     23  C   UNL     1       1.931   2.164  20.016  0.00  0.00    +0.000 C 
ATOM     24  C   UNL     1       3.205   2.917  20.392  0.00  0.00    +0.000 C 
ATOM     25  C   UNL     1       3.109   4.431  20.264  0.00  0.00    +0.000 C 
BRANCH  20  29
ATOM     26  C   UNL     1       1.803   9.856  18.181  0.00  0.00    +0.000 C 
ATOM     27  C   UNL     1       1.908   8.487  18.717  0.00  0.00    +0.000 A 
ATOM     28  N   UNL     1       2.198   7.354  18.112  0.00  0.00    +0.000 NA
ATOM     29  C   UNL     1       2.136   6.450  19.158  0.00  0.00    +0.000 A 
ATOM     30  N   UNL     1       1.826   6.995  20.345  0.00  0.00    +0.000 NA
ATOM     31  O   UNL     1       1.676   8.348  20.053  0.00  0.00    +0.000 OA
ENDBRANCH  20  29
ENDBRANCH   1  20
TORSDOF 4
ENDMDL
