MODEL 1
REMARK VINA RESULT:      -8.0      0.000      0.000
REMARK  Name = 
REMARK  3 active torsions:
REMARK  status: ('A' for Active; 'I' for Inactive)
REMARK    1  A    between atoms: C_2  and  C_3
REMARK    2  A    between atoms: C_3  and  N_4
REMARK    3  A    between atoms: N_15  and  C_16
REMARK                            x       y       z     vdW  Elec       q    Type
REMARK                         _______ _______ _______ _____ _____    ______ ____
ROOT
ATOM      1  O   UNL     1      -0.045   7.432  21.215  0.00  0.00    +0.000 OA
ATOM      2  C   UNL     1       1.103   7.841  21.065  0.00  0.00    +0.000 C 
ATOM      3  N   UNL     1       2.186   7.092  20.616  0.00  0.00    +0.000 N 
ATOM      4  H   UNL     1       3.104   7.469  20.830  0.00  0.00    +0.000 HD
ENDROOT
BRANCH   3   5
ATOM      5  C   UNL     1       2.129   5.777  20.067  0.00  0.00    +0.000 A 
ATOM      6  C   UNL     1       1.303   4.803  20.643  0.00  0.00    +0.000 A 
ATOM      7  C   UNL     1       1.260   3.509  20.136  0.00  0.00    +0.000 A 
ATOM      8  C   UNL     1       2.038   3.176  19.034  0.00  0.00    +0.000 A 
ATOM      9  C   UNL     1       2.844   4.108  18.407  0.00  0.00    +0.000 A 
ATOM     10  N   UNL     1       3.546   3.681  17.344  0.00  0.00    +0.000 NA
ATOM     11  C   UNL     1       4.344   4.560  16.709  0.00  0.00    +0.000 A 
ATOM     12  C   UNL     1       4.473   5.878  17.089  0.00  0.00    +0.000 A 
ATOM     13  C   UNL     1       3.745   6.318  18.192  0.00  0.00    +0.000 A 
ATOM     14  C   UNL     1       2.896   5.436  18.906  0.00  0.00    +0.000 A 
ENDBRANCH   3   5
BRANCH   2  15
ATOM     15  C   UNL     1       1.463   9.277  21.457  0.00  0.00    +0.000 C 
BRANCH  15  16
ATOM     16  N   UNL     1       0.282  10.108  21.631  0.00  0.00    +0.000 N 
ATOM     17  C   UNL     1      -0.197  10.264  22.921  0.00  0.00    +0.000 A 
ATOM     18  O   UNL     1       0.253   9.699  23.913  0.00  0.00    +0.000 OA
ATOM     19  C   UNL     1      -1.354  11.212  23.098  0.00  0.00    +0.000 A 
ATOM     20  N   UNL     1      -1.943  11.838  22.131  0.00  0.00    +0.000 NA
ATOM     21  C   UNL     1      -1.470  11.608  20.828  0.00  0.00    +0.000 A 
ATOM     22  C   UNL     1      -2.122  12.276  19.784  0.00  0.00    +0.000 A 
ATOM     23  C   UNL     1      -1.711  12.112  18.464  0.00  0.00    +0.000 A 
ATOM     24  C   UNL     1      -0.648  11.260  18.177  0.00  0.00    +0.000 A 
ATOM     25  C   UNL     1       0.009  10.580  19.208  0.00  0.00    +0.000 A 
ATOM     26  C   UNL     1      -0.381  10.755  20.544  0.00  0.00    +0.000 A 
ENDBRANCH  15  16
ENDBRANCH   2  15
TORSDOF 3
ENDMDL
MODEL 2
REMARK VINA RESULT:      -7.9      1.752      7.770
REMARK  Name = 
REMARK  3 active torsions:
REMARK  status: ('A' for Active; 'I' for Inactive)
REMARK    1  A    between atoms: C_2  and  C_3
REMARK    2  A    between atoms: C_3  and  N_4
REMARK    3  A    between atoms: N_15  and  C_16
REMARK                            x       y       z     vdW  Elec       q    Type
REMARK                         _______ _______ _______ _____ _____    ______ ____
ROOT
ATOM      1  O   UNL     1       0.605   5.640  20.353  0.00  0.00    +0.000 OA
ATOM      2  C   UNL     1       1.772   6.007  20.463  0.00  0.00    +0.000 C 
ATOM      3  N   UNL     1       2.260   7.278  20.174  0.00  0.00    +0.000 N 
ATOM      4  H   UNL     1       3.262   7.344  20.022  0.00  0.00    +0.000 HD
ENDROOT
BRANCH   3   5
ATOM      5  C   UNL     1       1.476   8.434  19.886  0.00  0.00    +0.000 A 
ATOM      6  C   UNL     1       1.375   8.914  18.574  0.00  0.00    +0.000 A 
ATOM      7  C   UNL     1       0.639  10.057  18.284  0.00  0.00    +0.000 A 
ATOM      8  C   UNL     1      -0.018  10.731  19.307  0.00  0.00    +0.000 A 
ATOM      9  C   UNL     1       0.022  10.281  20.614  0.00  0.00    +0.000 A 
ATOM     10  N   UNL     1      -0.656  11.002  21.522  0.00  0.00    +0.000 NA
ATOM     11  C   UNL     1      -0.638  10.596  22.805  0.00  0.00    +0.000 A 
ATOM     12  C   UNL     1       0.033   9.473  23.235  0.00  0.00    +0.000 A 
ATOM     13  C   UNL     1       0.737   8.727  22.292  0.00  0.00    +0.000 A 
ATOM     14  C   UNL     1       0.763   9.111  20.928  0.00  0.00    +0.000 A 
ENDBRANCH   3   5
BRANCH   2  15
ATOM     15  C   UNL     1       2.854   5.008  20.881  0.00  0.00    +0.000 C 
BRANCH  15  16
ATOM     16  N   UNL     1       3.158   4.057  19.824  0.00  0.00    +0.000 N 
ATOM     17  C   UNL     1       2.595   2.795  19.928  0.00  0.00    +0.000 A 
ATOM     18  O   UNL     1       1.924   2.399  20.875  0.00  0.00    +0.000 OA
ATOM     19  C   UNL     1       2.832   1.857  18.774  0.00  0.00    +0.000 A 
ATOM     20  N   UNL     1       3.552   2.137  17.736  0.00  0.00    +0.000 NA
ATOM     21  C   UNL     1       4.158   3.405  17.694  0.00  0.00    +0.000 A 
ATOM     22  C   UNL     1       4.950   3.696  16.576  0.00  0.00    +0.000 A 
ATOM     23  C   UNL     1       5.579   4.933  16.450  0.00  0.00    +0.000 A 
ATOM     24  C   UNL     1       5.432   5.884  17.456  0.00  0.00    +0.000 A 
ATOM     25  C   UNL     1       4.650   5.605  18.582  0.00  0.00    +0.000 A 
ATOM     26  C   UNL     1       3.993   4.372  18.710  0.00  0.00    +0.000 A 
ENDBRANCH  15  16
ENDBRANCH   2  15
TORSDOF 3
ENDMDL
MODEL 3
REMARK VINA RESULT:      -7.9      1.657      2.015
REMARK  Name = 
REMARK  3 active torsions:
REMARK  status: ('A' for Active; 'I' for Inactive)
REMARK    1  A    between atoms: C_2  and  C_3
REMARK    2  A    between atoms: C_3  and  N_4
REMARK    3  A    between atoms: N_15  and  C_16
REMARK                            x       y       z     vdW  Elec       q    Type
REMARK                         _______ _______ _______ _____ _____    ______ ____
ROOT
ATOM      1  O   UNL     1       0.664   8.685  20.682  0.00  0.00    +0.000 OA
ATOM      2  C   UNL     1       1.319   8.923  19.670  0.00  0.00    +0.000 C 
ATOM      3  N   UNL     1       2.235   8.065  19.070  0.00  0.00    +0.000 N 
ATOM      4  H   UNL     1       2.903   8.501  18.441  0.00  0.00    +0.000 HD
ENDROOT
BRANCH   3   5
ATOM      5  C   UNL     1       2.443   6.693  19.397  0.00  0.00    +0.000 A 
ATOM      6  C   UNL     1       1.806   6.125  20.508  0.00  0.00    +0.000 A 
ATOM      7  C   UNL     1       2.022   4.796  20.856  0.00  0.00    +0.000 A 
ATOM      8  C   UNL     1       2.874   4.013  20.086  0.00  0.00    +0.000 A 
ATOM      9  C   UNL     1       3.501   4.515  18.961  0.00  0.00    +0.000 A 
ATOM     10  N   UNL     1       4.295   3.668  18.283  0.00  0.00    +0.000 NA
ATOM     11  C   UNL     1       4.924   4.122  17.184  0.00  0.00    +0.000 A 
ATOM     12  C   UNL     1       4.790   5.409  16.711  0.00  0.00    +0.000 A 
ATOM     13  C   UNL     1       3.967   6.286  17.415  0.00  0.00    +0.000 A 
ATOM     14  C   UNL     1       3.287   5.868  18.585  0.00  0.00    +0.000 A 
ENDBRANCH   3   5
BRANCH   2  15
ATOM     15  C   UNL     1       1.221  10.294  18.998  0.00  0.00    +0.000 C 
BRANCH  15  16
ATOM     16  N   UNL     1       0.004  10.999  19.369  0.00  0.00    +0.000 N 
ATOM     17  C   UNL     1       0.068  11.836  20.471  0.00  0.00    +0.000 A 
ATOM     18  O   UNL     1       1.048  11.971  21.196  0.00  0.00    +0.000 OA
ATOM     19  C   UNL     1      -1.169  12.639  20.777  0.00  0.00    +0.000 A 
ATOM     20  N   UNL     1      -2.278  12.559  20.115  0.00  0.00    +0.000 NA
ATOM     21  C   UNL     1      -2.326  11.654  19.041  0.00  0.00    +0.000 A 
ATOM     22  C   UNL     1      -3.534  11.561  18.339  0.00  0.00    +0.000 A 
ATOM     23  C   UNL     1      -3.665  10.696  17.256  0.00  0.00    +0.000 A 
ATOM     24  C   UNL     1      -2.586   9.902  16.877  0.00  0.00    +0.000 A 
ATOM     25  C   UNL     1      -1.375   9.978  17.573  0.00  0.00    +0.000 A 
ATOM     26  C   UNL     1      -1.223  10.863  18.651  0.00  0.00    +0.000 A 
ENDBRANCH  15  16
ENDBRANCH   2  15
TORSDOF 3
ENDMDL
MODEL 4
REMARK VINA RESULT:      -7.9      2.393      7.953
REMARK  Name = 
REMARK  3 active torsions:
REMARK  status: ('A' for Active; 'I' for Inactive)
REMARK    1  A    between atoms: C_2  and  C_3
REMARK    2  A    between atoms: C_3  and  N_4
REMARK    3  A    between atoms: N_15  and  C_16
REMARK                            x       y       z     vdW  Elec       q    Type
REMARK                         _______ _______ _______ _____ _____    ______ ____
ROOT
ATOM      1  O   UNL     1       2.314   7.532  19.569  0.00  0.00    +0.000 OA
ATOM      2  C   UNL     1       2.241   7.888  18.396  0.00  0.00    +0.000 C 
ATOM      3  N   UNL     1       1.459   8.929  17.904  0.00  0.00    +0.000 N 
ATOM      4  H   UNL     1       1.271   8.908  16.906  0.00  0.00    +0.000 HD
ENDROOT
BRANCH   3   5
ATOM      5  C   UNL     1       0.754   9.892  18.684  0.00  0.00    +0.000 A 
ATOM      6  C   UNL     1       1.374  10.510  19.777  0.00  0.00    +0.000 A 
ATOM      7  C   UNL     1       0.689  11.428  20.565  0.00  0.00    +0.000 A 
ATOM      8  C   UNL     1      -0.628  11.749  20.260  0.00  0.00    +0.000 A 
ATOM      9  C   UNL     1      -1.276  11.192  19.172  0.00  0.00    +0.000 A 
ATOM     10  N   UNL     1      -2.546  11.580  18.962  0.00  0.00    +0.000 NA
ATOM     11  C   UNL     1      -3.210  11.057  17.915  0.00  0.00    +0.000 A 
ATOM     12  C   UNL     1      -2.652  10.151  17.040  0.00  0.00    +0.000 A 
ATOM     13  C   UNL     1      -1.336   9.750  17.260  0.00  0.00    +0.000 A 
ATOM     14  C   UNL     1      -0.591  10.258  18.352  0.00  0.00    +0.000 A 
ENDBRANCH   3   5
BRANCH   2  15
ATOM     15  C   UNL     1       2.997   7.115  17.312  0.00  0.00    +0.000 C 
BRANCH  15  16
ATOM     16  N   UNL     1       3.755   6.002  17.861  0.00  0.00    +0.000 N 
ATOM     17  C   UNL     1       5.116   6.191  18.038  0.00  0.00    +0.000 A 
ATOM     18  O   UNL     1       5.738   7.192  17.702  0.00  0.00    +0.000 OA
ATOM     19  C   UNL     1       5.867   5.069  18.706  0.00  0.00    +0.000 A 
ATOM     20  N   UNL     1       5.337   3.947  19.072  0.00  0.00    +0.000 NA
ATOM     21  C   UNL     1       3.966   3.767  18.821  0.00  0.00    +0.000 A 
ATOM     22  C   UNL     1       3.402   2.544  19.204  0.00  0.00    +0.000 A 
ATOM     23  C   UNL     1       2.048   2.287  19.000  0.00  0.00    +0.000 A 
ATOM     24  C   UNL     1       1.251   3.252  18.391  0.00  0.00    +0.000 A 
ATOM     25  C   UNL     1       1.801   4.475  17.995  0.00  0.00    +0.000 A 
ATOM     26  C   UNL     1       3.158   4.755  18.217  0.00  0.00    +0.000 A 
ENDBRANCH  15  16
ENDBRANCH   2  15
TORSDOF 3
ENDMDL
MODEL 5
REMARK VINA RESULT:      -7.8      2.214      7.984
REMARK  Name = 
REMARK  3 active torsions:
REMARK  status: ('A' for Active; 'I' for Inactive)
REMARK    1  A    between atoms: C_2  and  C_3
REMARK    2  A    between atoms: C_3  and  N_4
REMARK    3  A    between atoms: N_15  and  C_16
REMARK                            x       y       z     vdW  Elec       q    Type
REMARK                         _______ _______ _______ _____ _____    ______ ____
ROOT
ATOM      1  O   UNL     1       2.967   7.579  19.855  0.00  0.00    +0.000 OA
ATOM      2  C   UNL     1       2.263   7.576  18.848  0.00  0.00    +0.000 C 
ATOM      3  N   UNL     1       1.355   8.566  18.483  0.00  0.00    +0.000 N 
ATOM      4  H   UNL     1       0.646   8.290  17.810  0.00  0.00    +0.000 HD
ENDROOT
BRANCH   3   5
ATOM      5  C   UNL     1       1.212   9.844  19.098  0.00  0.00    +0.000 A 
ATOM      6  C   UNL     1       1.667  10.998  18.449  0.00  0.00    +0.000 A 
ATOM      7  C   UNL     1       1.562  12.248  19.049  0.00  0.00    +0.000 A 
ATOM      8  C   UNL     1       0.985  12.359  20.309  0.00  0.00    +0.000 A 
ATOM      9  C   UNL     1       0.489  11.256  20.979  0.00  0.00    +0.000 A 
ATOM     10  N   UNL     1      -0.057  11.478  22.187  0.00  0.00    +0.000 NA
ATOM     11  C   UNL     1      -0.548  10.428  22.870  0.00  0.00    +0.000 A 
ATOM     12  C   UNL     1      -0.527   9.136  22.392  0.00  0.00    +0.000 A 
ATOM     13  C   UNL     1       0.040   8.908  21.140  0.00  0.00    +0.000 A 
ATOM     14  C   UNL     1       0.582   9.972  20.379  0.00  0.00    +0.000 A 
ENDBRANCH   3   5
BRANCH   2  15
ATOM     15  C   UNL     1       2.283   6.374  17.901  0.00  0.00    +0.000 C 
BRANCH  15  16
ATOM     16  N   UNL     1       3.150   5.312  18.384  0.00  0.00    +0.000 N 
ATOM     17  C   UNL     1       4.429   5.250  17.855  0.00  0.00    +0.000 A 
ATOM     18  O   UNL     1       4.858   5.975  16.963  0.00  0.00    +0.000 OA
ATOM     19  C   UNL     1       5.350   4.212  18.443  0.00  0.00    +0.000 A 
ATOM     20  N   UNL     1       5.009   3.364  19.358  0.00  0.00    +0.000 NA
ATOM     21  C   UNL     1       3.685   3.415  19.827  0.00  0.00    +0.000 A 
ATOM     22  C   UNL     1       3.318   2.483  20.806  0.00  0.00    +0.000 A 
ATOM     23  C   UNL     1       2.029   2.471  21.332  0.00  0.00    +0.000 A 
ATOM     24  C   UNL     1       1.089   3.386  20.866  0.00  0.00    +0.000 A 
ATOM     25  C   UNL     1       1.438   4.318  19.884  0.00  0.00    +0.000 A 
ATOM     26  C   UNL     1       2.740   4.356  19.363  0.00  0.00    +0.000 A 
ENDBRANCH  15  16
ENDBRANCH   2  15
TORSDOF 3
ENDMDL
MODEL 6
REMARK VINA RESULT:      -7.8      1.239      2.355
REMARK  Name = 
REMARK  3 active torsions:
REMARK  status: ('A' for Active; 'I' for Inactive)
REMARK    1  A    between atoms: C_2  and  C_3
REMARK    2  A    between atoms: C_3  and  N_4
REMARK    3  A    between atoms: N_15  and  C_16
REMARK                            x       y       z     vdW  Elec       q    Type
REMARK                         _______ _______ _______ _____ _____    ______ ____
ROOT
ATOM      1  O   UNL     1      -0.106   7.648  21.408  0.00  0.00    +0.000 OA
ATOM      2  C   UNL     1       0.979   8.155  21.133  0.00  0.00    +0.000 C 
ATOM      3  N   UNL     1       2.078   7.491  20.596  0.00  0.00    +0.000 N 
ATOM      4  H   UNL     1       2.973   7.957  20.706  0.00  0.00    +0.000 HD
ENDROOT
BRANCH   3   5
ATOM      5  C   UNL     1       2.090   6.159  20.089  0.00  0.00    +0.000 A 
ATOM      6  C   UNL     1       1.316   5.162  20.696  0.00  0.00    +0.000 A 
ATOM      7  C   UNL     1       1.342   3.852  20.232  0.00  0.00    +0.000 A 
ATOM      8  C   UNL     1       2.138   3.524  19.141  0.00  0.00    +0.000 A 
ATOM      9  C   UNL     1       2.895   4.477  18.484  0.00  0.00    +0.000 A 
ATOM     10  N   UNL     1       3.620   4.054  17.434  0.00  0.00    +0.000 NA
ATOM     11  C   UNL     1       4.372   4.952  16.772  0.00  0.00    +0.000 A 
ATOM     12  C   UNL     1       4.431   6.286  17.109  0.00  0.00    +0.000 A 
ATOM     13  C   UNL     1       3.679   6.723  18.198  0.00  0.00    +0.000 A 
ATOM     14  C   UNL     1       2.876   5.821  18.940  0.00  0.00    +0.000 A 
ENDBRANCH   3   5
BRANCH   2  15
ATOM     15  C   UNL     1       1.239   9.630  21.449  0.00  0.00    +0.000 C 
BRANCH  15  16
ATOM     16  N   UNL     1       0.340  10.512  20.721  0.00  0.00    +0.000 N 
ATOM     17  C   UNL     1       0.574  10.674  19.366  0.00  0.00    +0.000 A 
ATOM     18  O   UNL     1       1.519  10.191  18.751  0.00  0.00    +0.000 OA
ATOM     19  C   UNL     1      -0.428  11.505  18.606  0.00  0.00    +0.000 A 
ATOM     20  N   UNL     1      -1.444  12.100  19.143  0.00  0.00    +0.000 NA
ATOM     21  C   UNL     1      -1.615  11.964  20.531  0.00  0.00    +0.000 A 
ATOM     22  C   UNL     1      -2.707  12.624  21.108  0.00  0.00    +0.000 A 
ATOM     23  C   UNL     1      -2.954  12.534  22.476  0.00  0.00    +0.000 A 
ATOM     24  C   UNL     1      -2.095  11.791  23.281  0.00  0.00    +0.000 A 
ATOM     25  C   UNL     1      -0.996  11.132  22.721  0.00  0.00    +0.000 A 
ATOM     26  C   UNL     1      -0.749  11.196  21.342  0.00  0.00    +0.000 A 
ENDBRANCH  15  16
ENDBRANCH   2  15
TORSDOF 3
ENDMDL
MODEL 7
REMARK VINA RESULT:      -7.8      2.081      8.261
REMARK  Name = 
REMARK  3 active torsions:
REMARK  status: ('A' for Active; 'I' for Inactive)
REMARK    1  A    between atoms: C_2  and  C_3
REMARK    2  A    between atoms: C_3  and  N_4
REMARK    3  A    between atoms: N_15  and  C_16
REMARK                            x       y       z     vdW  Elec       q    Type
REMARK                         _______ _______ _______ _____ _____    ______ ____
ROOT
ATOM      1  O   UNL     1       2.938   7.688  18.328  0.00  0.00    +0.000 OA
ATOM      2  C   UNL     1       2.493   7.225  19.375  0.00  0.00    +0.000 C 
ATOM      3  N   UNL     1       1.646   7.881  20.264  0.00  0.00    +0.000 N 
ATOM      4  H   UNL     1       1.611   7.499  21.204  0.00  0.00    +0.000 HD
ENDROOT
BRANCH   3   5
ATOM      5  C   UNL     1       0.987   9.124  20.035  0.00  0.00    +0.000 A 
ATOM      6  C   UNL     1       1.047   9.738  18.777  0.00  0.00    +0.000 A 
ATOM      7  C   UNL     1       0.435  10.965  18.549  0.00  0.00    +0.000 A 
ATOM      8  C   UNL     1      -0.257  11.591  19.578  0.00  0.00    +0.000 A 
ATOM      9  C   UNL     1      -0.375  11.013  20.829  0.00  0.00    +0.000 A 
ATOM     10  N   UNL     1      -1.076  11.699  21.748  0.00  0.00    +0.000 NA
ATOM     11  C   UNL     1      -1.210  11.169  22.977  0.00  0.00    +0.000 A 
ATOM     12  C   UNL     1      -0.673   9.953  23.342  0.00  0.00    +0.000 A 
ATOM     13  C   UNL     1       0.054   9.244  22.387  0.00  0.00    +0.000 A 
ATOM     14  C   UNL     1       0.237   9.756  21.079  0.00  0.00    +0.000 A 
ENDBRANCH   3   5
BRANCH   2  15
ATOM     15  C   UNL     1       2.924   5.832  19.842  0.00  0.00    +0.000 C 
BRANCH  15  16
ATOM     16  N   UNL     1       3.507   5.050  18.764  0.00  0.00    +0.000 N 
ATOM     17  C   UNL     1       2.637   4.315  17.975  0.00  0.00    +0.000 A 
ATOM     18  O   UNL     1       1.429   4.217  18.161  0.00  0.00    +0.000 OA
ATOM     19  C   UNL     1       3.244   3.595  16.799  0.00  0.00    +0.000 A 
ATOM     20  N   UNL     1       4.506   3.585  16.517  0.00  0.00    +0.000 NA
ATOM     21  C   UNL     1       5.366   4.292  17.375  0.00  0.00    +0.000 A 
ATOM     22  C   UNL     1       6.734   4.264  17.073  0.00  0.00    +0.000 A 
ATOM     23  C   UNL     1       7.654   4.945  17.867  0.00  0.00    +0.000 A 
ATOM     24  C   UNL     1       7.210   5.648  18.983  0.00  0.00    +0.000 A 
ATOM     25  C   UNL     1       5.848   5.679  19.302  0.00  0.00    +0.000 A 
ATOM     26  C   UNL     1       4.909   5.017  18.497  0.00  0.00    +0.000 A 
ENDBRANCH  15  16
ENDBRANCH   2  15
TORSDOF 3
ENDMDL
MODEL 8
REMARK VINA RESULT:      -7.7      2.484      7.904
REMARK  Name = 
REMARK  3 active torsions:
REMARK  status: ('A' for Active; 'I' for Inactive)
REMARK    1  A    between atoms: C_2  and  C_3
REMARK    2  A    between atoms: C_3  and  N_4
REMARK    3  A    between atoms: N_15  and  C_16
REMARK                            x       y       z     vdW  Elec       q    Type
REMARK                         _______ _______ _______ _____ _____    ______ ____
ROOT
ATOM      1  O   UNL     1       2.443   7.351  19.943  0.00  0.00    +0.000 OA
ATOM      2  C   UNL     1       2.266   7.747  18.794  0.00  0.00    +0.000 C 
ATOM      3  N   UNL     1       1.532   8.869  18.420  0.00  0.00    +0.000 N 
ATOM      4  H   UNL     1       1.227   8.896  17.452  0.00  0.00    +0.000 HD
ENDROOT
BRANCH   3   5
ATOM      5  C   UNL     1       1.016   9.867  19.298  0.00  0.00    +0.000 A 
ATOM      6  C   UNL     1       0.149   9.515  20.340  0.00  0.00    +0.000 A 
ATOM      7  C   UNL     1      -0.386  10.481  21.185  0.00  0.00    +0.000 A 
ATOM      8  C   UNL     1      -0.048  11.817  21.004  0.00  0.00    +0.000 A 
ATOM      9  C   UNL     1       0.830  12.214  20.011  0.00  0.00    +0.000 A 
ATOM     10  N   UNL     1       1.095  13.529  19.931  0.00  0.00    +0.000 NA
ATOM     11  C   UNL     1       1.942  13.954  18.976  0.00  0.00    +0.000 A 
ATOM     12  C   UNL     1       2.560  13.109  18.080  0.00  0.00    +0.000 A 
ATOM     13  C   UNL     1       2.283  11.746  18.165  0.00  0.00    +0.000 A 
ATOM     14  C   UNL     1       1.391  11.241  19.143  0.00  0.00    +0.000 A 
ENDBRANCH   3   5
BRANCH   2  15
ATOM     15  C   UNL     1       2.814   6.943  17.613  0.00  0.00    +0.000 C 
BRANCH  15  16
ATOM     16  N   UNL     1       3.598   5.798  18.047  0.00  0.00    +0.000 N 
ATOM     17  C   UNL     1       4.972   5.961  18.115  0.00  0.00    +0.000 A 
ATOM     18  O   UNL     1       5.580   6.969  17.770  0.00  0.00    +0.000 OA
ATOM     19  C   UNL     1       5.759   4.801  18.668  0.00  0.00    +0.000 A 
ATOM     20  N   UNL     1       5.243   3.671  19.030  0.00  0.00    +0.000 NA
ATOM     21  C   UNL     1       3.853   3.520  18.889  0.00  0.00    +0.000 A 
ATOM     22  C   UNL     1       3.304   2.288  19.267  0.00  0.00    +0.000 A 
ATOM     23  C   UNL     1       1.934   2.058  19.168  0.00  0.00    +0.000 A 
ATOM     24  C   UNL     1       1.104   3.058  18.671  0.00  0.00    +0.000 A 
ATOM     25  C   UNL     1       1.638   4.291  18.283  0.00  0.00    +0.000 A 
ATOM     26  C   UNL     1       3.013   4.544  18.399  0.00  0.00    +0.000 A 
ENDBRANCH  15  16
ENDBRANCH   2  15
TORSDOF 3
ENDMDL
MODEL 9
REMARK VINA RESULT:      -7.7      1.963      7.931
REMARK  Name = 
REMARK  3 active torsions:
REMARK  status: ('A' for Active; 'I' for Inactive)
REMARK    1  A    between atoms: C_2  and  C_3
REMARK    2  A    between atoms: C_3  and  N_4
REMARK    3  A    between atoms: N_15  and  C_16
REMARK                            x       y       z     vdW  Elec       q    Type
REMARK                         _______ _______ _______ _____ _____    ______ ____
ROOT
ATOM      1  O   UNL     1       1.730   7.354  17.491  0.00  0.00    +0.000 OA
ATOM      2  C   UNL     1       2.417   7.575  18.485  0.00  0.00    +0.000 C 
ATOM      3  N   UNL     1       2.208   8.591  19.414  0.00  0.00    +0.000 N 
ATOM      4  H   UNL     1       3.007   8.833  19.992  0.00  0.00    +0.000 HD
ENDROOT
BRANCH   3   5
ATOM      5  C   UNL     1       1.061   9.434  19.493  0.00  0.00    +0.000 A 
ATOM      6  C   UNL     1       0.515   9.999  18.334  0.00  0.00    +0.000 A 
ATOM      7  C   UNL     1      -0.585  10.847  18.400  0.00  0.00    +0.000 A 
ATOM      8  C   UNL     1      -1.161  11.132  19.632  0.00  0.00    +0.000 A 
ATOM      9  C   UNL     1      -0.681  10.575  20.803  0.00  0.00    +0.000 A 
ATOM     10  N   UNL     1      -1.319  10.910  21.937  0.00  0.00    +0.000 NA
ATOM     11  C   UNL     1      -0.879  10.389  23.097  0.00  0.00    +0.000 A 
ATOM     12  C   UNL     1       0.188   9.521  23.182  0.00  0.00    +0.000 A 
ATOM     13  C   UNL     1       0.849   9.175  22.005  0.00  0.00    +0.000 A 
ATOM     14  C   UNL     1       0.437   9.701  20.755  0.00  0.00    +0.000 A 
ENDBRANCH   3   5
BRANCH   2  15
ATOM     15  C   UNL     1       3.674   6.742  18.750  0.00  0.00    +0.000 C 
BRANCH  15  16
ATOM     16  N   UNL     1       3.501   5.353  18.358  0.00  0.00    +0.000 N 
ATOM     17  C   UNL     1       4.121   4.943  17.189  0.00  0.00    +0.000 A 
ATOM     18  O   UNL     1       4.740   5.677  16.426  0.00  0.00    +0.000 OA
ATOM     19  C   UNL     1       4.022   3.478  16.853  0.00  0.00    +0.000 A 
ATOM     20  N   UNL     1       3.366   2.609  17.553  0.00  0.00    +0.000 NA
ATOM     21  C   UNL     1       2.698   3.071  18.699  0.00  0.00    +0.000 A 
ATOM     22  C   UNL     1       1.977   2.128  19.442  0.00  0.00    +0.000 A 
ATOM     23  C   UNL     1       1.295   2.501  20.597  0.00  0.00    +0.000 A 
ATOM     24  C   UNL     1       1.315   3.831  21.008  0.00  0.00    +0.000 A 
ATOM     25  C   UNL     1       2.025   4.786  20.273  0.00  0.00    +0.000 A 
ATOM     26  C   UNL     1       2.736   4.419  19.121  0.00  0.00    +0.000 A 
ENDBRANCH  15  16
ENDBRANCH   2  15
TORSDOF 3
ENDMDL
