MODEL 1
REMARK VINA RESULT:      -8.8      0.000      0.000
REMARK  Name = 
REMARK  7 active torsions:
REMARK  status: ('A' for Active; 'I' for Inactive)
REMARK    1  A    between atoms: C_1  and  C_2
REMARK    2  A    between atoms: C_2  and  S_3
REMARK    3  A    between atoms: C_2  and  C_10
REMARK    4  A    between atoms: S_3  and  C_4
REMARK    5  A    between atoms: N_8  and  C_9
REMARK    6  A    between atoms: C_14  and  N_15
REMARK    7  A    between atoms: N_15  and  C_16
REMARK                            x       y       z     vdW  Elec       q    Type
REMARK                         _______ _______ _______ _____ _____    ______ ____
ROOT
ATOM      1  C   UNL     1       3.797   5.478  17.540  0.00  0.00    +0.000 A 
ATOM      2  C   UNL     1       3.132   4.241  17.493  0.00  0.00    +0.000 A 
ATOM      3  C   UNL     1       2.147   3.923  18.420  0.00  0.00    +0.000 A 
ATOM      4  C   UNL     1       1.803   4.844  19.407  0.00  0.00    +0.000 A 
ATOM      5  C   UNL     1       2.425   6.099  19.489  0.00  0.00    +0.000 A 
ATOM      6  C   UNL     1       3.404   6.409  18.526  0.00  0.00    +0.000 A 
ENDROOT
BRANCH   1   8
ATOM      7  C   UNL     1       5.942   6.780  17.252  0.00  0.00    +0.000 C 
ATOM      8  C   UNL     1       4.963   5.792  16.596  0.00  0.00    +0.000 C 
BRANCH   8   9
ATOM      9  S   UNL     1       5.787   4.237  16.059  0.00  0.00    +0.000 S 
BRANCH   9  10
ATOM     10  C   UNL     1       6.730   4.755  14.702  0.00  0.00    +0.000 A 
ATOM     11  N   UNL     1       7.761   5.569  14.718  0.00  0.00    +0.000 NA
ATOM     12  N   UNL     1       8.302   5.598  13.453  0.00  0.00    +0.000 NA
ATOM     13  C   UNL     1       7.554   4.835  12.688  0.00  0.00    +0.000 A 
ATOM     14  N   UNL     1       6.525   4.324  13.422  0.00  0.00    +0.000 N 
ATOM     15  C   UNL     1       5.446   3.529  12.899  0.00  0.00    +0.000 C 
ENDBRANCH   9  10
ENDBRANCH   8   9
ENDBRANCH   1   8
BRANCH   5  16
ATOM     16  N   UNL     1       2.153   7.012  20.529  0.00  0.00    +0.000 N 
ATOM     17  H   UNL     1       2.473   6.758  21.460  0.00  0.00    +0.000 HD
BRANCH  16  18
ATOM     18  C   UNL     1       1.390   8.153  20.455  0.00  0.00    +0.000 C 
ATOM     19  C   UNL     1       1.152   9.117  21.342  0.00  0.00    +0.000 C 
ATOM     20  N   UNL     1       1.426   9.118  22.693  0.00  0.00    +0.000 NA
ATOM     21  N   UNL     1       0.611   9.877  23.321  0.00  0.00    +0.000 NA
ATOM     22  C   UNL     1      -0.173  10.535  22.343  0.00  0.00    +0.000 A 
ATOM     23  C   UNL     1      -1.221  11.418  22.521  0.00  0.00    +0.000 A 
ATOM     24  C   UNL     1      -1.807  11.995  21.382  0.00  0.00    +0.000 A 
ATOM     25  C   UNL     1      -1.309  11.721  20.099  0.00  0.00    +0.000 A 
ATOM     26  C   UNL     1      -0.282  10.799  19.923  0.00  0.00    +0.000 A 
ATOM     27  C   UNL     1       0.223  10.187  21.066  0.00  0.00    +0.000 A 
ENDBRANCH  16  18
ENDBRANCH   5  16
TORSDOF 5
ENDMDL
MODEL 2
REMARK VINA RESULT:      -8.5      2.428      3.118
REMARK  Name = 
REMARK  7 active torsions:
REMARK  status: ('A' for Active; 'I' for Inactive)
REMARK    1  A    between atoms: C_1  and  C_2
REMARK    2  A    between atoms: C_2  and  S_3
REMARK    3  A    between atoms: C_2  and  C_10
REMARK    4  A    between atoms: S_3  and  C_4
REMARK    5  A    between atoms: N_8  and  C_9
REMARK    6  A    between atoms: C_14  and  N_15
REMARK    7  A    between atoms: N_15  and  C_16
REMARK                            x       y       z     vdW  Elec       q    Type
REMARK                         _______ _______ _______ _____ _____    ______ ____
ROOT
ATOM      1  C   UNL     1       3.064   4.164  18.790  0.00  0.00    +0.000 A 
ATOM      2  C   UNL     1       2.257   3.058  19.111  0.00  0.00    +0.000 A 
ATOM      3  C   UNL     1       1.298   3.142  20.112  0.00  0.00    +0.000 A 
ATOM      4  C   UNL     1       1.120   4.337  20.803  0.00  0.00    +0.000 A 
ATOM      5  C   UNL     1       1.888   5.475  20.512  0.00  0.00    +0.000 A 
ATOM      6  C   UNL     1       2.839   5.376  19.479  0.00  0.00    +0.000 A 
ENDROOT
BRANCH   1   8
ATOM      7  C   UNL     1       3.721   3.336  16.497  0.00  0.00    +0.000 C 
ATOM      8  C   UNL     1       4.203   4.050  17.770  0.00  0.00    +0.000 C 
BRANCH   8   9
ATOM      9  S   UNL     1       4.917   5.708  17.421  0.00  0.00    +0.000 S 
BRANCH   9  10
ATOM     10  C   UNL     1       6.262   5.781  18.509  0.00  0.00    +0.000 A 
ATOM     11  N   UNL     1       6.429   5.084  19.610  0.00  0.00    +0.000 NA
ATOM     12  N   UNL     1       7.692   5.343  20.092  0.00  0.00    +0.000 NA
ATOM     13  C   UNL     1       8.244   6.229  19.293  0.00  0.00    +0.000 A 
ATOM     14  N   UNL     1       7.360   6.568  18.312  0.00  0.00    +0.000 N 
ATOM     15  C   UNL     1       7.575   7.586  17.317  0.00  0.00    +0.000 C 
ENDBRANCH   9  10
ENDBRANCH   8   9
ENDBRANCH   1   8
BRANCH   5  16
ATOM     16  N   UNL     1       1.783   6.670  21.254  0.00  0.00    +0.000 N 
ATOM     17  H   UNL     1       2.097   6.640  22.221  0.00  0.00    +0.000 HD
BRANCH  16  18
ATOM     18  C   UNL     1       1.186   7.844  20.861  0.00  0.00    +0.000 C 
ATOM     19  C   UNL     1       0.959   8.982  21.514  0.00  0.00    +0.000 C 
ATOM     20  N   UNL     1       1.055   9.222  22.868  0.00  0.00    +0.000 NA
ATOM     21  N   UNL     1       0.269  10.167  23.218  0.00  0.00    +0.000 NA
ATOM     22  C   UNL     1      -0.294  10.694  22.031  0.00  0.00    +0.000 A 
ATOM     23  C   UNL     1      -1.237  11.694  21.887  0.00  0.00    +0.000 A 
ATOM     24  C   UNL     1      -1.594  12.090  20.587  0.00  0.00    +0.000 A 
ATOM     25  C   UNL     1      -0.974  11.521  19.464  0.00  0.00    +0.000 A 
ATOM     26  C   UNL     1      -0.057  10.485  19.615  0.00  0.00    +0.000 A 
ATOM     27  C   UNL     1       0.216  10.064  20.911  0.00  0.00    +0.000 A 
ENDBRANCH  16  18
ENDBRANCH   5  16
TORSDOF 5
ENDMDL
MODEL 3
REMARK VINA RESULT:      -8.4      1.616      1.926
REMARK  Name = 
REMARK  7 active torsions:
REMARK  status: ('A' for Active; 'I' for Inactive)
REMARK    1  A    between atoms: C_1  and  C_2
REMARK    2  A    between atoms: C_2  and  S_3
REMARK    3  A    between atoms: C_2  and  C_10
REMARK    4  A    between atoms: S_3  and  C_4
REMARK    5  A    between atoms: N_8  and  C_9
REMARK    6  A    between atoms: C_14  and  N_15
REMARK    7  A    between atoms: N_15  and  C_16
REMARK                            x       y       z     vdW  Elec       q    Type
REMARK                         _______ _______ _______ _____ _____    ______ ____
ROOT
ATOM      1  C   UNL     1       4.679   5.746  17.186  0.00  0.00    +0.000 A 
ATOM      2  C   UNL     1       3.925   4.601  17.499  0.00  0.00    +0.000 A 
ATOM      3  C   UNL     1       2.669   4.710  18.081  0.00  0.00    +0.000 A 
ATOM      4  C   UNL     1       2.138   5.969  18.352  0.00  0.00    +0.000 A 
ATOM      5  C   UNL     1       2.842   7.144  18.046  0.00  0.00    +0.000 A 
ATOM      6  C   UNL     1       4.104   7.011  17.435  0.00  0.00    +0.000 A 
ENDROOT
BRANCH   1   8
ATOM      7  C   UNL     1       7.128   5.729  17.801  0.00  0.00    +0.000 C 
ATOM      8  C   UNL     1       6.111   5.635  16.652  0.00  0.00    +0.000 C 
BRANCH   8   9
ATOM      9  S   UNL     1       6.308   4.097  15.662  0.00  0.00    +0.000 S 
BRANCH   9  10
ATOM     10  C   UNL     1       6.993   4.681  14.183  0.00  0.00    +0.000 A 
ATOM     11  N   UNL     1       7.939   5.583  14.050  0.00  0.00    +0.000 NA
ATOM     12  N   UNL     1       8.285   5.646  12.719  0.00  0.00    +0.000 NA
ATOM     13  C   UNL     1       7.505   4.810  12.070  0.00  0.00    +0.000 A 
ATOM     14  N   UNL     1       6.644   4.219  12.946  0.00  0.00    +0.000 N 
ATOM     15  C   UNL     1       5.576   3.325  12.585  0.00  0.00    +0.000 C 
ENDBRANCH   9  10
ENDBRANCH   8   9
ENDBRANCH   1   8
BRANCH   5  16
ATOM     16  N   UNL     1       2.362   8.425  18.387  0.00  0.00    +0.000 N 
ATOM     17  H   UNL     1       2.700   9.207  17.830  0.00  0.00    +0.000 HD
BRANCH  16  18
ATOM     18  C   UNL     1       1.584   8.761  19.469  0.00  0.00    +0.000 C 
ATOM     19  C   UNL     1       0.584   9.630  19.604  0.00  0.00    +0.000 C 
ATOM     20  N   UNL     1       0.196  10.624  18.731  0.00  0.00    +0.000 NA
ATOM     21  N   UNL     1      -0.368  11.585  19.359  0.00  0.00    +0.000 NA
ATOM     22  C   UNL     1      -0.497  11.173  20.708  0.00  0.00    +0.000 A 
ATOM     23  C   UNL     1      -0.999  11.877  21.786  0.00  0.00    +0.000 A 
ATOM     24  C   UNL     1      -1.083  11.224  23.027  0.00  0.00    +0.000 A 
ATOM     25  C   UNL     1      -0.715   9.876  23.159  0.00  0.00    +0.000 A 
ATOM     26  C   UNL     1      -0.172   9.185  22.079  0.00  0.00    +0.000 A 
ATOM     27  C   UNL     1      -0.029   9.885  20.886  0.00  0.00    +0.000 A 
ENDBRANCH  16  18
ENDBRANCH   5  16
TORSDOF 5
ENDMDL
MODEL 4
REMARK VINA RESULT:      -8.4      2.184      2.770
REMARK  Name = 
REMARK  7 active torsions:
REMARK  status: ('A' for Active; 'I' for Inactive)
REMARK    1  A    between atoms: C_1  and  C_2
REMARK    2  A    between atoms: C_2  and  S_3
REMARK    3  A    between atoms: C_2  and  C_10
REMARK    4  A    between atoms: S_3  and  C_4
REMARK    5  A    between atoms: N_8  and  C_9
REMARK    6  A    between atoms: C_14  and  N_15
REMARK    7  A    between atoms: N_15  and  C_16
REMARK                            x       y       z     vdW  Elec       q    Type
REMARK                         _______ _______ _______ _____ _____    ______ ____
ROOT
ATOM      1  C   UNL     1       2.940   3.475  19.222  0.00  0.00    +0.000 A 
ATOM      2  C   UNL     1       1.746   2.756  19.403  0.00  0.00    +0.000 A 
ATOM      3  C   UNL     1       0.666   3.323  20.067  0.00  0.00    +0.000 A 
ATOM      4  C   UNL     1       0.757   4.624  20.554  0.00  0.00    +0.000 A 
ATOM      5  C   UNL     1       1.920   5.391  20.386  0.00  0.00    +0.000 A 
ATOM      6  C   UNL     1       2.995   4.806  19.690  0.00  0.00    +0.000 A 
ENDROOT
BRANCH   1   8
ATOM      7  C   UNL     1       3.943   1.316  18.379  0.00  0.00    +0.000 C 
ATOM      8  C   UNL     1       4.176   2.820  18.595  0.00  0.00    +0.000 C 
BRANCH   8   9
ATOM      9  S   UNL     1       4.643   3.690  17.043  0.00  0.00    +0.000 S 
BRANCH   9  10
ATOM     10  C   UNL     1       5.892   4.768  17.571  0.00  0.00    +0.000 A 
ATOM     11  N   UNL     1       6.869   4.499  18.407  0.00  0.00    +0.000 NA
ATOM     12  N   UNL     1       7.714   5.584  18.439  0.00  0.00    +0.000 NA
ATOM     13  C   UNL     1       7.202   6.505  17.652  0.00  0.00    +0.000 A 
ATOM     14  N   UNL     1       6.030   6.051  17.125  0.00  0.00    +0.000 N 
ATOM     15  C   UNL     1       5.137   6.821  16.301  0.00  0.00    +0.000 C 
ENDBRANCH   9  10
ENDBRANCH   8   9
ENDBRANCH   1   8
BRANCH   5  16
ATOM     16  N   UNL     1       2.066   6.679  20.942  0.00  0.00    +0.000 N 
ATOM     17  H   UNL     1       2.693   6.768  21.738  0.00  0.00    +0.000 HD
BRANCH  16  18
ATOM     18  C   UNL     1       1.359   7.811  20.614  0.00  0.00    +0.000 C 
ATOM     19  C   UNL     1       1.147   8.945  21.279  0.00  0.00    +0.000 C 
ATOM     20  N   UNL     1       1.391   9.211  22.610  0.00  0.00    +0.000 NA
ATOM     21  N   UNL     1       0.599  10.115  23.045  0.00  0.00    +0.000 NA
ATOM     22  C   UNL     1      -0.132  10.591  21.930  0.00  0.00    +0.000 A 
ATOM     23  C   UNL     1      -1.141  11.534  21.892  0.00  0.00    +0.000 A 
ATOM     24  C   UNL     1      -1.675  11.889  20.642  0.00  0.00    +0.000 A 
ATOM     25  C   UNL     1      -1.163  11.339  19.457  0.00  0.00    +0.000 A 
ATOM     26  C   UNL     1      -0.176  10.359  19.505  0.00  0.00    +0.000 A 
ATOM     27  C   UNL     1       0.275   9.973  20.763  0.00  0.00    +0.000 A 
ENDBRANCH  16  18
ENDBRANCH   5  16
TORSDOF 5
ENDMDL
MODEL 5
REMARK VINA RESULT:      -8.4      3.436     10.209
REMARK  Name = 
REMARK  7 active torsions:
REMARK  status: ('A' for Active; 'I' for Inactive)
REMARK    1  A    between atoms: C_1  and  C_2
REMARK    2  A    between atoms: C_2  and  S_3
REMARK    3  A    between atoms: C_2  and  C_10
REMARK    4  A    between atoms: S_3  and  C_4
REMARK    5  A    between atoms: N_8  and  C_9
REMARK    6  A    between atoms: C_14  and  N_15
REMARK    7  A    between atoms: N_15  and  C_16
REMARK                            x       y       z     vdW  Elec       q    Type
REMARK                         _______ _______ _______ _____ _____    ______ ____
ROOT
ATOM      1  C   UNL     1       0.373   9.507  20.702  0.00  0.00    +0.000 A 
ATOM      2  C   UNL     1       0.391  10.277  19.526  0.00  0.00    +0.000 A 
ATOM      3  C   UNL     1       1.154   9.889  18.432  0.00  0.00    +0.000 A 
ATOM      4  C   UNL     1       1.906   8.719  18.491  0.00  0.00    +0.000 A 
ATOM      5  C   UNL     1       1.910   7.906  19.635  0.00  0.00    +0.000 A 
ATOM      6  C   UNL     1       1.112   8.304  20.724  0.00  0.00    +0.000 A 
ENDROOT
BRANCH   1   8
ATOM      7  C   UNL     1       0.284   9.419  23.225  0.00  0.00    +0.000 C 
ATOM      8  C   UNL     1      -0.372   9.984  21.954  0.00  0.00    +0.000 C 
BRANCH   8   9
ATOM      9  S   UNL     1      -0.479  11.820  21.974  0.00  0.00    +0.000 S 
BRANCH   9  10
ATOM     10  C   UNL     1      -2.155  12.101  22.307  0.00  0.00    +0.000 A 
ATOM     11  N   UNL     1      -2.752  12.041  23.475  0.00  0.00    +0.000 NA
ATOM     12  N   UNL     1      -4.049  12.472  23.315  0.00  0.00    +0.000 NA
ATOM     13  C   UNL     1      -4.219  12.740  22.040  0.00  0.00    +0.000 A 
ATOM     14  N   UNL     1      -3.068  12.473  21.361  0.00  0.00    +0.000 N 
ATOM     15  C   UNL     1      -2.909  12.548  19.933  0.00  0.00    +0.000 C 
ENDBRANCH   9  10
ENDBRANCH   8   9
ENDBRANCH   1   8
BRANCH   5  16
ATOM     16  N   UNL     1       2.727   6.762  19.749  0.00  0.00    +0.000 N 
ATOM     17  H   UNL     1       2.920   6.426  20.689  0.00  0.00    +0.000 HD
BRANCH  16  18
ATOM     18  C   UNL     1       3.402   6.118  18.739  0.00  0.00    +0.000 C 
ATOM     19  C   UNL     1       4.535   5.419  18.738  0.00  0.00    +0.000 C 
ATOM     20  N   UNL     1       5.489   5.342  19.729  0.00  0.00    +0.000 NA
ATOM     21  N   UNL     1       6.640   5.086  19.233  0.00  0.00    +0.000 NA
ATOM     22  C   UNL     1       6.446   4.841  17.852  0.00  0.00    +0.000 A 
ATOM     23  C   UNL     1       7.387   4.569  16.878  0.00  0.00    +0.000 A 
ATOM     24  C   UNL     1       6.938   4.295  15.576  0.00  0.00    +0.000 A 
ATOM     25  C   UNL     1       5.567   4.249  15.281  0.00  0.00    +0.000 A 
ATOM     26  C   UNL     1       4.625   4.564  16.256  0.00  0.00    +0.000 A 
ATOM     27  C   UNL     1       5.107   4.908  17.514  0.00  0.00    +0.000 A 
ENDBRANCH  16  18
ENDBRANCH   5  16
TORSDOF 5
ENDMDL
MODEL 6
REMARK VINA RESULT:      -8.4      1.564      2.195
REMARK  Name = 
REMARK  7 active torsions:
REMARK  status: ('A' for Active; 'I' for Inactive)
REMARK    1  A    between atoms: C_1  and  C_2
REMARK    2  A    between atoms: C_2  and  S_3
REMARK    3  A    between atoms: C_2  and  C_10
REMARK    4  A    between atoms: S_3  and  C_4
REMARK    5  A    between atoms: N_8  and  C_9
REMARK    6  A    between atoms: C_14  and  N_15
REMARK    7  A    between atoms: N_15  and  C_16
REMARK                            x       y       z     vdW  Elec       q    Type
REMARK                         _______ _______ _______ _____ _____    ______ ____
ROOT
ATOM      1  C   UNL     1       3.259   3.953  19.297  0.00  0.00    +0.000 A 
ATOM      2  C   UNL     1       2.171   3.063  19.323  0.00  0.00    +0.000 A 
ATOM      3  C   UNL     1       0.979   3.413  19.944  0.00  0.00    +0.000 A 
ATOM      4  C   UNL     1       0.849   4.664  20.541  0.00  0.00    +0.000 A 
ATOM      5  C   UNL     1       1.900   5.595  20.530  0.00  0.00    +0.000 A 
ATOM      6  C   UNL     1       3.092   5.229  19.876  0.00  0.00    +0.000 A 
ENDROOT
BRANCH   1   8
ATOM      7  C   UNL     1       4.471   3.111  17.248  0.00  0.00    +0.000 C 
ATOM      8  C   UNL     1       4.616   3.534  18.719  0.00  0.00    +0.000 C 
BRANCH   8   9
ATOM      9  S   UNL     1       5.851   4.877  18.948  0.00  0.00    +0.000 S 
BRANCH   9  10
ATOM     10  C   UNL     1       6.388   5.181  17.329  0.00  0.00    +0.000 A 
ATOM     11  N   UNL     1       7.455   4.688  16.743  0.00  0.00    +0.000 NA
ATOM     12  N   UNL     1       7.430   5.068  15.421  0.00  0.00    +0.000 NA
ATOM     13  C   UNL     1       6.368   5.825  15.249  0.00  0.00    +0.000 A 
ATOM     14  N   UNL     1       5.712   5.961  16.436  0.00  0.00    +0.000 N 
ATOM     15  C   UNL     1       4.565   6.801  16.658  0.00  0.00    +0.000 C 
ENDBRANCH   9  10
ENDBRANCH   8   9
ENDBRANCH   1   8
BRANCH   5  16
ATOM     16  N   UNL     1       1.821   6.833  21.200  0.00  0.00    +0.000 N 
ATOM     17  H   UNL     1       2.210   6.874  22.140  0.00  0.00    +0.000 HD
BRANCH  16  18
ATOM     18  C   UNL     1       1.165   7.966  20.781  0.00  0.00    +0.000 C 
ATOM     19  C   UNL     1       0.912   9.120  21.395  0.00  0.00    +0.000 C 
ATOM     20  N   UNL     1       1.040   9.418  22.735  0.00  0.00    +0.000 NA
ATOM     21  N   UNL     1       0.226  10.344  23.073  0.00  0.00    +0.000 NA
ATOM     22  C   UNL     1      -0.394  10.800  21.885  0.00  0.00    +0.000 A 
ATOM     23  C   UNL     1      -1.380  11.756  21.732  0.00  0.00    +0.000 A 
ATOM     24  C   UNL     1      -1.793  12.084  20.430  0.00  0.00    +0.000 A 
ATOM     25  C   UNL     1      -1.185  11.495  19.311  0.00  0.00    +0.000 A 
ATOM     26  C   UNL     1      -0.222  10.504  19.472  0.00  0.00    +0.000 A 
ATOM     27  C   UNL     1       0.107  10.146  20.775  0.00  0.00    +0.000 A 
ENDBRANCH  16  18
ENDBRANCH   5  16
TORSDOF 5
ENDMDL
MODEL 7
REMARK VINA RESULT:      -8.4      2.088      2.338
REMARK  Name = 
REMARK  7 active torsions:
REMARK  status: ('A' for Active; 'I' for Inactive)
REMARK    1  A    between atoms: C_1  and  C_2
REMARK    2  A    between atoms: C_2  and  S_3
REMARK    3  A    between atoms: C_2  and  C_10
REMARK    4  A    between atoms: S_3  and  C_4
REMARK    5  A    between atoms: N_8  and  C_9
REMARK    6  A    between atoms: C_14  and  N_15
REMARK    7  A    between atoms: N_15  and  C_16
REMARK                            x       y       z     vdW  Elec       q    Type
REMARK                         _______ _______ _______ _____ _____    ______ ____
ROOT
ATOM      1  C   UNL     1       4.590   5.371  17.205  0.00  0.00    +0.000 A 
ATOM      2  C   UNL     1       3.781   4.250  17.465  0.00  0.00    +0.000 A 
ATOM      3  C   UNL     1       2.529   4.394  18.047  0.00  0.00    +0.000 A 
ATOM      4  C   UNL     1       2.057   5.664  18.370  0.00  0.00    +0.000 A 
ATOM      5  C   UNL     1       2.817   6.816  18.117  0.00  0.00    +0.000 A 
ATOM      6  C   UNL     1       4.074   6.650  17.506  0.00  0.00    +0.000 A 
ENDROOT
BRANCH   1   8
ATOM      7  C   UNL     1       7.017   5.063  17.831  0.00  0.00    +0.000 C 
ATOM      8  C   UNL     1       6.019   5.214  16.671  0.00  0.00    +0.000 C 
BRANCH   8   9
ATOM      9  S   UNL     1       6.107   3.817  15.478  0.00  0.00    +0.000 S 
BRANCH   9  10
ATOM     10  C   UNL     1       6.870   4.540  14.102  0.00  0.00    +0.000 A 
ATOM     11  N   UNL     1       7.762   5.504  14.105  0.00  0.00    +0.000 NA
ATOM     12  N   UNL     1       8.209   5.677  12.815  0.00  0.00    +0.000 NA
ATOM     13  C   UNL     1       7.540   4.841  12.052  0.00  0.00    +0.000 A 
ATOM     14  N   UNL     1       6.652   4.142  12.814  0.00  0.00    +0.000 N 
ATOM     15  C   UNL     1       5.677   3.212  12.308  0.00  0.00    +0.000 C 
ENDBRANCH   9  10
ENDBRANCH   8   9
ENDBRANCH   1   8
BRANCH   5  16
ATOM     16  N   UNL     1       2.396   8.103  18.512  0.00  0.00    +0.000 N 
ATOM     17  H   UNL     1       3.004   8.610  19.150  0.00  0.00    +0.000 HD
BRANCH  16  18
ATOM     18  C   UNL     1       1.192   8.706  18.234  0.00  0.00    +0.000 C 
ATOM     19  C   UNL     1       0.796   9.973  18.329  0.00  0.00    +0.000 C 
ATOM     20  N   UNL     1       1.428  11.018  18.968  0.00  0.00    +0.000 NA
ATOM     21  N   UNL     1       0.580  11.894  19.355  0.00  0.00    +0.000 NA
ATOM     22  C   UNL     1      -0.679  11.501  18.839  0.00  0.00    +0.000 A 
ATOM     23  C   UNL     1      -1.914  12.094  19.020  0.00  0.00    +0.000 A 
ATOM     24  C   UNL     1      -3.019  11.550  18.345  0.00  0.00    +0.000 A 
ATOM     25  C   UNL     1      -2.866  10.463  17.470  0.00  0.00    +0.000 A 
ATOM     26  C   UNL     1      -1.627   9.845  17.324  0.00  0.00    +0.000 A 
ATOM     27  C   UNL     1      -0.571  10.360  18.067  0.00  0.00    +0.000 A 
ENDBRANCH  16  18
ENDBRANCH   5  16
TORSDOF 5
ENDMDL
MODEL 8
REMARK VINA RESULT:      -8.3      4.898      8.356
REMARK  Name = 
REMARK  7 active torsions:
REMARK  status: ('A' for Active; 'I' for Inactive)
REMARK    1  A    between atoms: C_1  and  C_2
REMARK    2  A    between atoms: C_2  and  S_3
REMARK    3  A    between atoms: C_2  and  C_10
REMARK    4  A    between atoms: S_3  and  C_4
REMARK    5  A    between atoms: N_8  and  C_9
REMARK    6  A    between atoms: C_14  and  N_15
REMARK    7  A    between atoms: N_15  and  C_16
REMARK                            x       y       z     vdW  Elec       q    Type
REMARK                         _______ _______ _______ _____ _____    ______ ____
ROOT
ATOM      1  C   UNL     1       5.969   5.733  17.336  0.00  0.00    +0.000 A 
ATOM      2  C   UNL     1       6.731   4.972  18.240  0.00  0.00    +0.000 A 
ATOM      3  C   UNL     1       7.805   5.535  18.918  0.00  0.00    +0.000 A 
ATOM      4  C   UNL     1       8.130   6.873  18.712  0.00  0.00    +0.000 A 
ATOM      5  C   UNL     1       7.393   7.680  17.832  0.00  0.00    +0.000 A 
ATOM      6  C   UNL     1       6.294   7.097  17.172  0.00  0.00    +0.000 A 
ENDROOT
BRANCH   1   8
ATOM      7  C   UNL     1       5.436   4.468  15.216  0.00  0.00    +0.000 C 
ATOM      8  C   UNL     1       4.858   5.092  16.497  0.00  0.00    +0.000 C 
BRANCH   8   9
ATOM      9  S   UNL     1       3.912   3.880  17.506  0.00  0.00    +0.000 S 
BRANCH   9  10
ATOM     10  C   UNL     1       3.206   4.876  18.735  0.00  0.00    +0.000 A 
ATOM     11  N   UNL     1       2.975   6.167  18.673  0.00  0.00    +0.000 NA
ATOM     12  N   UNL     1       2.276   6.531  19.801  0.00  0.00    +0.000 NA
ATOM     13  C   UNL     1       2.142   5.455  20.544  0.00  0.00    +0.000 A 
ATOM     14  N   UNL     1       2.756   4.402  19.934  0.00  0.00    +0.000 N 
ATOM     15  C   UNL     1       2.904   3.087  20.499  0.00  0.00    +0.000 C 
ENDBRANCH   9  10
ENDBRANCH   8   9
ENDBRANCH   1   8
BRANCH   5  16
ATOM     16  N   UNL     1       7.754   9.012  17.544  0.00  0.00    +0.000 N 
ATOM     17  H   UNL     1       7.316   9.443  16.733  0.00  0.00    +0.000 HD
BRANCH  16  18
ATOM     18  C   UNL     1       8.729   9.762  18.158  0.00  0.00    +0.000 C 
ATOM     19  C   UNL     1       8.912  11.078  18.240  0.00  0.00    +0.000 C 
ATOM     20  N   UNL     1       8.288  12.072  17.517  0.00  0.00    +0.000 NA
ATOM     21  N   UNL     1       9.041  13.100  17.414  0.00  0.00    +0.000 NA
ATOM     22  C   UNL     1      10.181  12.855  18.217  0.00  0.00    +0.000 A 
ATOM     23  C   UNL     1      11.301  13.644  18.397  0.00  0.00    +0.000 A 
ATOM     24  C   UNL     1      12.282  13.211  19.305  0.00  0.00    +0.000 A 
ATOM     25  C   UNL     1      12.107  12.033  20.048  0.00  0.00    +0.000 A 
ATOM     26  C   UNL     1      10.996  11.222  19.832  0.00  0.00    +0.000 A 
ATOM     27  C   UNL     1      10.084  11.641  18.869  0.00  0.00    +0.000 A 
ENDBRANCH  16  18
ENDBRANCH   5  16
TORSDOF 5
ENDMDL
MODEL 9
REMARK VINA RESULT:      -8.2      2.218      2.778
REMARK  Name = 
REMARK  7 active torsions:
REMARK  status: ('A' for Active; 'I' for Inactive)
REMARK    1  A    between atoms: C_1  and  C_2
REMARK    2  A    between atoms: C_2  and  S_3
REMARK    3  A    between atoms: C_2  and  C_10
REMARK    4  A    between atoms: S_3  and  C_4
REMARK    5  A    between atoms: N_8  and  C_9
REMARK    6  A    between atoms: C_14  and  N_15
REMARK    7  A    between atoms: N_15  and  C_16
REMARK                            x       y       z     vdW  Elec       q    Type
REMARK                         _______ _______ _______ _____ _____    ______ ____
ROOT
ATOM      1  C   UNL     1       3.231   5.177  18.162  0.00  0.00    +0.000 A 
ATOM      2  C   UNL     1       2.985   3.843  18.532  0.00  0.00    +0.000 A 
ATOM      3  C   UNL     1       2.360   3.539  19.735  0.00  0.00    +0.000 A 
ATOM      4  C   UNL     1       1.959   4.566  20.586  0.00  0.00    +0.000 A 
ATOM      5  C   UNL     1       2.167   5.915  20.257  0.00  0.00    +0.000 A 
ATOM      6  C   UNL     1       2.782   6.201  19.023  0.00  0.00    +0.000 A 
ENDROOT
BRANCH   1   8
ATOM      7  C   UNL     1       4.303   7.028  16.820  0.00  0.00    +0.000 C 
ATOM      8  C   UNL     1       4.023   5.518  16.895  0.00  0.00    +0.000 C 
BRANCH   8   9
ATOM      9  S   UNL     1       5.559   4.511  16.810  0.00  0.00    +0.000 S 
BRANCH   9  10
ATOM     10  C   UNL     1       6.471   5.092  18.163  0.00  0.00    +0.000 A 
ATOM     11  N   UNL     1       6.436   4.639  19.395  0.00  0.00    +0.000 NA
ATOM     12  N   UNL     1       7.416   5.283  20.115  0.00  0.00    +0.000 NA
ATOM     13  C   UNL     1       7.991   6.148  19.310  0.00  0.00    +0.000 A 
ATOM     14  N   UNL     1       7.394   6.095  18.085  0.00  0.00    +0.000 N 
ATOM     15  C   UNL     1       7.688   6.969  16.981  0.00  0.00    +0.000 C 
ENDBRANCH   9  10
ENDBRANCH   8   9
ENDBRANCH   1   8
BRANCH   5  16
ATOM     16  N   UNL     1       1.846   6.967  21.139  0.00  0.00    +0.000 N 
ATOM     17  H   UNL     1       2.061   6.824  22.124  0.00  0.00    +0.000 HD
BRANCH  16  18
ATOM     18  C   UNL     1       1.158   8.120  20.844  0.00  0.00    +0.000 C 
ATOM     19  C   UNL     1       0.862   9.187  21.584  0.00  0.00    +0.000 C 
ATOM     20  N   UNL     1       0.967   9.332  22.950  0.00  0.00    +0.000 NA
ATOM     21  N   UNL     1       0.121  10.188  23.382  0.00  0.00    +0.000 NA
ATOM     22  C   UNL     1      -0.502  10.759  22.246  0.00  0.00    +0.000 A 
ATOM     23  C   UNL     1      -1.517  11.694  22.191  0.00  0.00    +0.000 A 
ATOM     24  C   UNL     1      -1.927  12.158  20.930  0.00  0.00    +0.000 A 
ATOM     25  C   UNL     1      -1.290  11.721  19.758  0.00  0.00    +0.000 A 
ATOM     26  C   UNL     1      -0.297  10.747  19.818  0.00  0.00    +0.000 A 
ATOM     27  C   UNL     1       0.031  10.252  21.075  0.00  0.00    +0.000 A 
ENDBRANCH  16  18
ENDBRANCH   5  16
TORSDOF 5
ENDMDL
