MODEL 1
REMARK VINA RESULT:      -9.3      0.000      0.000
REMARK  Name = 
REMARK  8 active torsions:
REMARK  status: ('A' for Active; 'I' for Inactive)
REMARK    1  A    between atoms: C_1  and  N_2
REMARK    2  A    between atoms: C_6  and  C_7
REMARK    3  A    between atoms: C_8  and  C_9
REMARK    4  A    between atoms: C_13  and  N_14
REMARK    5  A    between atoms: C_19  and  C_20
REMARK    6  A    between atoms: C_20  and  N_21
REMARK    7  A    between atoms: N_21  and  C_22
REMARK    8  A    between atoms: C_26  and  C_27
REMARK                            x       y       z     vdW  Elec       q    Type
REMARK                         _______ _______ _______ _____ _____    ______ ____
ROOT
ATOM      1  N   UNL     1       4.182   4.479  19.004  0.00  0.00    +0.000 N 
ATOM      2  C   UNL     1       5.485   5.165  19.204  0.00  0.00    +0.000 C 
ATOM      3  C   UNL     1       6.104   5.071  17.841  0.00  0.00    +0.000 A 
ATOM      4  C   UNL     1       5.583   3.929  17.224  0.00  0.00    +0.000 A 
ATOM      5  C   UNL     1       5.789   3.633  15.885  0.00  0.00    +0.000 A 
ATOM      6  C   UNL     1       6.534   4.544  15.121  0.00  0.00    +0.000 A 
ATOM      7  C   UNL     1       7.024   5.721  15.742  0.00  0.00    +0.000 A 
ATOM      8  C   UNL     1       6.841   5.996  17.113  0.00  0.00    +0.000 A 
ATOM      9  C   UNL     1       4.462   3.440  18.070  0.00  0.00    +0.000 C 
ATOM     10  O   UNL     1       3.820   2.432  17.843  0.00  0.00    +0.000 OA
ENDROOT
BRANCH   1  15
ATOM     11  C   UNL     1       2.231   7.455  19.537  0.00  0.00    +0.000 A 
ATOM     12  C   UNL     1       2.770   8.190  18.476  0.00  0.00    +0.000 A 
ATOM     13  C   UNL     1       3.289   7.528  17.365  0.00  0.00    +0.000 A 
ATOM     14  C   UNL     1       3.385   6.140  17.369  0.00  0.00    +0.000 A 
ATOM     15  C   UNL     1       3.170   5.453  18.573  0.00  0.00    +0.000 A 
ATOM     16  C   UNL     1       2.412   6.071  19.575  0.00  0.00    +0.000 A 
BRANCH  11  18
ATOM     17  C   UNL     1       0.728   9.143  20.488  0.00  0.00    +0.000 C 
ATOM     18  C   UNL     1       1.617   8.153  20.662  0.00  0.00    +0.000 C 
BRANCH  17  24
ATOM     19  C   UNL     1      -1.106  11.566  20.272  0.00  0.00    +0.000 C 
ATOM     20  N   UNL     1      -0.656  10.905  21.467  0.00  0.00    +0.000 N 
ATOM     21  C   UNL     1      -0.998  11.296  22.733  0.00  0.00    +0.000 A 
ATOM     22  N   UNL     1      -0.438  10.495  23.604  0.00  0.00    +0.000 NA
ATOM     23  N   UNL     1       0.296   9.566  22.897  0.00  0.00    +0.000 NA
ATOM     24  C   UNL     1       0.159   9.811  21.614  0.00  0.00    +0.000 A 
ENDBRANCH  17  24
ENDBRANCH  11  18
ENDBRANCH   1  15
BRANCH   8  25
ATOM     25  C   UNL     1       7.359   7.294  17.672  0.00  0.00    +0.000 C 
ATOM     26  F   UNL     1       6.391   8.208  17.960  0.00  0.00    +0.000 F 
ATOM     27  F   UNL     1       8.045   7.115  18.833  0.00  0.00    +0.000 F 
ATOM     28  F   UNL     1       8.216   7.931  16.826  0.00  0.00    +0.000 F 
ENDBRANCH   8  25
BRANCH   6  29
ATOM     29  C   UNL     1       6.691   4.343  13.622  0.00  0.00    +0.000 C 
BRANCH  29  30
ATOM     30  N   UNL     1       6.221   3.018  13.200  0.00  0.00    +0.000 NA
ATOM     31  H   UNL     1       5.263   2.903  13.534  0.00  0.00    +0.000 HD
BRANCH  30  32
ATOM     32  C   UNL     1       6.266   2.811  11.750  0.00  0.00    +0.000 C 
ATOM     33  C   UNL     1       5.819   1.470  11.229  0.00  0.00    +0.000 C 
ATOM     34  C   UNL     1       7.263   1.863  11.144  0.00  0.00    +0.000 C 
ENDBRANCH  30  32
ENDBRANCH  29  30
ENDBRANCH   6  29
TORSDOF 7
ENDMDL
MODEL 2
REMARK VINA RESULT:      -8.9      4.167      7.030
REMARK  Name = 
REMARK  8 active torsions:
REMARK  status: ('A' for Active; 'I' for Inactive)
REMARK    1  A    between atoms: C_1  and  N_2
REMARK    2  A    between atoms: C_6  and  C_7
REMARK    3  A    between atoms: C_8  and  C_9
REMARK    4  A    between atoms: C_13  and  N_14
REMARK    5  A    between atoms: C_19  and  C_20
REMARK    6  A    between atoms: C_20  and  N_21
REMARK    7  A    between atoms: N_21  and  C_22
REMARK    8  A    between atoms: C_26  and  C_27
REMARK                            x       y       z     vdW  Elec       q    Type
REMARK                         _______ _______ _______ _____ _____    ______ ____
ROOT
ATOM      1  N   UNL     1       6.237   5.492  15.358  0.00  0.00    +0.000 N 
ATOM      2  C   UNL     1       5.032   6.305  15.664  0.00  0.00    +0.000 C 
ATOM      3  C   UNL     1       4.283   5.417  16.612  0.00  0.00    +0.000 A 
ATOM      4  C   UNL     1       4.630   4.097  16.309  0.00  0.00    +0.000 A 
ATOM      5  C   UNL     1       4.273   3.020  17.106  0.00  0.00    +0.000 A 
ATOM      6  C   UNL     1       3.554   3.286  18.281  0.00  0.00    +0.000 A 
ATOM      7  C   UNL     1       3.241   4.631  18.604  0.00  0.00    +0.000 A 
ATOM      8  C   UNL     1       3.576   5.717  17.770  0.00  0.00    +0.000 A 
ATOM      9  C   UNL     1       5.770   4.145  15.356  0.00  0.00    +0.000 C 
ATOM     10  O   UNL     1       6.286   3.165  14.853  0.00  0.00    +0.000 OA
ENDROOT
BRANCH   1  15
ATOM     11  C   UNL     1       7.820   7.675  17.741  0.00  0.00    +0.000 A 
ATOM     12  C   UNL     1       7.605   6.867  18.862  0.00  0.00    +0.000 A 
ATOM     13  C   UNL     1       7.476   5.488  18.711  0.00  0.00    +0.000 A 
ATOM     14  C   UNL     1       7.435   4.932  17.436  0.00  0.00    +0.000 A 
ATOM     15  C   UNL     1       7.295   5.787  16.332  0.00  0.00    +0.000 A 
ATOM     16  C   UNL     1       7.687   7.126  16.463  0.00  0.00    +0.000 A 
BRANCH  11  18
ATOM     17  C   UNL     1       8.975   9.596  18.733  0.00  0.00    +0.000 C 
ATOM     18  C   UNL     1       8.033   9.108  17.911  0.00  0.00    +0.000 C 
BRANCH  17  24
ATOM     19  C   UNL     1       9.154  11.003  21.429  0.00  0.00    +0.000 C 
ATOM     20  N   UNL     1       9.212  11.596  20.121  0.00  0.00    +0.000 N 
ATOM     21  C   UNL     1       9.353  12.937  19.893  0.00  0.00    +0.000 A 
ATOM     22  N   UNL     1       9.378  13.162  18.603  0.00  0.00    +0.000 NA
ATOM     23  N   UNL     1       9.239  11.944  17.971  0.00  0.00    +0.000 NA
ATOM     24  C   UNL     1       9.145  11.005  18.884  0.00  0.00    +0.000 A 
ENDBRANCH  17  24
ENDBRANCH  11  18
ENDBRANCH   1  15
BRANCH   8  25
ATOM     25  C   UNL     1       3.243   7.114  18.221  0.00  0.00    +0.000 C 
ATOM     26  F   UNL     1       4.224   8.030  17.986  0.00  0.00    +0.000 F 
ATOM     27  F   UNL     1       2.135   7.603  17.601  0.00  0.00    +0.000 F 
ATOM     28  F   UNL     1       2.989   7.192  19.557  0.00  0.00    +0.000 F 
ENDBRANCH   8  25
BRANCH   6  29
ATOM     29  C   UNL     1       3.239   2.166  19.261  0.00  0.00    +0.000 C 
BRANCH  29  30
ATOM     30  N   UNL     1       1.793   2.015  19.466  0.00  0.00    +0.000 NA
ATOM     31  H   UNL     1       1.553   1.036  19.302  0.00  0.00    +0.000 HD
BRANCH  30  32
ATOM     32  C   UNL     1       1.342   2.418  20.800  0.00  0.00    +0.000 C 
ATOM     33  C   UNL     1       1.090   3.885  21.031  0.00  0.00    +0.000 C 
ATOM     34  C   UNL     1       2.244   3.207  21.706  0.00  0.00    +0.000 C 
ENDBRANCH  30  32
ENDBRANCH  29  30
ENDBRANCH   6  29
TORSDOF 7
ENDMDL
MODEL 3
REMARK VINA RESULT:      -8.3      0.617      1.143
REMARK  Name = 
REMARK  8 active torsions:
REMARK  status: ('A' for Active; 'I' for Inactive)
REMARK    1  A    between atoms: C_1  and  N_2
REMARK    2  A    between atoms: C_6  and  C_7
REMARK    3  A    between atoms: C_8  and  C_9
REMARK    4  A    between atoms: C_13  and  N_14
REMARK    5  A    between atoms: C_19  and  C_20
REMARK    6  A    between atoms: C_20  and  N_21
REMARK    7  A    between atoms: N_21  and  C_22
REMARK    8  A    between atoms: C_26  and  C_27
REMARK                            x       y       z     vdW  Elec       q    Type
REMARK                         _______ _______ _______ _____ _____    ______ ____
ROOT
ATOM      1  N   UNL     1       4.070   4.578  19.005  0.00  0.00    +0.000 N 
ATOM      2  C   UNL     1       5.385   5.229  19.238  0.00  0.00    +0.000 C 
ATOM      3  C   UNL     1       6.059   5.065  17.909  0.00  0.00    +0.000 A 
ATOM      4  C   UNL     1       5.528   3.918  17.310  0.00  0.00    +0.000 A 
ATOM      5  C   UNL     1       5.782   3.566  15.993  0.00  0.00    +0.000 A 
ATOM      6  C   UNL     1       6.590   4.423  15.231  0.00  0.00    +0.000 A 
ATOM      7  C   UNL     1       7.091   5.606  15.831  0.00  0.00    +0.000 A 
ATOM      8  C   UNL     1       6.858   5.938  17.182  0.00  0.00    +0.000 A 
ATOM      9  C   UNL     1       4.356   3.497  18.122  0.00  0.00    +0.000 C 
ATOM     10  O   UNL     1       3.691   2.502  17.903  0.00  0.00    +0.000 OA
ENDROOT
BRANCH   1  15
ATOM     11  C   UNL     1       2.288   7.692  19.287  0.00  0.00    +0.000 A 
ATOM     12  C   UNL     1       2.861   8.304  18.168  0.00  0.00    +0.000 A 
ATOM     13  C   UNL     1       3.338   7.524  17.117  0.00  0.00    +0.000 A 
ATOM     14  C   UNL     1       3.357   6.138  17.237  0.00  0.00    +0.000 A 
ATOM     15  C   UNL     1       3.111   5.567  18.494  0.00  0.00    +0.000 A 
ATOM     16  C   UNL     1       2.393   6.308  19.442  0.00  0.00    +0.000 A 
BRANCH  11  18
ATOM     17  C   UNL     1       0.939   9.575  20.091  0.00  0.00    +0.000 C 
ATOM     18  C   UNL     1       1.719   8.514  20.350  0.00  0.00    +0.000 C 
BRANCH  17  24
ATOM     19  C   UNL     1      -0.755   8.445  22.357  0.00  0.00    +0.000 C 
ATOM     20  N   UNL     1      -0.355   9.811  22.153  0.00  0.00    +0.000 N 
ATOM     21  C   UNL     1      -0.702  10.842  22.982  0.00  0.00    +0.000 A 
ATOM     22  N   UNL     1      -0.182  11.957  22.534  0.00  0.00    +0.000 NA
ATOM     23  N   UNL     1       0.512  11.654  21.381  0.00  0.00    +0.000 NA
ATOM     24  C   UNL     1       0.411  10.363  21.158  0.00  0.00    +0.000 A 
ENDBRANCH  17  24
ENDBRANCH  11  18
ENDBRANCH   1  15
BRANCH   8  25
ATOM     25  C   UNL     1       7.394   7.239  17.716  0.00  0.00    +0.000 C 
ATOM     26  F   UNL     1       8.285   7.861  16.895  0.00  0.00    +0.000 F 
ATOM     27  F   UNL     1       6.407   8.150  17.935  0.00  0.00    +0.000 F 
ATOM     28  F   UNL     1       8.041   7.096  18.907  0.00  0.00    +0.000 F 
ENDBRANCH   8  25
BRANCH   6  29
ATOM     29  C   UNL     1       6.805   4.162  13.749  0.00  0.00    +0.000 C 
BRANCH  29  30
ATOM     30  N   UNL     1       5.847   3.180  13.226  0.00  0.00    +0.000 NA
ATOM     31  H   UNL     1       4.906   3.527  13.417  0.00  0.00    +0.000 HD
BRANCH  30  32
ATOM     32  C   UNL     1       5.995   2.918  11.792  0.00  0.00    +0.000 C 
ATOM     33  C   UNL     1       5.894   1.485  11.337  0.00  0.00    +0.000 C 
ATOM     34  C   UNL     1       7.208   2.203  11.267  0.00  0.00    +0.000 C 
ENDBRANCH  30  32
ENDBRANCH  29  30
ENDBRANCH   6  29
TORSDOF 7
ENDMDL
MODEL 4
REMARK VINA RESULT:      -8.2      4.146      7.050
REMARK  Name = 
REMARK  8 active torsions:
REMARK  status: ('A' for Active; 'I' for Inactive)
REMARK    1  A    between atoms: C_1  and  N_2
REMARK    2  A    between atoms: C_6  and  C_7
REMARK    3  A    between atoms: C_8  and  C_9
REMARK    4  A    between atoms: C_13  and  N_14
REMARK    5  A    between atoms: C_19  and  C_20
REMARK    6  A    between atoms: C_20  and  N_21
REMARK    7  A    between atoms: N_21  and  C_22
REMARK    8  A    between atoms: C_26  and  C_27
REMARK                            x       y       z     vdW  Elec       q    Type
REMARK                         _______ _______ _______ _____ _____    ______ ____
ROOT
ATOM      1  N   UNL     1       6.356   5.682  15.276  0.00  0.00    +0.000 N 
ATOM      2  C   UNL     1       5.165   6.502  15.617  0.00  0.00    +0.000 C 
ATOM      3  C   UNL     1       4.362   5.558  16.462  0.00  0.00    +0.000 A 
ATOM      4  C   UNL     1       4.681   4.260  16.055  0.00  0.00    +0.000 A 
ATOM      5  C   UNL     1       4.269   3.129  16.744  0.00  0.00    +0.000 A 
ATOM      6  C   UNL     1       3.521   3.314  17.916  0.00  0.00    +0.000 A 
ATOM      7  C   UNL     1       3.237   4.635  18.347  0.00  0.00    +0.000 A 
ATOM      8  C   UNL     1       3.628   5.778  17.621  0.00  0.00    +0.000 A 
ATOM      9  C   UNL     1       5.852   4.355  15.143  0.00  0.00    +0.000 C 
ATOM     10  O   UNL     1       6.356   3.407  14.571  0.00  0.00    +0.000 OA
ENDROOT
BRANCH   1  15
ATOM     11  C   UNL     1       7.849   7.542  17.970  0.00  0.00    +0.000 A 
ATOM     12  C   UNL     1       7.634   6.582  18.964  0.00  0.00    +0.000 A 
ATOM     13  C   UNL     1       7.538   5.235  18.620  0.00  0.00    +0.000 A 
ATOM     14  C   UNL     1       7.531   4.862  17.279  0.00  0.00    +0.000 A 
ATOM     15  C   UNL     1       7.391   5.859  16.303  0.00  0.00    +0.000 A 
ATOM     16  C   UNL     1       7.750   7.174  16.626  0.00  0.00    +0.000 A 
BRANCH  11  18
ATOM     17  C   UNL     1       9.124   9.374  18.985  0.00  0.00    +0.000 C 
ATOM     18  C   UNL     1       8.028   8.941  18.342  0.00  0.00    +0.000 C 
BRANCH  17  24
ATOM     19  C   UNL     1      10.887  11.355  17.486  0.00  0.00    +0.000 C 
ATOM     20  N   UNL     1      10.071  11.603  18.644  0.00  0.00    +0.000 N 
ATOM     21  C   UNL     1       9.974  12.817  19.268  0.00  0.00    +0.000 A 
ATOM     22  N   UNL     1       9.152  12.723  20.282  0.00  0.00    +0.000 NA
ATOM     23  N   UNL     1       8.708  11.418  20.333  0.00  0.00    +0.000 NA
ATOM     24  C   UNL     1       9.257  10.749  19.345  0.00  0.00    +0.000 A 
ENDBRANCH  17  24
ENDBRANCH  11  18
ENDBRANCH   1  15
BRANCH   8  25
ATOM     25  C   UNL     1       3.320   7.140  18.182  0.00  0.00    +0.000 C 
ATOM     26  F   UNL     1       2.269   7.770  17.587  0.00  0.00    +0.000 F 
ATOM     27  F   UNL     1       3.009   7.091  19.506  0.00  0.00    +0.000 F 
ATOM     28  F   UNL     1       4.366   8.006  18.075  0.00  0.00    +0.000 F 
ENDBRANCH   8  25
BRANCH   6  29
ATOM     29  C   UNL     1       3.145   2.124  18.785  0.00  0.00    +0.000 C 
BRANCH  29  30
ATOM     30  N   UNL     1       3.476   2.356  20.196  0.00  0.00    +0.000 NA
ATOM     31  H   UNL     1       4.408   2.770  20.235  0.00  0.00    +0.000 HD
BRANCH  30  32
ATOM     32  C   UNL     1       2.520   3.222  20.891  0.00  0.00    +0.000 C 
ATOM     33  C   UNL     1       1.703   2.604  21.995  0.00  0.00    +0.000 C 
ATOM     34  C   UNL     1       1.041   3.023  20.717  0.00  0.00    +0.000 C 
ENDBRANCH  30  32
ENDBRANCH  29  30
ENDBRANCH   6  29
TORSDOF 7
ENDMDL
MODEL 5
REMARK VINA RESULT:      -8.1      4.163      6.873
REMARK  Name = 
REMARK  8 active torsions:
REMARK  status: ('A' for Active; 'I' for Inactive)
REMARK    1  A    between atoms: C_1  and  N_2
REMARK    2  A    between atoms: C_6  and  C_7
REMARK    3  A    between atoms: C_8  and  C_9
REMARK    4  A    between atoms: C_13  and  N_14
REMARK    5  A    between atoms: C_19  and  C_20
REMARK    6  A    between atoms: C_20  and  N_21
REMARK    7  A    between atoms: N_21  and  C_22
REMARK    8  A    between atoms: C_26  and  C_27
REMARK                            x       y       z     vdW  Elec       q    Type
REMARK                         _______ _______ _______ _____ _____    ______ ____
ROOT
ATOM      1  N   UNL     1       6.120   5.224  15.572  0.00  0.00    +0.000 N 
ATOM      2  C   UNL     1       4.988   6.176  15.710  0.00  0.00    +0.000 C 
ATOM      3  C   UNL     1       4.257   5.629  16.900  0.00  0.00    +0.000 A 
ATOM      4  C   UNL     1       4.506   4.254  16.946  0.00  0.00    +0.000 A 
ATOM      5  C   UNL     1       4.144   3.456  18.021  0.00  0.00    +0.000 A 
ATOM      6  C   UNL     1       3.525   4.077  19.116  0.00  0.00    +0.000 A 
ATOM      7  C   UNL     1       3.313   5.479  19.081  0.00  0.00    +0.000 A 
ATOM      8  C   UNL     1       3.651   6.276  17.969  0.00  0.00    +0.000 A 
ATOM      9  C   UNL     1       5.578   3.963  15.958  0.00  0.00    +0.000 C 
ATOM     10  O   UNL     1       6.001   2.850  15.711  0.00  0.00    +0.000 OA
ENDROOT
BRANCH   1  15
ATOM     11  C   UNL     1       7.707   7.658  17.695  0.00  0.00    +0.000 A 
ATOM     12  C   UNL     1       7.786   6.848  18.832  0.00  0.00    +0.000 A 
ATOM     13  C   UNL     1       7.840   5.462  18.697  0.00  0.00    +0.000 A 
ATOM     14  C   UNL     1       7.689   4.884  17.441  0.00  0.00    +0.000 A 
ATOM     15  C   UNL     1       7.259   5.688  16.375  0.00  0.00    +0.000 A 
ATOM     16  C   UNL     1       7.465   7.072  16.450  0.00  0.00    +0.000 A 
BRANCH  11  18
ATOM     17  C   UNL     1       8.847   9.775  18.174  0.00  0.00    +0.000 C 
ATOM     18  C   UNL     1       7.732   9.110  17.837  0.00  0.00    +0.000 C 
BRANCH  17  24
ATOM     19  C   UNL     1       9.677  11.235  20.716  0.00  0.00    +0.000 C 
ATOM     20  N   UNL     1       9.203  11.809  19.485  0.00  0.00    +0.000 N 
ATOM     21  C   UNL     1       9.043  13.151  19.277  0.00  0.00    +0.000 A 
ATOM     22  N   UNL     1       8.604  13.356  18.061  0.00  0.00    +0.000 NA
ATOM     23  N   UNL     1       8.462  12.122  17.461  0.00  0.00    +0.000 NA
ATOM     24  C   UNL     1       8.828  11.196  18.317  0.00  0.00    +0.000 A 
ENDBRANCH  17  24
ENDBRANCH  11  18
ENDBRANCH   1  15
BRANCH   8  25
ATOM     25  C   UNL     1       3.431   7.764  18.043  0.00  0.00    +0.000 C 
ATOM     26  F   UNL     1       4.574   8.504  18.011  0.00  0.00    +0.000 F 
ATOM     27  F   UNL     1       2.673   8.222  17.010  0.00  0.00    +0.000 F 
ATOM     28  F   UNL     1       2.785   8.147  19.180  0.00  0.00    +0.000 F 
ENDBRANCH   8  25
BRANCH   6  29
ATOM     29  C   UNL     1       3.215   3.284  20.376  0.00  0.00    +0.000 C 
BRANCH  29  30
ATOM     30  N   UNL     1       2.589   1.993  20.065  0.00  0.00    +0.000 NA
ATOM     31  H   UNL     1       2.880   1.323  20.778  0.00  0.00    +0.000 HD
BRANCH  30  32
ATOM     32  C   UNL     1       1.126   2.047  20.006  0.00  0.00    +0.000 C 
ATOM     33  C   UNL     1       0.497   2.307  18.662  0.00  0.00    +0.000 C 
ATOM     34  C   UNL     1       0.419   3.346  19.740  0.00  0.00    +0.000 C 
ENDBRANCH  30  32
ENDBRANCH  29  30
ENDBRANCH   6  29
TORSDOF 7
ENDMDL
MODEL 6
REMARK VINA RESULT:      -8.0      5.674     11.476
REMARK  Name = 
REMARK  8 active torsions:
REMARK  status: ('A' for Active; 'I' for Inactive)
REMARK    1  A    between atoms: C_1  and  N_2
REMARK    2  A    between atoms: C_6  and  C_7
REMARK    3  A    between atoms: C_8  and  C_9
REMARK    4  A    between atoms: C_13  and  N_14
REMARK    5  A    between atoms: C_19  and  C_20
REMARK    6  A    between atoms: C_20  and  N_21
REMARK    7  A    between atoms: N_21  and  C_22
REMARK    8  A    between atoms: C_26  and  C_27
REMARK                            x       y       z     vdW  Elec       q    Type
REMARK                         _______ _______ _______ _____ _____    ______ ____
ROOT
ATOM      1  N   UNL     1      -0.627  11.861  19.979  0.00  0.00    +0.000 N 
ATOM      2  C   UNL     1      -0.702  12.993  20.939  0.00  0.00    +0.000 C 
ATOM      3  C   UNL     1      -2.182  13.165  21.109  0.00  0.00    +0.000 A 
ATOM      4  C   UNL     1      -2.792  12.724  19.931  0.00  0.00    +0.000 A 
ATOM      5  C   UNL     1      -4.164  12.562  19.805  0.00  0.00    +0.000 A 
ATOM      6  C   UNL     1      -4.960  12.832  20.928  0.00  0.00    +0.000 A 
ATOM      7  C   UNL     1      -4.331  13.238  22.133  0.00  0.00    +0.000 A 
ATOM      8  C   UNL     1      -2.940  13.436  22.242  0.00  0.00    +0.000 A 
ATOM      9  C   UNL     1      -1.749  12.045  19.119  0.00  0.00    +0.000 C 
ATOM     10  O   UNL     1      -1.935  11.584  18.008  0.00  0.00    +0.000 OA
ENDROOT
BRANCH   1  15
ATOM     11  C   UNL     1       0.921   8.721  20.811  0.00  0.00    +0.000 A 
ATOM     12  C   UNL     1       1.151   9.011  22.160  0.00  0.00    +0.000 A 
ATOM     13  C   UNL     1       0.334   9.923  22.825  0.00  0.00    +0.000 A 
ATOM     14  C   UNL     1      -0.628  10.634  22.115  0.00  0.00    +0.000 A 
ATOM     15  C   UNL     1      -0.603  10.589  20.713  0.00  0.00    +0.000 A 
ATOM     16  C   UNL     1       0.018   9.501  20.086  0.00  0.00    +0.000 A 
BRANCH  11  18
ATOM     17  C   UNL     1       1.895   6.477  20.649  0.00  0.00    +0.000 C 
ATOM     18  C   UNL     1       1.728   7.707  20.141  0.00  0.00    +0.000 C 
BRANCH  17  24
ATOM     19  C   UNL     1       0.924   3.701  19.855  0.00  0.00    +0.000 C 
ATOM     20  N   UNL     1       2.225   4.274  19.640  0.00  0.00    +0.000 N 
ATOM     21  C   UNL     1       3.259   3.619  19.028  0.00  0.00    +0.000 A 
ATOM     22  N   UNL     1       4.305   4.404  18.977  0.00  0.00    +0.000 NA
ATOM     23  N   UNL     1       3.955   5.595  19.578  0.00  0.00    +0.000 NA
ATOM     24  C   UNL     1       2.704   5.516  19.969  0.00  0.00    +0.000 A 
ENDBRANCH  17  24
ENDBRANCH  11  18
ENDBRANCH   1  15
BRANCH   8  25
ATOM     25  C   UNL     1      -2.360  13.824  23.575  0.00  0.00    +0.000 C 
ATOM     26  F   UNL     1      -1.191  13.196  23.885  0.00  0.00    +0.000 F 
ATOM     27  F   UNL     1      -2.085  15.155  23.648  0.00  0.00    +0.000 F 
ATOM     28  F   UNL     1      -3.199  13.559  24.615  0.00  0.00    +0.000 F 
ENDBRANCH   8  25
BRANCH   6  29
ATOM     29  C   UNL     1      -6.455  12.555  20.896  0.00  0.00    +0.000 C 
BRANCH  29  30
ATOM     30  N   UNL     1      -6.758  11.167  21.264  0.00  0.00    +0.000 NA
ATOM     31  H   UNL     1      -7.295  11.183  22.132  0.00  0.00    +0.000 HD
BRANCH  30  32
ATOM     32  C   UNL     1      -7.501  10.433  20.236  0.00  0.00    +0.000 C 
ATOM     33  C   UNL     1      -7.193   8.968  20.075  0.00  0.00    +0.000 C 
ATOM     34  C   UNL     1      -6.807   9.937  18.999  0.00  0.00    +0.000 C 
ENDBRANCH  30  32
ENDBRANCH  29  30
ENDBRANCH   6  29
TORSDOF 7
ENDMDL
MODEL 7
REMARK VINA RESULT:      -7.8      5.905     11.812
REMARK  Name = 
REMARK  8 active torsions:
REMARK  status: ('A' for Active; 'I' for Inactive)
REMARK    1  A    between atoms: C_1  and  N_2
REMARK    2  A    between atoms: C_6  and  C_7
REMARK    3  A    between atoms: C_8  and  C_9
REMARK    4  A    between atoms: C_13  and  N_14
REMARK    5  A    between atoms: C_19  and  C_20
REMARK    6  A    between atoms: C_20  and  N_21
REMARK    7  A    between atoms: N_21  and  C_22
REMARK    8  A    between atoms: C_26  and  C_27
REMARK                            x       y       z     vdW  Elec       q    Type
REMARK                         _______ _______ _______ _____ _____    ______ ____
ROOT
ATOM      1  N   UNL     1      -0.756  12.076  20.697  0.00  0.00    +0.000 N 
ATOM      2  C   UNL     1      -1.227  13.028  21.737  0.00  0.00    +0.000 C 
ATOM      3  C   UNL     1      -2.708  13.043  21.505  0.00  0.00    +0.000 A 
ATOM      4  C   UNL     1      -2.922  12.747  20.155  0.00  0.00    +0.000 A 
ATOM      5  C   UNL     1      -4.178  12.489  19.628  0.00  0.00    +0.000 A 
ATOM      6  C   UNL     1      -5.272  12.504  20.506  0.00  0.00    +0.000 A 
ATOM      7  C   UNL     1      -5.043  12.763  21.882  0.00  0.00    +0.000 A 
ATOM      8  C   UNL     1      -3.767  13.060  22.403  0.00  0.00    +0.000 A 
ATOM      9  C   UNL     1      -1.622  12.300  19.588  0.00  0.00    +0.000 C 
ATOM     10  O   UNL     1      -1.447  12.010  18.419  0.00  0.00    +0.000 OA
ENDROOT
BRANCH   1  15
ATOM     11  C   UNL     1       0.780   8.858  21.176  0.00  0.00    +0.000 A 
ATOM     12  C   UNL     1       0.900   8.945  22.566  0.00  0.00    +0.000 A 
ATOM     13  C   UNL     1       0.016   9.742  23.292  0.00  0.00    +0.000 A 
ATOM     14  C   UNL     1      -0.900  10.546  22.621  0.00  0.00    +0.000 A 
ATOM     15  C   UNL     1      -0.766  10.710  21.234  0.00  0.00    +0.000 A 
ATOM     16  C   UNL     1      -0.078   9.732  20.504  0.00  0.00    +0.000 A 
BRANCH  11  18
ATOM     17  C   UNL     1       1.660   6.634  20.633  0.00  0.00    +0.000 C 
ATOM     18  C   UNL     1       1.655   7.961  20.429  0.00  0.00    +0.000 C 
BRANCH  17  24
ATOM     19  C   UNL     1       1.608   3.592  20.772  0.00  0.00    +0.000 C 
ATOM     20  N   UNL     1       2.486   4.423  19.993  0.00  0.00    +0.000 N 
ATOM     21  C   UNL     1       3.471   3.942  19.175  0.00  0.00    +0.000 A 
ATOM     22  N   UNL     1       4.090   4.943  18.600  0.00  0.00    +0.000 NA
ATOM     23  N   UNL     1       3.507   6.106  19.060  0.00  0.00    +0.000 NA
ATOM     24  C   UNL     1       2.540   5.790  19.891  0.00  0.00    +0.000 A 
ENDBRANCH  17  24
ENDBRANCH  11  18
ENDBRANCH   1  15
BRANCH   8  25
ATOM     25  C   UNL     1      -3.617  13.277  23.885  0.00  0.00    +0.000 C 
ATOM     26  F   UNL     1      -2.380  13.700  24.270  0.00  0.00    +0.000 F 
ATOM     27  F   UNL     1      -4.483  14.214  24.358  0.00  0.00    +0.000 F 
ATOM     28  F   UNL     1      -3.854  12.148  24.612  0.00  0.00    +0.000 F 
ENDBRANCH   8  25
BRANCH   6  29
ATOM     29  C   UNL     1      -6.657  12.109  20.018  0.00  0.00    +0.000 C 
BRANCH  29  30
ATOM     30  N   UNL     1      -6.663  11.823  18.578  0.00  0.00    +0.000 NA
ATOM     31  H   UNL     1      -7.055  10.890  18.445  0.00  0.00    +0.000 HD
BRANCH  30  32
ATOM     32  C   UNL     1      -7.424  12.794  17.788  0.00  0.00    +0.000 C 
ATOM     33  C   UNL     1      -6.639  13.779  16.961  0.00  0.00    +0.000 C 
ATOM     34  C   UNL     1      -7.414  14.252  18.153  0.00  0.00    +0.000 C 
ENDBRANCH  30  32
ENDBRANCH  29  30
ENDBRANCH   6  29
TORSDOF 7
ENDMDL
MODEL 8
REMARK VINA RESULT:      -7.7      5.471     11.713
REMARK  Name = 
REMARK  8 active torsions:
REMARK  status: ('A' for Active; 'I' for Inactive)
REMARK    1  A    between atoms: C_1  and  N_2
REMARK    2  A    between atoms: C_6  and  C_7
REMARK    3  A    between atoms: C_8  and  C_9
REMARK    4  A    between atoms: C_13  and  N_14
REMARK    5  A    between atoms: C_19  and  C_20
REMARK    6  A    between atoms: C_20  and  N_21
REMARK    7  A    between atoms: N_21  and  C_22
REMARK    8  A    between atoms: C_26  and  C_27
REMARK                            x       y       z     vdW  Elec       q    Type
REMARK                         _______ _______ _______ _____ _____    ______ ____
ROOT
ATOM      1  N   UNL     1      -0.337  12.173  20.879  0.00  0.00    +0.000 N 
ATOM      2  C   UNL     1      -1.059  12.905  21.951  0.00  0.00    +0.000 C 
ATOM      3  C   UNL     1      -2.463  12.933  21.425  0.00  0.00    +0.000 A 
ATOM      4  C   UNL     1      -2.386  12.889  20.030  0.00  0.00    +0.000 A 
ATOM      5  C   UNL     1      -3.496  12.709  19.217  0.00  0.00    +0.000 A 
ATOM      6  C   UNL     1      -4.741  12.539  19.839  0.00  0.00    +0.000 A 
ATOM      7  C   UNL     1      -4.806  12.543  21.256  0.00  0.00    +0.000 A 
ATOM      8  C   UNL     1      -3.679  12.763  22.074  0.00  0.00    +0.000 A 
ATOM      9  C   UNL     1      -0.976  12.581  19.672  0.00  0.00    +0.000 C 
ATOM     10  O   UNL     1      -0.555  12.517  18.533  0.00  0.00    +0.000 OA
ENDROOT
BRANCH   1  15
ATOM     11  C   UNL     1       1.016   8.856  20.540  0.00  0.00    +0.000 A 
ATOM     12  C   UNL     1       1.317   8.669  21.892  0.00  0.00    +0.000 A 
ATOM     13  C   UNL     1       0.591   9.351  22.867  0.00  0.00    +0.000 A 
ATOM     14  C   UNL     1      -0.344  10.309  22.489  0.00  0.00    +0.000 A 
ATOM     15  C   UNL     1      -0.375  10.730  21.151  0.00  0.00    +0.000 A 
ATOM     16  C   UNL     1       0.144   9.881  20.166  0.00  0.00    +0.000 A 
BRANCH  11  18
ATOM     17  C   UNL     1       2.245   6.871  19.788  0.00  0.00    +0.000 C 
ATOM     18  C   UNL     1       1.724   8.080  19.527  0.00  0.00    +0.000 C 
BRANCH  17  24
ATOM     19  C   UNL     1       1.524   4.041  18.924  0.00  0.00    +0.000 C 
ATOM     20  N   UNL     1       2.586   4.871  18.425  0.00  0.00    +0.000 N 
ATOM     21  C   UNL     1       3.468   4.484  17.453  0.00  0.00    +0.000 A 
ATOM     22  N   UNL     1       4.310   5.458  17.213  0.00  0.00    +0.000 NA
ATOM     23  N   UNL     1       3.981   6.502  18.052  0.00  0.00    +0.000 NA
ATOM     24  C   UNL     1       2.943   6.148  18.774  0.00  0.00    +0.000 A 
ENDBRANCH  17  24
ENDBRANCH  11  18
ENDBRANCH   1  15
BRANCH   8  25
ATOM     25  C   UNL     1      -3.840  12.703  23.569  0.00  0.00    +0.000 C 
ATOM     26  F   UNL     1      -3.237  11.633  24.158  0.00  0.00    +0.000 F 
ATOM     27  F   UNL     1      -3.315  13.797  24.186  0.00  0.00    +0.000 F 
ATOM     28  F   UNL     1      -5.143  12.643  23.960  0.00  0.00    +0.000 F 
ENDBRANCH   8  25
BRANCH   6  29
ATOM     29  C   UNL     1      -5.976  12.214  19.014  0.00  0.00    +0.000 C 
BRANCH  29  30
ATOM     30  N   UNL     1      -5.953  12.894  17.713  0.00  0.00    +0.000 NA
ATOM     31  H   UNL     1      -5.950  12.179  16.985  0.00  0.00    +0.000 HD
BRANCH  30  32
ATOM     32  C   UNL     1      -7.082  13.805  17.505  0.00  0.00    +0.000 C 
ATOM     33  C   UNL     1      -6.925  14.870  16.450  0.00  0.00    +0.000 C 
ATOM     34  C   UNL     1      -6.979  15.252  17.899  0.00  0.00    +0.000 C 
ENDBRANCH  30  32
ENDBRANCH  29  30
ENDBRANCH   6  29
TORSDOF 7
ENDMDL
MODEL 9
REMARK VINA RESULT:      -7.7      4.611      9.870
REMARK  Name = 
REMARK  8 active torsions:
REMARK  status: ('A' for Active; 'I' for Inactive)
REMARK    1  A    between atoms: C_1  and  N_2
REMARK    2  A    between atoms: C_6  and  C_7
REMARK    3  A    between atoms: C_8  and  C_9
REMARK    4  A    between atoms: C_13  and  N_14
REMARK    5  A    between atoms: C_19  and  C_20
REMARK    6  A    between atoms: C_20  and  N_21
REMARK    7  A    between atoms: N_21  and  C_22
REMARK    8  A    between atoms: C_26  and  C_27
REMARK                            x       y       z     vdW  Elec       q    Type
REMARK                         _______ _______ _______ _____ _____    ______ ____
ROOT
ATOM      1  N   UNL     1       0.052   9.205  21.007  0.00  0.00    +0.000 N 
ATOM      2  C   UNL     1      -1.110   9.193  20.081  0.00  0.00    +0.000 C 
ATOM      3  C   UNL     1      -1.308  10.654  19.804  0.00  0.00    +0.000 A 
ATOM      4  C   UNL     1      -0.838  11.357  20.917  0.00  0.00    +0.000 A 
ATOM      5  C   UNL     1      -0.690  12.736  20.933  0.00  0.00    +0.000 A 
ATOM      6  C   UNL     1      -1.005  13.441  19.761  0.00  0.00    +0.000 A 
ATOM      7  C   UNL     1      -1.440  12.717  18.622  0.00  0.00    +0.000 A 
ATOM      8  C   UNL     1      -1.624  11.319  18.626  0.00  0.00    +0.000 A 
ATOM      9  C   UNL     1      -0.120  10.386  21.785  0.00  0.00    +0.000 C 
ATOM     10  O   UNL     1       0.372  10.662  22.862  0.00  0.00    +0.000 OA
ENDROOT
BRANCH   1  15
ATOM     11  C   UNL     1       2.189   7.620  18.584  0.00  0.00    +0.000 A 
ATOM     12  C   UNL     1       2.173   8.663  17.653  0.00  0.00    +0.000 A 
ATOM     13  C   UNL     1       1.952   9.972  18.078  0.00  0.00    +0.000 A 
ATOM     14  C   UNL     1       1.624  10.221  19.407  0.00  0.00    +0.000 A 
ATOM     15  C   UNL     1       1.300   9.137  20.237  0.00  0.00    +0.000 A 
ATOM     16  C   UNL     1       1.772   7.863  19.895  0.00  0.00    +0.000 A 
BRANCH  11  18
ATOM     17  C   UNL     1       2.182   5.186  18.881  0.00  0.00    +0.000 C 
ATOM     18  C   UNL     1       2.499   6.264  18.146  0.00  0.00    +0.000 C 
BRANCH  17  24
ATOM     19  C   UNL     1       4.926   3.911  19.238  0.00  0.00    +0.000 C 
ATOM     20  N   UNL     1       3.768   3.346  18.600  0.00  0.00    +0.000 N 
ATOM     21  C   UNL     1       3.737   2.102  18.032  0.00  0.00    +0.000 A 
ATOM     22  N   UNL     1       2.544   1.874  17.542  0.00  0.00    +0.000 NA
ATOM     23  N   UNL     1       1.779   2.996  17.784  0.00  0.00    +0.000 NA
ATOM     24  C   UNL     1       2.514   3.875  18.425  0.00  0.00    +0.000 A 
ENDBRANCH  17  24
ENDBRANCH  11  18
ENDBRANCH   1  15
BRANCH   8  25
ATOM     25  C   UNL     1      -2.045  10.635  17.354  0.00  0.00    +0.000 C 
ATOM     26  F   UNL     1      -1.158   9.710  16.891  0.00  0.00    +0.000 F 
ATOM     27  F   UNL     1      -3.222   9.967  17.496  0.00  0.00    +0.000 F 
ATOM     28  F   UNL     1      -2.231  11.504  16.321  0.00  0.00    +0.000 F 
ENDBRANCH   8  25
BRANCH   6  29
ATOM     29  C   UNL     1      -0.747  14.937  19.670  0.00  0.00    +0.000 C 
BRANCH  29  30
ATOM     30  N   UNL     1       0.252  15.253  18.643  0.00  0.00    +0.000 NA
ATOM     31  H   UNL     1       0.039  16.180  18.272  0.00  0.00    +0.000 HD
BRANCH  30  32
ATOM     32  C   UNL     1       1.632  15.224  19.134  0.00  0.00    +0.000 C 
ATOM     33  C   UNL     1       2.727  15.067  18.112  0.00  0.00    +0.000 C 
ATOM     34  C   UNL     1       2.438  13.957  19.077  0.00  0.00    +0.000 C 
ENDBRANCH  30  32
ENDBRANCH  29  30
ENDBRANCH   6  29
TORSDOF 7
ENDMDL
