MODEL 1
REMARK VINA RESULT:      -8.6      0.000      0.000
REMARK  Name = 
REMARK  6 active torsions:
REMARK  status: ('A' for Active; 'I' for Inactive)
REMARK    1  A    between atoms: N_1  and  N_2
REMARK    2  A    between atoms: C_6  and  C_7
REMARK    3  A    between atoms: C_7  and  C_8
REMARK    4  A    between atoms: C_8  and  C_9
REMARK    5  A    between atoms: C_13  and  N_14
REMARK    6  A    between atoms: C_21  and  C_22
REMARK                            x       y       z     vdW  Elec       q    Type
REMARK                         _______ _______ _______ _____ _____    ______ ____
ROOT
ATOM      1  C   UNL     1       7.892   7.681  17.839  0.00  0.00    +0.000 A 
ATOM      2  C   UNL     1       7.864   6.833  18.957  0.00  0.00    +0.000 A 
ATOM      3  C   UNL     1       7.706   5.459  18.813  0.00  0.00    +0.000 A 
ATOM      4  C   UNL     1       7.435   4.925  17.562  0.00  0.00    +0.000 A 
ATOM      5  C   UNL     1       7.170   5.791  16.492  0.00  0.00    +0.000 A 
ATOM      6  C   UNL     1       7.560   7.136  16.590  0.00  0.00    +0.000 A 
ENDROOT
BRANCH   5   7
ATOM      7  N   UNL     1       6.095   5.450  15.560  0.00  0.00    +0.000 N 
ATOM      8  C   UNL     1       4.910   6.306  15.809  0.00  0.00    +0.000 C 
ATOM      9  C   UNL     1       4.144   5.491  16.807  0.00  0.00    +0.000 A 
ATOM     10  C   UNL     1       4.475   4.150  16.589  0.00  0.00    +0.000 A 
ATOM     11  C   UNL     1       4.076   3.129  17.434  0.00  0.00    +0.000 A 
ATOM     12  C   UNL     1       3.324   3.485  18.552  0.00  0.00    +0.000 A 
ATOM     13  C   UNL     1       2.994   4.832  18.795  0.00  0.00    +0.000 A 
ATOM     14  C   UNL     1       3.399   5.866  17.921  0.00  0.00    +0.000 A 
ATOM     15  C   UNL     1       5.616   4.115  15.644  0.00  0.00    +0.000 C 
ATOM     16  O   UNL     1       6.137   3.093  15.233  0.00  0.00    +0.000 OA
BRANCH  14  17
ATOM     17  C   UNL     1       3.109   7.298  18.293  0.00  0.00    +0.000 C 
ATOM     18  F   UNL     1       4.150   8.149  18.086  0.00  0.00    +0.000 F 
ATOM     19  F   UNL     1       2.069   7.811  17.582  0.00  0.00    +0.000 F 
ATOM     20  F   UNL     1       2.771   7.435  19.605  0.00  0.00    +0.000 F 
ENDBRANCH  14  17
ENDBRANCH   5   7
BRANCH   1  21
ATOM     21  C   UNL     1       8.118   9.175  17.969  0.00  0.00    +0.000 C 
BRANCH  21  22
ATOM     22  C   UNL     1       8.970   9.550  19.179  0.00  0.00    +0.000 C 
BRANCH  22  27
ATOM     23  N   UNL     1      10.592  12.506  17.838  0.00  0.00    +0.000 N 
ATOM     24  C   UNL     1      11.122  13.146  19.065  0.00  0.00    +0.000 C 
ATOM     25  N   UNL     1      10.369  12.861  20.299  0.00  0.00    +0.000 NA
ATOM     26  C   UNL     1       9.685  11.776  20.241  0.00  0.00    +0.000 C 
ATOM     27  C   UNL     1       9.644  10.881  19.031  0.00  0.00    +0.000 C 
ATOM     28  N   UNL     1      10.135  11.244  17.883  0.00  0.00    +0.000 NA
BRANCH  23  29
ATOM     29  N   UNL     1      11.500  12.616  16.763  0.00  0.00    +0.000 NA
ATOM     30  H   UNL     1      11.647  11.711  16.316  0.00  0.00    +0.000 HD
ATOM     31  H   UNL     1      12.407  12.885  17.146  0.00  0.00    +0.000 HD
ENDBRANCH  23  29
ENDBRANCH  22  27
ENDBRANCH  21  22
ENDBRANCH   1  21
TORSDOF 6
ENDMDL
MODEL 2
REMARK VINA RESULT:      -8.3      0.824      1.228
REMARK  Name = 
REMARK  6 active torsions:
REMARK  status: ('A' for Active; 'I' for Inactive)
REMARK    1  A    between atoms: N_1  and  N_2
REMARK    2  A    between atoms: C_6  and  C_7
REMARK    3  A    between atoms: C_7  and  C_8
REMARK    4  A    between atoms: C_8  and  C_9
REMARK    5  A    between atoms: C_13  and  N_14
REMARK    6  A    between atoms: C_21  and  C_22
REMARK                            x       y       z     vdW  Elec       q    Type
REMARK                         _______ _______ _______ _____ _____    ______ ____
ROOT
ATOM      1  C   UNL     1       7.803   7.690  17.825  0.00  0.00    +0.000 A 
ATOM      2  C   UNL     1       7.834   6.889  18.977  0.00  0.00    +0.000 A 
ATOM      3  C   UNL     1       7.719   5.506  18.895  0.00  0.00    +0.000 A 
ATOM      4  C   UNL     1       7.430   4.911  17.676  0.00  0.00    +0.000 A 
ATOM      5  C   UNL     1       7.106   5.722  16.579  0.00  0.00    +0.000 A 
ATOM      6  C   UNL     1       7.453   7.081  16.610  0.00  0.00    +0.000 A 
ENDROOT
BRANCH   5   7
ATOM      7  N   UNL     1       6.016   5.308  15.695  0.00  0.00    +0.000 N 
ATOM      8  C   UNL     1       4.833   6.180  15.895  0.00  0.00    +0.000 C 
ATOM      9  C   UNL     1       4.085   5.446  16.967  0.00  0.00    +0.000 A 
ATOM     10  C   UNL     1       4.415   4.092  16.849  0.00  0.00    +0.000 A 
ATOM     11  C   UNL     1       4.032   3.140  17.779  0.00  0.00    +0.000 A 
ATOM     12  C   UNL     1       3.298   3.583  18.878  0.00  0.00    +0.000 A 
ATOM     13  C   UNL     1       2.969   4.945  19.018  0.00  0.00    +0.000 A 
ATOM     14  C   UNL     1       3.358   5.907  18.060  0.00  0.00    +0.000 A 
ATOM     15  C   UNL     1       5.541   3.983  15.891  0.00  0.00    +0.000 C 
ATOM     16  O   UNL     1       6.058   2.932  15.554  0.00  0.00    +0.000 OA
BRANCH  14  17
ATOM     17  C   UNL     1       3.072   7.363  18.322  0.00  0.00    +0.000 C 
ATOM     18  F   UNL     1       2.583   7.620  19.565  0.00  0.00    +0.000 F 
ATOM     19  F   UNL     1       4.187   8.134  18.200  0.00  0.00    +0.000 F 
ATOM     20  F   UNL     1       2.162   7.879  17.450  0.00  0.00    +0.000 F 
ENDBRANCH  14  17
ENDBRANCH   5   7
BRANCH   1  21
ATOM     21  C   UNL     1       7.983   9.194  17.886  0.00  0.00    +0.000 C 
BRANCH  21  22
ATOM     22  C   UNL     1       9.072   9.628  18.864  0.00  0.00    +0.000 C 
BRANCH  22  27
ATOM     23  N   UNL     1       9.105  13.211  18.290  0.00  0.00    +0.000 N 
ATOM     24  C   UNL     1      10.541  13.465  18.028  0.00  0.00    +0.000 C 
ATOM     25  N   UNL     1      11.474  12.520  18.667  0.00  0.00    +0.000 NA
ATOM     26  C   UNL     1      10.940  11.387  18.950  0.00  0.00    +0.000 C 
ATOM     27  C   UNL     1       9.500  11.052  18.668  0.00  0.00    +0.000 C 
ATOM     28  N   UNL     1       8.637  11.953  18.304  0.00  0.00    +0.000 NA
BRANCH  23  29
ATOM     29  N   UNL     1       8.279  13.989  17.450  0.00  0.00    +0.000 NA
ATOM     30  H   UNL     1       8.832  14.654  16.911  0.00  0.00    +0.000 HD
ATOM     31  H   UNL     1       7.671  14.553  18.045  0.00  0.00    +0.000 HD
ENDBRANCH  23  29
ENDBRANCH  22  27
ENDBRANCH  21  22
ENDBRANCH   1  21
TORSDOF 6
ENDMDL
MODEL 3
REMARK VINA RESULT:      -8.2      5.646      8.168
REMARK  Name = 
REMARK  6 active torsions:
REMARK  status: ('A' for Active; 'I' for Inactive)
REMARK    1  A    between atoms: N_1  and  N_2
REMARK    2  A    between atoms: C_6  and  C_7
REMARK    3  A    between atoms: C_7  and  C_8
REMARK    4  A    between atoms: C_8  and  C_9
REMARK    5  A    between atoms: C_13  and  N_14
REMARK    6  A    between atoms: C_21  and  C_22
REMARK                            x       y       z     vdW  Elec       q    Type
REMARK                         _______ _______ _______ _____ _____    ______ ____
ROOT
ATOM      1  C   UNL     1       1.353   9.322  19.274  0.00  0.00    +0.000 A 
ATOM      2  C   UNL     1       0.966   8.680  20.460  0.00  0.00    +0.000 A 
ATOM      3  C   UNL     1       1.538   7.472  20.843  0.00  0.00    +0.000 A 
ATOM      4  C   UNL     1       2.403   6.816  19.980  0.00  0.00    +0.000 A 
ATOM      5  C   UNL     1       2.565   7.302  18.675  0.00  0.00    +0.000 A 
ATOM      6  C   UNL     1       2.182   8.621  18.386  0.00  0.00    +0.000 A 
ENDROOT
BRANCH   5   7
ATOM      7  N   UNL     1       2.631   6.344  17.570  0.00  0.00    +0.000 N 
ATOM      8  C   UNL     1       1.713   5.207  17.822  0.00  0.00    +0.000 C 
ATOM      9  C   UNL     1       2.603   4.247  18.553  0.00  0.00    +0.000 A 
ATOM     10  C   UNL     1       3.915   4.499  18.137  0.00  0.00    +0.000 A 
ATOM     11  C   UNL     1       5.018   3.906  18.727  0.00  0.00    +0.000 A 
ATOM     12  C   UNL     1       4.782   3.036  19.789  0.00  0.00    +0.000 A 
ATOM     13  C   UNL     1       3.468   2.782  20.229  0.00  0.00    +0.000 A 
ATOM     14  C   UNL     1       2.349   3.385  19.615  0.00  0.00    +0.000 A 
ATOM     15  C   UNL     1       3.905   5.755  17.350  0.00  0.00    +0.000 C 
ATOM     16  O   UNL     1       4.891   6.247  16.829  0.00  0.00    +0.000 OA
BRANCH  14  17
ATOM     17  C   UNL     1       0.978   3.160  20.202  0.00  0.00    +0.000 C 
ATOM     18  F   UNL     1       0.301   4.303  20.492  0.00  0.00    +0.000 F 
ATOM     19  F   UNL     1       0.170   2.459  19.361  0.00  0.00    +0.000 F 
ATOM     20  F   UNL     1       1.021   2.448  21.362  0.00  0.00    +0.000 F 
ENDBRANCH  14  17
ENDBRANCH   5   7
BRANCH   1  21
ATOM     21  C   UNL     1       0.783  10.666  18.865  0.00  0.00    +0.000 C 
BRANCH  21  22
ATOM     22  C   UNL     1      -0.583  10.952  19.483  0.00  0.00    +0.000 C 
BRANCH  22  27
ATOM     23  N   UNL     1      -3.579  11.749  17.597  0.00  0.00    +0.000 N 
ATOM     24  C   UNL     1      -3.738  10.541  16.751  0.00  0.00    +0.000 C 
ATOM     25  N   UNL     1      -2.490   9.824  16.438  0.00  0.00    +0.000 NA
ATOM     26  C   UNL     1      -1.548  10.044  17.282  0.00  0.00    +0.000 C 
ATOM     27  C   UNL     1      -1.694  10.951  18.474  0.00  0.00    +0.000 C 
ATOM     28  N   UNL     1      -2.717  11.739  18.626  0.00  0.00    +0.000 NA
BRANCH  23  29
ATOM     29  N   UNL     1      -4.825  12.225  18.059  0.00  0.00    +0.000 NA
ATOM     30  H   UNL     1      -5.145  11.686  18.862  0.00  0.00    +0.000 HD
ATOM     31  H   UNL     1      -5.515  12.060  17.324  0.00  0.00    +0.000 HD
ENDBRANCH  23  29
ENDBRANCH  22  27
ENDBRANCH  21  22
ENDBRANCH   1  21
TORSDOF 6
ENDMDL
MODEL 4
REMARK VINA RESULT:      -8.2      4.188      9.005
REMARK  Name = 
REMARK  6 active torsions:
REMARK  status: ('A' for Active; 'I' for Inactive)
REMARK    1  A    between atoms: N_1  and  N_2
REMARK    2  A    between atoms: C_6  and  C_7
REMARK    3  A    between atoms: C_7  and  C_8
REMARK    4  A    between atoms: C_8  and  C_9
REMARK    5  A    between atoms: C_13  and  N_14
REMARK    6  A    between atoms: C_21  and  C_22
REMARK                            x       y       z     vdW  Elec       q    Type
REMARK                         _______ _______ _______ _____ _____    ______ ____
ROOT
ATOM      1  C   UNL     1       9.087  10.621  18.275  0.00  0.00    +0.000 A 
ATOM      2  C   UNL     1       8.177  11.549  17.746  0.00  0.00    +0.000 A 
ATOM      3  C   UNL     1       8.564  12.852  17.458  0.00  0.00    +0.000 A 
ATOM      4  C   UNL     1       9.827  13.291  17.823  0.00  0.00    +0.000 A 
ATOM      5  C   UNL     1      10.636  12.463  18.615  0.00  0.00    +0.000 A 
ATOM      6  C   UNL     1      10.340  11.094  18.692  0.00  0.00    +0.000 A 
ENDROOT
BRANCH   5   7
ATOM      7  N   UNL     1      11.410  13.065  19.701  0.00  0.00    +0.000 N 
ATOM      8  C   UNL     1      10.981  12.508  21.006  0.00  0.00    +0.000 C 
ATOM      9  C   UNL     1       9.896  13.462  21.408  0.00  0.00    +0.000 A 
ATOM     10  C   UNL     1      10.181  14.691  20.805  0.00  0.00    +0.000 A 
ATOM     11  C   UNL     1       9.303  15.762  20.828  0.00  0.00    +0.000 A 
ATOM     12  C   UNL     1       8.084  15.572  21.475  0.00  0.00    +0.000 A 
ATOM     13  C   UNL     1       7.776  14.336  22.075  0.00  0.00    +0.000 A 
ATOM     14  C   UNL     1       8.682  13.253  22.054  0.00  0.00    +0.000 A 
ATOM     15  C   UNL     1      11.280  14.474  19.834  0.00  0.00    +0.000 C 
ATOM     16  O   UNL     1      11.777  15.352  19.151  0.00  0.00    +0.000 OA
BRANCH  14  17
ATOM     17  C   UNL     1       8.250  11.922  22.617  0.00  0.00    +0.000 C 
ATOM     18  F   UNL     1       8.744  11.654  23.855  0.00  0.00    +0.000 F 
ATOM     19  F   UNL     1       6.897  11.831  22.734  0.00  0.00    +0.000 F 
ATOM     20  F   UNL     1       8.630  10.878  21.830  0.00  0.00    +0.000 F 
ENDBRANCH  14  17
ENDBRANCH   5   7
BRANCH   1  21
ATOM     21  C   UNL     1       8.702   9.180  18.545  0.00  0.00    +0.000 C 
BRANCH  21  22
ATOM     22  C   UNL     1       7.652   8.648  17.572  0.00  0.00    +0.000 C 
BRANCH  22  27
ATOM     23  N   UNL     1       7.433   5.195  16.478  0.00  0.00    +0.000 N 
ATOM     24  C   UNL     1       7.188   4.485  17.756  0.00  0.00    +0.000 C 
ATOM     25  N   UNL     1       7.724   5.147  18.958  0.00  0.00    +0.000 NA
ATOM     26  C   UNL     1       7.898   6.411  18.810  0.00  0.00    +0.000 C 
ATOM     27  C   UNL     1       7.595   7.150  17.534  0.00  0.00    +0.000 C 
ATOM     28  N   UNL     1       7.326   6.532  16.422  0.00  0.00    +0.000 NA
BRANCH  23  29
ATOM     29  N   UNL     1       6.679   4.639  15.423  0.00  0.00    +0.000 NA
ATOM     30  H   UNL     1       7.141   4.788  14.527  0.00  0.00    +0.000 HD
ATOM     31  H   UNL     1       5.797   5.150  15.366  0.00  0.00    +0.000 HD
ENDBRANCH  23  29
ENDBRANCH  22  27
ENDBRANCH  21  22
ENDBRANCH   1  21
TORSDOF 6
ENDMDL
MODEL 5
REMARK VINA RESULT:      -8.1      4.691      6.803
REMARK  Name = 
REMARK  6 active torsions:
REMARK  status: ('A' for Active; 'I' for Inactive)
REMARK    1  A    between atoms: N_1  and  N_2
REMARK    2  A    between atoms: C_6  and  C_7
REMARK    3  A    between atoms: C_7  and  C_8
REMARK    4  A    between atoms: C_8  and  C_9
REMARK    5  A    between atoms: C_13  and  N_14
REMARK    6  A    between atoms: C_21  and  C_22
REMARK                            x       y       z     vdW  Elec       q    Type
REMARK                         _______ _______ _______ _____ _____    ______ ____
ROOT
ATOM      1  C   UNL     1       2.019   7.429  19.951  0.00  0.00    +0.000 A 
ATOM      2  C   UNL     1       2.408   8.186  18.835  0.00  0.00    +0.000 A 
ATOM      3  C   UNL     1       2.900   7.575  17.688  0.00  0.00    +0.000 A 
ATOM      4  C   UNL     1       3.144   6.210  17.686  0.00  0.00    +0.000 A 
ATOM      5  C   UNL     1       3.037   5.494  18.888  0.00  0.00    +0.000 A 
ATOM      6  C   UNL     1       2.325   6.060  19.956  0.00  0.00    +0.000 A 
ENDROOT
BRANCH   5   7
ATOM      7  N   UNL     1       4.040   4.472  19.190  0.00  0.00    +0.000 N 
ATOM      8  C   UNL     1       5.386   5.086  19.282  0.00  0.00    +0.000 C 
ATOM      9  C   UNL     1       5.874   4.978  17.869  0.00  0.00    +0.000 A 
ATOM     10  C   UNL     1       5.230   3.878  17.292  0.00  0.00    +0.000 A 
ATOM     11  C   UNL     1       5.319   3.578  15.943  0.00  0.00    +0.000 A 
ATOM     12  C   UNL     1       6.078   4.434  15.148  0.00  0.00    +0.000 A 
ATOM     13  C   UNL     1       6.720   5.554  15.711  0.00  0.00    +0.000 A 
ATOM     14  C   UNL     1       6.631   5.847  17.089  0.00  0.00    +0.000 A 
ATOM     15  C   UNL     1       4.166   3.438  18.224  0.00  0.00    +0.000 C 
ATOM     16  O   UNL     1       3.428   2.489  18.025  0.00  0.00    +0.000 OA
BRANCH  14  17
ATOM     17  C   UNL     1       7.248   7.120  17.611  0.00  0.00    +0.000 C 
ATOM     18  F   UNL     1       7.948   6.966  18.767  0.00  0.00    +0.000 F 
ATOM     19  F   UNL     1       8.124   7.666  16.723  0.00  0.00    +0.000 F 
ATOM     20  F   UNL     1       6.319   8.083  17.863  0.00  0.00    +0.000 F 
ENDBRANCH  14  17
ENDBRANCH   5   7
BRANCH   1  21
ATOM     21  C   UNL     1       1.428   8.070  21.192  0.00  0.00    +0.000 C 
BRANCH  21  22
ATOM     22  C   UNL     1      -0.004   8.558  20.990  0.00  0.00    +0.000 C 
BRANCH  22  27
ATOM     23  N   UNL     1      -0.785  11.675  19.303  0.00  0.00    +0.000 N 
ATOM     24  C   UNL     1       0.206  12.601  19.901  0.00  0.00    +0.000 C 
ATOM     25  N   UNL     1       0.650  12.256  21.262  0.00  0.00    +0.000 NA
ATOM     26  C   UNL     1       0.500  11.013  21.549  0.00  0.00    +0.000 C 
ATOM     27  C   UNL     1      -0.080  10.003  20.596  0.00  0.00    +0.000 C 
ATOM     28  N   UNL     1      -0.661  10.350  19.485  0.00  0.00    +0.000 NA
BRANCH  23  29
ATOM     29  N   UNL     1      -0.964  11.924  17.926  0.00  0.00    +0.000 NA
ATOM     30  H   UNL     1      -1.900  12.280  17.738  0.00  0.00    +0.000 HD
ATOM     31  H   UNL     1      -0.906  11.030  17.436  0.00  0.00    +0.000 HD
ENDBRANCH  23  29
ENDBRANCH  22  27
ENDBRANCH  21  22
ENDBRANCH   1  21
TORSDOF 6
ENDMDL
MODEL 6
REMARK VINA RESULT:      -8.1      4.937      7.065
REMARK  Name = 
REMARK  6 active torsions:
REMARK  status: ('A' for Active; 'I' for Inactive)
REMARK    1  A    between atoms: N_1  and  N_2
REMARK    2  A    between atoms: C_6  and  C_7
REMARK    3  A    between atoms: C_7  and  C_8
REMARK    4  A    between atoms: C_8  and  C_9
REMARK    5  A    between atoms: C_13  and  N_14
REMARK    6  A    between atoms: C_21  and  C_22
REMARK                            x       y       z     vdW  Elec       q    Type
REMARK                         _______ _______ _______ _____ _____    ______ ____
ROOT
ATOM      1  C   UNL     1       1.859   7.125  19.902  0.00  0.00    +0.000 A 
ATOM      2  C   UNL     1       2.356   8.069  18.991  0.00  0.00    +0.000 A 
ATOM      3  C   UNL     1       3.067   7.675  17.863  0.00  0.00    +0.000 A 
ATOM      4  C   UNL     1       3.414   6.342  17.700  0.00  0.00    +0.000 A 
ATOM      5  C   UNL     1       3.179   5.441  18.748  0.00  0.00    +0.000 A 
ATOM      6  C   UNL     1       2.267   5.791  19.756  0.00  0.00    +0.000 A 
ENDROOT
BRANCH   5   7
ATOM      7  N   UNL     1       4.199   4.439  19.058  0.00  0.00    +0.000 N 
ATOM      8  C   UNL     1       5.528   5.084  19.188  0.00  0.00    +0.000 C 
ATOM      9  C   UNL     1       6.048   5.008  17.784  0.00  0.00    +0.000 A 
ATOM     10  C   UNL     1       5.444   3.901  17.177  0.00  0.00    +0.000 A 
ATOM     11  C   UNL     1       5.569   3.622  15.827  0.00  0.00    +0.000 A 
ATOM     12  C   UNL     1       6.323   4.508  15.060  0.00  0.00    +0.000 A 
ATOM     13  C   UNL     1       6.926   5.635  15.652  0.00  0.00    +0.000 A 
ATOM     14  C   UNL     1       6.800   5.906  17.033  0.00  0.00    +0.000 A 
ATOM     15  C   UNL     1       4.371   3.422  18.080  0.00  0.00    +0.000 C 
ATOM     16  O   UNL     1       3.661   2.458  17.852  0.00  0.00    +0.000 OA
BRANCH  14  17
ATOM     17  C   UNL     1       7.375   7.185  17.585  0.00  0.00    +0.000 C 
ATOM     18  F   UNL     1       8.240   7.816  16.747  0.00  0.00    +0.000 F 
ATOM     19  F   UNL     1       6.409   8.100  17.871  0.00  0.00    +0.000 F 
ATOM     20  F   UNL     1       8.059   6.988  18.746  0.00  0.00    +0.000 F 
ENDBRANCH  14  17
ENDBRANCH   5   7
BRANCH   1  21
ATOM     21  C   UNL     1       1.034   7.528  21.109  0.00  0.00    +0.000 C 
BRANCH  21  22
ATOM     22  C   UNL     1       1.489   8.845  21.733  0.00  0.00    +0.000 C 
BRANCH  22  27
ATOM     23  N   UNL     1      -0.954  11.380  20.850  0.00  0.00    +0.000 N 
ATOM     24  C   UNL     1      -1.334  11.912  22.180  0.00  0.00    +0.000 C 
ATOM     25  N   UNL     1      -1.200  10.965  23.300  0.00  0.00    +0.000 NA
ATOM     26  C   UNL     1      -0.364  10.017  23.070  0.00  0.00    +0.000 C 
ATOM     27  C   UNL     1       0.401   9.877  21.781  0.00  0.00    +0.000 C 
ATOM     28  N   UNL     1       0.122  10.586  20.728  0.00  0.00    +0.000 NA
BRANCH  23  29
ATOM     29  N   UNL     1      -0.866  12.407  19.886  0.00  0.00    +0.000 NA
ATOM     30  H   UNL     1      -0.755  13.316  20.332  0.00  0.00    +0.000 HD
ATOM     31  H   UNL     1      -1.759  12.450  19.392  0.00  0.00    +0.000 HD
ENDBRANCH  23  29
ENDBRANCH  22  27
ENDBRANCH  21  22
ENDBRANCH   1  21
TORSDOF 6
ENDMDL
MODEL 7
REMARK VINA RESULT:      -8.0      4.793      6.641
REMARK  Name = 
REMARK  6 active torsions:
REMARK  status: ('A' for Active; 'I' for Inactive)
REMARK    1  A    between atoms: N_1  and  N_2
REMARK    2  A    between atoms: C_6  and  C_7
REMARK    3  A    between atoms: C_7  and  C_8
REMARK    4  A    between atoms: C_8  and  C_9
REMARK    5  A    between atoms: C_13  and  N_14
REMARK    6  A    between atoms: C_21  and  C_22
REMARK                            x       y       z     vdW  Elec       q    Type
REMARK                         _______ _______ _______ _____ _____    ______ ____
ROOT
ATOM      1  C   UNL     1       2.236   5.894  20.179  0.00  0.00    +0.000 A 
ATOM      2  C   UNL     1       1.219   5.099  20.731  0.00  0.00    +0.000 A 
ATOM      3  C   UNL     1       1.412   3.742  20.961  0.00  0.00    +0.000 A 
ATOM      4  C   UNL     1       2.573   3.127  20.516  0.00  0.00    +0.000 A 
ATOM      5  C   UNL     1       3.461   3.849  19.705  0.00  0.00    +0.000 A 
ATOM      6  C   UNL     1       3.378   5.249  19.682  0.00  0.00    +0.000 A 
ENDROOT
BRANCH   5   7
ATOM      7  N   UNL     1       4.078   3.174  18.562  0.00  0.00    +0.000 N 
ATOM      8  C   UNL     1       5.547   3.370  18.583  0.00  0.00    +0.000 C 
ATOM      9  C   UNL     1       5.704   4.624  17.778  0.00  0.00    +0.000 A 
ATOM     10  C   UNL     1       4.624   4.685  16.891  0.00  0.00    +0.000 A 
ATOM     11  C   UNL     1       4.359   5.793  16.104  0.00  0.00    +0.000 A 
ATOM     12  C   UNL     1       5.214   6.885  16.232  0.00  0.00    +0.000 A 
ATOM     13  C   UNL     1       6.299   6.845  17.129  0.00  0.00    +0.000 A 
ATOM     14  C   UNL     1       6.566   5.707  17.922  0.00  0.00    +0.000 A 
ATOM     15  C   UNL     1       3.658   3.633  17.285  0.00  0.00    +0.000 C 
ATOM     16  O   UNL     1       2.611   3.409  16.702  0.00  0.00    +0.000 OA
BRANCH  14  17
ATOM     17  C   UNL     1       7.674   5.766  18.943  0.00  0.00    +0.000 C 
ATOM     18  F   UNL     1       7.251   5.662  20.231  0.00  0.00    +0.000 F 
ATOM     19  F   UNL     1       8.581   4.766  18.773  0.00  0.00    +0.000 F 
ATOM     20  F   UNL     1       8.380   6.929  18.876  0.00  0.00    +0.000 F 
ENDBRANCH  14  17
ENDBRANCH   5   7
BRANCH   1  21
ATOM     21  C   UNL     1       2.066   7.386  19.971  0.00  0.00    +0.000 C 
BRANCH  21  22
ATOM     22  C   UNL     1       1.161   8.038  21.013  0.00  0.00    +0.000 C 
BRANCH  22  27
ATOM     23  N   UNL     1       0.635  11.224  19.356  0.00  0.00    +0.000 N 
ATOM     24  C   UNL     1       0.673  12.170  20.497  0.00  0.00    +0.000 C 
ATOM     25  N   UNL     1       0.259  11.609  21.795  0.00  0.00    +0.000 NA
ATOM     26  C   UNL     1       0.378  10.332  21.861  0.00  0.00    +0.000 C 
ATOM     27  C   UNL     1       0.882   9.483  20.724  0.00  0.00    +0.000 C 
ATOM     28  N   UNL     1       1.041   9.955  19.523  0.00  0.00    +0.000 NA
BRANCH  23  29
ATOM     29  N   UNL     1       1.280  11.756  18.220  0.00  0.00    +0.000 NA
ATOM     30  H   UNL     1       0.614  11.917  17.465  0.00  0.00    +0.000 HD
ATOM     31  H   UNL     1       1.928  11.049  17.869  0.00  0.00    +0.000 HD
ENDBRANCH  23  29
ENDBRANCH  22  27
ENDBRANCH  21  22
ENDBRANCH   1  21
TORSDOF 6
ENDMDL
MODEL 8
REMARK VINA RESULT:      -8.0      5.607      7.953
REMARK  Name = 
REMARK  6 active torsions:
REMARK  status: ('A' for Active; 'I' for Inactive)
REMARK    1  A    between atoms: N_1  and  N_2
REMARK    2  A    between atoms: C_6  and  C_7
REMARK    3  A    between atoms: C_7  and  C_8
REMARK    4  A    between atoms: C_8  and  C_9
REMARK    5  A    between atoms: C_13  and  N_14
REMARK    6  A    between atoms: C_21  and  C_22
REMARK                            x       y       z     vdW  Elec       q    Type
REMARK                         _______ _______ _______ _____ _____    ______ ____
ROOT
ATOM      1  C   UNL     1       1.467   8.801  19.280  0.00  0.00    +0.000 A 
ATOM      2  C   UNL     1       2.164   9.130  18.107  0.00  0.00    +0.000 A 
ATOM      3  C   UNL     1       2.868   8.166  17.395  0.00  0.00    +0.000 A 
ATOM      4  C   UNL     1       3.004   6.888  17.917  0.00  0.00    +0.000 A 
ATOM      5  C   UNL     1       2.564   6.633  19.224  0.00  0.00    +0.000 A 
ATOM      6  C   UNL     1       1.661   7.524  19.824  0.00  0.00    +0.000 A 
ENDROOT
BRANCH   5   7
ATOM      7  N   UNL     1       3.388   5.793  20.093  0.00  0.00    +0.000 N 
ATOM      8  C   UNL     1       4.616   5.367  19.380  0.00  0.00    +0.000 C 
ATOM      9  C   UNL     1       4.178   4.080  18.749  0.00  0.00    +0.000 A 
ATOM     10  C   UNL     1       3.162   3.550  19.552  0.00  0.00    +0.000 A 
ATOM     11  C   UNL     1       2.412   2.446  19.184  0.00  0.00    +0.000 A 
ATOM     12  C   UNL     1       2.693   1.867  17.949  0.00  0.00    +0.000 A 
ATOM     13  C   UNL     1       3.703   2.396  17.122  0.00  0.00    +0.000 A 
ATOM     14  C   UNL     1       4.469   3.518  17.510  0.00  0.00    +0.000 A 
ATOM     15  C   UNL     1       2.776   4.589  20.536  0.00  0.00    +0.000 C 
ATOM     16  O   UNL     1       1.925   4.439  21.395  0.00  0.00    +0.000 OA
BRANCH  14  17
ATOM     17  C   UNL     1       5.459   4.104  16.536  0.00  0.00    +0.000 C 
ATOM     18  F   UNL     1       5.037   5.247  15.932  0.00  0.00    +0.000 F 
ATOM     19  F   UNL     1       6.640   4.421  17.134  0.00  0.00    +0.000 F 
ATOM     20  F   UNL     1       5.768   3.242  15.528  0.00  0.00    +0.000 F 
ENDBRANCH  14  17
ENDBRANCH   5   7
BRANCH   1  21
ATOM     21  C   UNL     1       0.647   9.825  20.041  0.00  0.00    +0.000 C 
BRANCH  21  22
ATOM     22  C   UNL     1       0.273  11.041  19.198  0.00  0.00    +0.000 C 
BRANCH  22  27
ATOM     23  N   UNL     1      -2.660  10.110  17.274  0.00  0.00    +0.000 N 
ATOM     24  C   UNL     1      -3.586  11.230  17.569  0.00  0.00    +0.000 C 
ATOM     25  N   UNL     1      -3.380  11.891  18.869  0.00  0.00    +0.000 NA
ATOM     26  C   UNL     1      -2.194  11.741  19.337  0.00  0.00    +0.000 C 
ATOM     27  C   UNL     1      -1.115  10.959  18.636  0.00  0.00    +0.000 C 
ATOM     28  N   UNL     1      -1.362  10.207  17.605  0.00  0.00    +0.000 NA
BRANCH  23  29
ATOM     29  N   UNL     1      -2.751   9.703  15.926  0.00  0.00    +0.000 NA
ATOM     30  H   UNL     1      -2.005  10.117  15.369  0.00  0.00    +0.000 HD
ATOM     31  H   UNL     1      -3.620  10.078  15.544  0.00  0.00    +0.000 HD
ENDBRANCH  23  29
ENDBRANCH  22  27
ENDBRANCH  21  22
ENDBRANCH   1  21
TORSDOF 6
ENDMDL
MODEL 9
REMARK VINA RESULT:      -8.0      5.086      6.858
REMARK  Name = 
REMARK  6 active torsions:
REMARK  status: ('A' for Active; 'I' for Inactive)
REMARK    1  A    between atoms: N_1  and  N_2
REMARK    2  A    between atoms: C_6  and  C_7
REMARK    3  A    between atoms: C_7  and  C_8
REMARK    4  A    between atoms: C_8  and  C_9
REMARK    5  A    between atoms: C_13  and  N_14
REMARK    6  A    between atoms: C_21  and  C_22
REMARK                            x       y       z     vdW  Elec       q    Type
REMARK                         _______ _______ _______ _____ _____    ______ ____
ROOT
ATOM      1  C   UNL     1       2.249   5.965  20.141  0.00  0.00    +0.000 A 
ATOM      2  C   UNL     1       1.209   5.206  20.699  0.00  0.00    +0.000 A 
ATOM      3  C   UNL     1       1.370   3.851  20.964  0.00  0.00    +0.000 A 
ATOM      4  C   UNL     1       2.521   3.201  20.546  0.00  0.00    +0.000 A 
ATOM      5  C   UNL     1       3.434   3.883  19.729  0.00  0.00    +0.000 A 
ATOM      6  C   UNL     1       3.383   5.284  19.672  0.00  0.00    +0.000 A 
ENDROOT
BRANCH   5   7
ATOM      7  N   UNL     1       4.048   3.168  18.610  0.00  0.00    +0.000 N 
ATOM      8  C   UNL     1       5.520   3.348  18.632  0.00  0.00    +0.000 C 
ATOM      9  C   UNL     1       5.695   4.576  17.790  0.00  0.00    +0.000 A 
ATOM     10  C   UNL     1       4.619   4.623  16.897  0.00  0.00    +0.000 A 
ATOM     11  C   UNL     1       4.369   5.709  16.076  0.00  0.00    +0.000 A 
ATOM     12  C   UNL     1       5.236   6.796  16.176  0.00  0.00    +0.000 A 
ATOM     13  C   UNL     1       6.316   6.770  17.079  0.00  0.00    +0.000 A 
ATOM     14  C   UNL     1       6.567   5.654  17.907  0.00  0.00    +0.000 A 
ATOM     15  C   UNL     1       3.639   3.593  17.317  0.00  0.00    +0.000 C 
ATOM     16  O   UNL     1       2.592   3.364  16.737  0.00  0.00    +0.000 OA
BRANCH  14  17
ATOM     17  C   UNL     1       7.671   5.731  18.930  0.00  0.00    +0.000 C 
ATOM     18  F   UNL     1       7.243   5.652  20.219  0.00  0.00    +0.000 F 
ATOM     19  F   UNL     1       8.578   4.727  18.783  0.00  0.00    +0.000 F 
ATOM     20  F   UNL     1       8.379   6.891  18.844  0.00  0.00    +0.000 F 
ENDBRANCH  14  17
ENDBRANCH   5   7
BRANCH   1  21
ATOM     21  C   UNL     1       2.115   7.455  19.896  0.00  0.00    +0.000 C 
BRANCH  21  22
ATOM     22  C   UNL     1       1.333   8.175  20.991  0.00  0.00    +0.000 C 
BRANCH  22  27
ATOM     23  N   UNL     1       0.598  11.729  21.010  0.00  0.00    +0.000 N 
ATOM     24  C   UNL     1      -0.180  11.886  19.759  0.00  0.00    +0.000 C 
ATOM     25  N   UNL     1       0.126  10.909  18.700  0.00  0.00    +0.000 NA
ATOM     26  C   UNL     1       0.643   9.820  19.143  0.00  0.00    +0.000 C 
ATOM     27  C   UNL     1       0.920   9.563  20.600  0.00  0.00    +0.000 C 
ATOM     28  N   UNL     1       0.847  10.502  21.496  0.00  0.00    +0.000 NA
BRANCH  23  29
ATOM     29  N   UNL     1       0.074  12.526  22.050  0.00  0.00    +0.000 NA
ATOM     30  H   UNL     1       0.026  13.505  21.769  0.00  0.00    +0.000 HD
ATOM     31  H   UNL     1       0.733  12.496  22.829  0.00  0.00    +0.000 HD
ENDBRANCH  23  29
ENDBRANCH  22  27
ENDBRANCH  21  22
ENDBRANCH   1  21
TORSDOF 6
ENDMDL
