MODEL 1
REMARK VINA RESULT:      -8.8      0.000      0.000
REMARK  Name = 
REMARK  5 active torsions:
REMARK  status: ('A' for Active; 'I' for Inactive)
REMARK    1  A    between atoms: C_2  and  C_3
REMARK    2  A    between atoms: C_3  and  C_4
REMARK    3  A    between atoms: N_7  and  C_8
REMARK    4  A    between atoms: N_15  and  C_16
REMARK    5  A    between atoms: C_20  and  C_21
REMARK                            x       y       z     vdW  Elec       q    Type
REMARK                         _______ _______ _______ _____ _____    ______ ____
ROOT
ATOM      1  O   UNL     1       1.683   4.817  18.361  0.00  0.00    +0.000 OA
ATOM      2  C   UNL     1       2.820   5.177  18.653  0.00  0.00    +0.000 C 
ATOM      3  N   UNL     1       3.223   6.480  18.899  0.00  0.00    +0.000 N 
ATOM      4  H   UNL     1       4.223   6.653  18.938  0.00  0.00    +0.000 HD
ENDROOT
BRANCH   3   5
ATOM      5  C   UNL     1       2.385   7.617  18.933  0.00  0.00    +0.000 A 
ATOM      6  C   UNL     1       2.007   8.320  17.788  0.00  0.00    +0.000 A 
ATOM      7  C   UNL     1       1.197   9.453  17.880  0.00  0.00    +0.000 A 
ATOM      8  C   UNL     1       0.725   9.873  19.120  0.00  0.00    +0.000 A 
ATOM      9  C   UNL     1       1.039   9.148  20.277  0.00  0.00    +0.000 A 
ATOM     10  C   UNL     1       1.889   8.033  20.176  0.00  0.00    +0.000 A 
BRANCH   9  11
ATOM     11  C   UNL     1       0.467   9.516  21.564  0.00  0.00    +0.000 A 
ATOM     12  N   UNL     1      -0.576  10.285  21.812  0.00  0.00    +0.000 NA
ATOM     13  N   UNL     1      -0.683  10.366  23.181  0.00  0.00    +0.000 NA
ATOM     14  N   UNL     1       0.284   9.684  23.774  0.00  0.00    +0.000 NA
ATOM     15  N   UNL     1       1.002   9.161  22.773  0.00  0.00    +0.000 N 
ATOM     16  H   UNL     1       1.835   8.626  22.976  0.00  0.00    +0.000 HD
ENDBRANCH   9  11
ENDBRANCH   3   5
BRANCH   2  17
ATOM     17  C   UNL     1       3.926   4.146  18.804  0.00  0.00    +0.000 C 
BRANCH  17  18
ATOM     18  C   UNL     1       5.020   4.270  17.803  0.00  0.00    +0.000 A 
ATOM     19  C   UNL     1       6.387   4.553  17.995  0.00  0.00    +0.000 A 
ATOM     20  N   UNL     1       7.074   4.568  16.853  0.00  0.00    +0.000 NA
ATOM     21  N   UNL     1       6.146   4.363  15.882  0.00  0.00    +0.000 N 
ATOM     22  C   UNL     1       4.897   4.170  16.433  0.00  0.00    +0.000 A 
BRANCH  21  23
ATOM     23  C   UNL     1       6.499   4.358  14.505  0.00  0.00    +0.000 A 
ATOM     24  C   UNL     1       5.836   3.493  13.622  0.00  0.00    +0.000 A 
ATOM     25  C   UNL     1       6.171   3.483  12.266  0.00  0.00    +0.000 A 
ATOM     26  C   UNL     1       7.172   4.328  11.789  0.00  0.00    +0.000 A 
ATOM     27  C   UNL     1       7.840   5.185  12.660  0.00  0.00    +0.000 A 
ATOM     28  C   UNL     1       7.503   5.205  14.014  0.00  0.00    +0.000 A 
ENDBRANCH  21  23
ENDBRANCH  17  18
ENDBRANCH   2  17
TORSDOF 5
ENDMDL
MODEL 2
REMARK VINA RESULT:      -8.6      0.274      1.179
REMARK  Name = 
REMARK  5 active torsions:
REMARK  status: ('A' for Active; 'I' for Inactive)
REMARK    1  A    between atoms: C_2  and  C_3
REMARK    2  A    between atoms: C_3  and  C_4
REMARK    3  A    between atoms: N_7  and  C_8
REMARK    4  A    between atoms: N_15  and  C_16
REMARK    5  A    between atoms: C_20  and  C_21
REMARK                            x       y       z     vdW  Elec       q    Type
REMARK                         _______ _______ _______ _____ _____    ______ ____
ROOT
ATOM      1  O   UNL     1       1.722   4.883  18.229  0.00  0.00    +0.000 OA
ATOM      2  C   UNL     1       2.821   5.257  18.629  0.00  0.00    +0.000 C 
ATOM      3  N   UNL     1       3.168   6.558  18.958  0.00  0.00    +0.000 N 
ATOM      4  H   UNL     1       4.157   6.751  19.087  0.00  0.00    +0.000 HD
ENDROOT
BRANCH   3   5
ATOM      5  C   UNL     1       2.301   7.673  18.966  0.00  0.00    +0.000 A 
ATOM      6  C   UNL     1       1.821   8.274  17.801  0.00  0.00    +0.000 A 
ATOM      7  C   UNL     1       0.986   9.390  17.865  0.00  0.00    +0.000 A 
ATOM      8  C   UNL     1       0.592   9.896  19.100  0.00  0.00    +0.000 A 
ATOM      9  C   UNL     1       1.010   9.274  20.283  0.00  0.00    +0.000 A 
ATOM     10  C   UNL     1       1.883   8.175  20.206  0.00  0.00    +0.000 A 
BRANCH   9  11
ATOM     11  C   UNL     1       0.521   9.728  21.577  0.00  0.00    +0.000 A 
ATOM     12  N   UNL     1       0.502   9.078  22.724  0.00  0.00    +0.000 NA
ATOM     13  N   UNL     1      -0.102   9.914  23.634  0.00  0.00    +0.000 NA
ATOM     14  N   UNL     1      -0.474  11.048  23.064  0.00  0.00    +0.000 NA
ATOM     15  N   UNL     1      -0.093  10.934  21.786  0.00  0.00    +0.000 N 
ATOM     16  H   UNL     1      -0.312  11.668  21.128  0.00  0.00    +0.000 HD
ENDBRANCH   9  11
ENDBRANCH   3   5
BRANCH   2  17
ATOM     17  C   UNL     1       3.936   4.245  18.832  0.00  0.00    +0.000 C 
BRANCH  17  18
ATOM     18  C   UNL     1       5.021   4.318  17.816  0.00  0.00    +0.000 A 
ATOM     19  C   UNL     1       6.401   4.548  17.988  0.00  0.00    +0.000 A 
ATOM     20  N   UNL     1       7.072   4.526  16.837  0.00  0.00    +0.000 NA
ATOM     21  N   UNL     1       6.124   4.352  15.880  0.00  0.00    +0.000 N 
ATOM     22  C   UNL     1       4.877   4.213  16.448  0.00  0.00    +0.000 A 
BRANCH  21  23
ATOM     23  C   UNL     1       6.459   4.322  14.498  0.00  0.00    +0.000 A 
ATOM     24  C   UNL     1       7.495   5.136  14.018  0.00  0.00    +0.000 A 
ATOM     25  C   UNL     1       7.834   5.111  12.663  0.00  0.00    +0.000 A 
ATOM     26  C   UNL     1       7.139   4.283  11.785  0.00  0.00    +0.000 A 
ATOM     27  C   UNL     1       6.104   3.476  12.252  0.00  0.00    +0.000 A 
ATOM     28  C   UNL     1       5.766   3.491  13.606  0.00  0.00    +0.000 A 
ENDBRANCH  21  23
ENDBRANCH  17  18
ENDBRANCH   2  17
TORSDOF 5
ENDMDL
MODEL 3
REMARK VINA RESULT:      -8.0      2.848      9.069
REMARK  Name = 
REMARK  5 active torsions:
REMARK  status: ('A' for Active; 'I' for Inactive)
REMARK    1  A    between atoms: C_2  and  C_3
REMARK    2  A    between atoms: C_3  and  C_4
REMARK    3  A    between atoms: N_7  and  C_8
REMARK    4  A    between atoms: N_15  and  C_16
REMARK    5  A    between atoms: C_20  and  C_21
REMARK                            x       y       z     vdW  Elec       q    Type
REMARK                         _______ _______ _______ _____ _____    ______ ____
ROOT
ATOM      1  O   UNL     1       1.575   6.480  21.174  0.00  0.00    +0.000 OA
ATOM      2  C   UNL     1       1.772   7.453  20.451  0.00  0.00    +0.000 C 
ATOM      3  N   UNL     1       2.310   7.422  19.174  0.00  0.00    +0.000 N 
ATOM      4  H   UNL     1       2.594   8.311  18.773  0.00  0.00    +0.000 HD
ENDROOT
BRANCH   3   5
ATOM      5  C   UNL     1       2.657   6.262  18.446  0.00  0.00    +0.000 A 
ATOM      6  C   UNL     1       1.757   5.225  18.191  0.00  0.00    +0.000 A 
ATOM      7  C   UNL     1       2.158   4.088  17.488  0.00  0.00    +0.000 A 
ATOM      8  C   UNL     1       3.458   3.994  16.998  0.00  0.00    +0.000 A 
ATOM      9  C   UNL     1       4.361   5.048  17.187  0.00  0.00    +0.000 A 
ATOM     10  C   UNL     1       3.957   6.170  17.932  0.00  0.00    +0.000 A 
BRANCH   9  11
ATOM     11  C   UNL     1       5.688   5.007  16.591  0.00  0.00    +0.000 A 
ATOM     12  N   UNL     1       6.745   4.322  16.982  0.00  0.00    +0.000 NA
ATOM     13  N   UNL     1       7.767   4.660  16.124  0.00  0.00    +0.000 NA
ATOM     14  N   UNL     1       7.364   5.552  15.234  0.00  0.00    +0.000 NA
ATOM     15  N   UNL     1       6.077   5.774  15.525  0.00  0.00    +0.000 N 
ATOM     16  H   UNL     1       5.554   6.463  15.003  0.00  0.00    +0.000 HD
ENDBRANCH   9  11
ENDBRANCH   3   5
BRANCH   2  17
ATOM     17  C   UNL     1       1.385   8.843  20.929  0.00  0.00    +0.000 C 
BRANCH  17  18
ATOM     18  C   UNL     1       0.682   9.667  19.909  0.00  0.00    +0.000 A 
ATOM     19  C   UNL     1       1.151  10.762  19.158  0.00  0.00    +0.000 A 
ATOM     20  N   UNL     1       0.233  11.243  18.320  0.00  0.00    +0.000 NA
ATOM     21  N   UNL     1      -0.883  10.508  18.564  0.00  0.00    +0.000 N 
ATOM     22  C   UNL     1      -0.634   9.541  19.513  0.00  0.00    +0.000 A 
BRANCH  21  23
ATOM     23  C   UNL     1      -2.105  10.762  17.882  0.00  0.00    +0.000 A 
ATOM     24  C   UNL     1      -2.262  10.333  16.556  0.00  0.00    +0.000 A 
ATOM     25  C   UNL     1      -3.459  10.573  15.878  0.00  0.00    +0.000 A 
ATOM     26  C   UNL     1      -4.498  11.247  16.516  0.00  0.00    +0.000 A 
ATOM     27  C   UNL     1      -4.349  11.683  17.830  0.00  0.00    +0.000 A 
ATOM     28  C   UNL     1      -3.158  11.438  18.515  0.00  0.00    +0.000 A 
ENDBRANCH  21  23
ENDBRANCH  17  18
ENDBRANCH   2  17
TORSDOF 5
ENDMDL
MODEL 4
REMARK VINA RESULT:      -8.0      2.756     10.493
REMARK  Name = 
REMARK  5 active torsions:
REMARK  status: ('A' for Active; 'I' for Inactive)
REMARK    1  A    between atoms: C_2  and  C_3
REMARK    2  A    between atoms: C_3  and  C_4
REMARK    3  A    between atoms: N_7  and  C_8
REMARK    4  A    between atoms: N_15  and  C_16
REMARK    5  A    between atoms: C_20  and  C_21
REMARK                            x       y       z     vdW  Elec       q    Type
REMARK                         _______ _______ _______ _____ _____    ______ ____
ROOT
ATOM      1  O   UNL     1       1.776   7.568  20.682  0.00  0.00    +0.000 OA
ATOM      2  C   UNL     1       1.770   8.175  19.615  0.00  0.00    +0.000 C 
ATOM      3  N   UNL     1       2.196   7.679  18.393  0.00  0.00    +0.000 N 
ATOM      4  H   UNL     1       2.313   8.349  17.639  0.00  0.00    +0.000 HD
ENDROOT
BRANCH   3   5
ATOM      5  C   UNL     1       2.642   6.363  18.140  0.00  0.00    +0.000 A 
ATOM      6  C   UNL     1       1.782   5.265  18.076  0.00  0.00    +0.000 A 
ATOM      7  C   UNL     1       2.278   3.981  17.850  0.00  0.00    +0.000 A 
ATOM      8  C   UNL     1       3.641   3.786  17.647  0.00  0.00    +0.000 A 
ATOM      9  C   UNL     1       4.517   4.879  17.645  0.00  0.00    +0.000 A 
ATOM     10  C   UNL     1       4.011   6.162  17.915  0.00  0.00    +0.000 A 
BRANCH   9  11
ATOM     11  C   UNL     1       5.928   4.702  17.330  0.00  0.00    +0.000 A 
ATOM     12  N   UNL     1       6.527   4.788  16.158  0.00  0.00    +0.000 NA
ATOM     13  N   UNL     1       7.852   4.489  16.376  0.00  0.00    +0.000 NA
ATOM     14  N   UNL     1       8.071   4.200  17.649  0.00  0.00    +0.000 NA
ATOM     15  N   UNL     1       6.877   4.326  18.242  0.00  0.00    +0.000 N 
ATOM     16  H   UNL     1       6.777   4.108  19.223  0.00  0.00    +0.000 HD
ENDBRANCH   9  11
ENDBRANCH   3   5
BRANCH   2  17
ATOM     17  C   UNL     1       1.228   9.594  19.555  0.00  0.00    +0.000 C 
BRANCH  17  18
ATOM     18  C   UNL     1       0.630  10.076  20.829  0.00  0.00    +0.000 A 
ATOM     19  C   UNL     1       0.725   9.538  22.128  0.00  0.00    +0.000 A 
ATOM     20  N   UNL     1       0.063  10.258  23.032  0.00  0.00    +0.000 NA
ATOM     21  N   UNL     1      -0.540  11.246  22.321  0.00  0.00    +0.000 N 
ATOM     22  C   UNL     1      -0.204  11.164  20.988  0.00  0.00    +0.000 A 
BRANCH  21  23
ATOM     23  C   UNL     1      -1.386  12.203  22.947  0.00  0.00    +0.000 A 
ATOM     24  C   UNL     1      -2.650  11.813  23.413  0.00  0.00    +0.000 A 
ATOM     25  C   UNL     1      -3.487  12.743  24.033  0.00  0.00    +0.000 A 
ATOM     26  C   UNL     1      -3.070  14.065  24.183  0.00  0.00    +0.000 A 
ATOM     27  C   UNL     1      -1.819  14.463  23.718  0.00  0.00    +0.000 A 
ATOM     28  C   UNL     1      -0.975  13.535  23.105  0.00  0.00    +0.000 A 
ENDBRANCH  21  23
ENDBRANCH  17  18
ENDBRANCH   2  17
TORSDOF 5
ENDMDL
MODEL 5
REMARK VINA RESULT:      -8.0      3.060      9.548
REMARK  Name = 
REMARK  5 active torsions:
REMARK  status: ('A' for Active; 'I' for Inactive)
REMARK    1  A    between atoms: C_2  and  C_3
REMARK    2  A    between atoms: C_3  and  C_4
REMARK    3  A    between atoms: N_7  and  C_8
REMARK    4  A    between atoms: N_15  and  C_16
REMARK    5  A    between atoms: C_20  and  C_21
REMARK                            x       y       z     vdW  Elec       q    Type
REMARK                         _______ _______ _______ _____ _____    ______ ____
ROOT
ATOM      1  O   UNL     1       2.518   8.729  17.928  0.00  0.00    +0.000 OA
ATOM      2  C   UNL     1       2.017   8.272  18.950  0.00  0.00    +0.000 C 
ATOM      3  N   UNL     1       1.921   6.929  19.280  0.00  0.00    +0.000 N 
ATOM      4  H   UNL     1       1.315   6.688  20.058  0.00  0.00    +0.000 HD
ENDROOT
BRANCH   3   5
ATOM      5  C   UNL     1       2.449   5.851  18.535  0.00  0.00    +0.000 A 
ATOM      6  C   UNL     1       1.718   4.700  18.234  0.00  0.00    +0.000 A 
ATOM      7  C   UNL     1       2.296   3.653  17.516  0.00  0.00    +0.000 A 
ATOM      8  C   UNL     1       3.606   3.762  17.058  0.00  0.00    +0.000 A 
ATOM      9  C   UNL     1       4.340   4.931  17.293  0.00  0.00    +0.000 A 
ATOM     10  C   UNL     1       3.761   5.962  18.052  0.00  0.00    +0.000 A 
BRANCH   9  11
ATOM     11  C   UNL     1       5.672   5.100  16.730  0.00  0.00    +0.000 A 
ATOM     12  N   UNL     1       6.158   6.127  16.060  0.00  0.00    +0.000 NA
ATOM     13  N   UNL     1       7.441   5.783  15.700  0.00  0.00    +0.000 NA
ATOM     14  N   UNL     1       7.740   4.563  16.114  0.00  0.00    +0.000 NA
ATOM     15  N   UNL     1       6.643   4.134  16.749  0.00  0.00    +0.000 N 
ATOM     16  H   UNL     1       6.610   3.195  17.120  0.00  0.00    +0.000 HD
ENDBRANCH   9  11
ENDBRANCH   3   5
BRANCH   2  17
ATOM     17  C   UNL     1       1.461   9.212  20.007  0.00  0.00    +0.000 C 
BRANCH  17  18
ATOM     18  C   UNL     1       0.490  10.212  19.487  0.00  0.00    +0.000 A 
ATOM     19  C   UNL     1       0.640  11.601  19.306  0.00  0.00    +0.000 A 
ATOM     20  N   UNL     1      -0.451  12.174  18.797  0.00  0.00    +0.000 NA
ATOM     21  N   UNL     1      -1.362  11.171  18.702  0.00  0.00    +0.000 N 
ATOM     22  C   UNL     1      -0.813   9.973  19.104  0.00  0.00    +0.000 A 
BRANCH  21  23
ATOM     23  C   UNL     1      -2.684  11.409  18.234  0.00  0.00    +0.000 A 
ATOM     24  C   UNL     1      -3.027  11.063  16.919  0.00  0.00    +0.000 A 
ATOM     25  C   UNL     1      -4.323  11.288  16.451  0.00  0.00    +0.000 A 
ATOM     26  C   UNL     1      -5.277  11.865  17.288  0.00  0.00    +0.000 A 
ATOM     27  C   UNL     1      -4.943  12.217  18.593  0.00  0.00    +0.000 A 
ATOM     28  C   UNL     1      -3.651  11.987  19.069  0.00  0.00    +0.000 A 
ENDBRANCH  21  23
ENDBRANCH  17  18
ENDBRANCH   2  17
TORSDOF 5
ENDMDL
MODEL 6
REMARK VINA RESULT:      -7.9      5.786      7.513
REMARK  Name = 
REMARK  5 active torsions:
REMARK  status: ('A' for Active; 'I' for Inactive)
REMARK    1  A    between atoms: C_2  and  C_3
REMARK    2  A    between atoms: C_3  and  C_4
REMARK    3  A    between atoms: N_7  and  C_8
REMARK    4  A    between atoms: N_15  and  C_16
REMARK    5  A    between atoms: C_20  and  C_21
REMARK                            x       y       z     vdW  Elec       q    Type
REMARK                         _______ _______ _______ _____ _____    ______ ____
ROOT
ATOM      1  O   UNL     1       8.647   7.461  19.016  0.00  0.00    +0.000 OA
ATOM      2  C   UNL     1       8.099   8.096  18.120  0.00  0.00    +0.000 C 
ATOM      3  N   UNL     1       8.247   9.452  17.874  0.00  0.00    +0.000 N 
ATOM      4  H   UNL     1       7.591   9.878  17.227  0.00  0.00    +0.000 HD
ENDROOT
BRANCH   3   5
ATOM      5  C   UNL     1       9.114  10.331  18.562  0.00  0.00    +0.000 A 
ATOM      6  C   UNL     1      10.294  10.829  18.006  0.00  0.00    +0.000 A 
ATOM      7  C   UNL     1      11.128  11.674  18.738  0.00  0.00    +0.000 A 
ATOM      8  C   UNL     1      10.769  12.062  20.026  0.00  0.00    +0.000 A 
ATOM      9  C   UNL     1       9.561  11.627  20.583  0.00  0.00    +0.000 A 
ATOM     10  C   UNL     1       8.749  10.743  19.851  0.00  0.00    +0.000 A 
BRANCH   9  11
ATOM     11  C   UNL     1       9.125  12.108  21.886  0.00  0.00    +0.000 A 
ATOM     12  N   UNL     1       9.129  13.343  22.351  0.00  0.00    +0.000 NA
ATOM     13  N   UNL     1       8.670  13.272  23.646  0.00  0.00    +0.000 NA
ATOM     14  N   UNL     1       8.410  12.021  23.990  0.00  0.00    +0.000 NA
ATOM     15  N   UNL     1       8.696  11.296  22.902  0.00  0.00    +0.000 N 
ATOM     16  H   UNL     1       8.619  10.289  22.932  0.00  0.00    +0.000 HD
ENDBRANCH   9  11
ENDBRANCH   3   5
BRANCH   2  17
ATOM     17  C   UNL     1       7.185   7.383  17.136  0.00  0.00    +0.000 C 
BRANCH  17  18
ATOM     18  C   UNL     1       6.401   6.266  17.729  0.00  0.00    +0.000 A 
ATOM     19  C   UNL     1       6.816   4.971  18.096  0.00  0.00    +0.000 A 
ATOM     20  N   UNL     1       5.829   4.242  18.616  0.00  0.00    +0.000 NA
ATOM     21  N   UNL     1       4.727   5.032  18.529  0.00  0.00    +0.000 N 
ATOM     22  C   UNL     1       5.049   6.265  18.006  0.00  0.00    +0.000 A 
BRANCH  21  23
ATOM     23  C   UNL     1       3.448   4.574  18.951  0.00  0.00    +0.000 A 
ATOM     24  C   UNL     1       2.909   5.037  20.160  0.00  0.00    +0.000 A 
ATOM     25  C   UNL     1       1.653   4.597  20.581  0.00  0.00    +0.000 A 
ATOM     26  C   UNL     1       0.935   3.690  19.805  0.00  0.00    +0.000 A 
ATOM     27  C   UNL     1       1.465   3.219  18.606  0.00  0.00    +0.000 A 
ATOM     28  C   UNL     1       2.717   3.662  18.176  0.00  0.00    +0.000 A 
ENDBRANCH  21  23
ENDBRANCH  17  18
ENDBRANCH   2  17
TORSDOF 5
ENDMDL
MODEL 7
REMARK VINA RESULT:      -7.9      3.205      9.753
REMARK  Name = 
REMARK  5 active torsions:
REMARK  status: ('A' for Active; 'I' for Inactive)
REMARK    1  A    between atoms: C_2  and  C_3
REMARK    2  A    between atoms: C_3  and  C_4
REMARK    3  A    between atoms: N_7  and  C_8
REMARK    4  A    between atoms: N_15  and  C_16
REMARK    5  A    between atoms: C_20  and  C_21
REMARK                            x       y       z     vdW  Elec       q    Type
REMARK                         _______ _______ _______ _____ _____    ______ ____
ROOT
ATOM      1  O   UNL     1       1.891   8.852  17.398  0.00  0.00    +0.000 OA
ATOM      2  C   UNL     1       1.892   8.586  18.596  0.00  0.00    +0.000 C 
ATOM      3  N   UNL     1       2.200   7.356  19.157  0.00  0.00    +0.000 N 
ATOM      4  H   UNL     1       1.974   7.228  20.138  0.00  0.00    +0.000 HD
ENDROOT
BRANCH   3   5
ATOM      5  C   UNL     1       2.641   6.211  18.457  0.00  0.00    +0.000 A 
ATOM      6  C   UNL     1       1.882   5.043  18.349  0.00  0.00    +0.000 A 
ATOM      7  C   UNL     1       2.376   3.931  17.668  0.00  0.00    +0.000 A 
ATOM      8  C   UNL     1       3.623   3.987  17.052  0.00  0.00    +0.000 A 
ATOM      9  C   UNL     1       4.377   5.167  17.093  0.00  0.00    +0.000 A 
ATOM     10  C   UNL     1       3.887   6.267  17.817  0.00  0.00    +0.000 A 
BRANCH   9  11
ATOM     11  C   UNL     1       5.634   5.273  16.366  0.00  0.00    +0.000 A 
ATOM     12  N   UNL     1       6.130   4.457  15.456  0.00  0.00    +0.000 NA
ATOM     13  N   UNL     1       7.361   4.964  15.110  0.00  0.00    +0.000 NA
ATOM     14  N   UNL     1       7.638   6.056  15.804  0.00  0.00    +0.000 NA
ATOM     15  N   UNL     1       6.570   6.247  16.588  0.00  0.00    +0.000 N 
ATOM     16  H   UNL     1       6.564   7.006  17.254  0.00  0.00    +0.000 HD
ENDBRANCH   9  11
ENDBRANCH   3   5
BRANCH   2  17
ATOM     17  C   UNL     1       1.565   9.667  19.612  0.00  0.00    +0.000 C 
BRANCH  17  18
ATOM     18  C   UNL     1       0.480  10.594  19.192  0.00  0.00    +0.000 A 
ATOM     19  C   UNL     1       0.519  11.985  18.971  0.00  0.00    +0.000 A 
ATOM     20  N   UNL     1      -0.657  12.477  18.583  0.00  0.00    +0.000 NA
ATOM     21  N   UNL     1      -1.508  11.419  18.614  0.00  0.00    +0.000 N 
ATOM     22  C   UNL     1      -0.842  10.266  18.969  0.00  0.00    +0.000 A 
BRANCH  21  23
ATOM     23  C   UNL     1      -2.887  11.565  18.300  0.00  0.00    +0.000 A 
ATOM     24  C   UNL     1      -3.765  12.089  19.260  0.00  0.00    +0.000 A 
ATOM     25  C   UNL     1      -5.121  12.241  18.962  0.00  0.00    +0.000 A 
ATOM     26  C   UNL     1      -5.606  11.864  17.711  0.00  0.00    +0.000 A 
ATOM     27  C   UNL     1      -4.743  11.336  16.754  0.00  0.00    +0.000 A 
ATOM     28  C   UNL     1      -3.385  11.190  17.044  0.00  0.00    +0.000 A 
ENDBRANCH  21  23
ENDBRANCH  17  18
ENDBRANCH   2  17
TORSDOF 5
ENDMDL
MODEL 8
REMARK VINA RESULT:      -7.8      2.924     10.459
REMARK  Name = 
REMARK  5 active torsions:
REMARK  status: ('A' for Active; 'I' for Inactive)
REMARK    1  A    between atoms: C_2  and  C_3
REMARK    2  A    between atoms: C_3  and  C_4
REMARK    3  A    between atoms: N_7  and  C_8
REMARK    4  A    between atoms: N_15  and  C_16
REMARK    5  A    between atoms: C_20  and  C_21
REMARK                            x       y       z     vdW  Elec       q    Type
REMARK                         _______ _______ _______ _____ _____    ______ ____
ROOT
ATOM      1  O   UNL     1       1.850   8.346  19.389  0.00  0.00    +0.000 OA
ATOM      2  C   UNL     1       1.810   7.660  20.406  0.00  0.00    +0.000 C 
ATOM      3  N   UNL     1       2.104   6.307  20.487  0.00  0.00    +0.000 N 
ATOM      4  H   UNL     1       1.844   5.831  21.345  0.00  0.00    +0.000 HD
ENDROOT
BRANCH   3   5
ATOM      5  C   UNL     1       2.577   5.495  19.433  0.00  0.00    +0.000 A 
ATOM      6  C   UNL     1       1.730   4.857  18.523  0.00  0.00    +0.000 A 
ATOM      7  C   UNL     1       2.248   4.044  17.515  0.00  0.00    +0.000 A 
ATOM      8  C   UNL     1       3.625   3.890  17.381  0.00  0.00    +0.000 A 
ATOM      9  C   UNL     1       4.497   4.569  18.242  0.00  0.00    +0.000 A 
ATOM     10  C   UNL     1       3.963   5.352  19.280  0.00  0.00    +0.000 A 
BRANCH   9  11
ATOM     11  C   UNL     1       5.938   4.499  18.048  0.00  0.00    +0.000 A 
ATOM     12  N   UNL     1       6.898   4.761  18.914  0.00  0.00    +0.000 NA
ATOM     13  N   UNL     1       8.086   4.598  18.238  0.00  0.00    +0.000 NA
ATOM     14  N   UNL     1       7.872   4.268  16.975  0.00  0.00    +0.000 NA
ATOM     15  N   UNL     1       6.540   4.211  16.853  0.00  0.00    +0.000 N 
ATOM     16  H   UNL     1       6.125   4.018  15.952  0.00  0.00    +0.000 HD
ENDBRANCH   9  11
ENDBRANCH   3   5
BRANCH   2  17
ATOM     17  C   UNL     1       1.441   8.296  21.736  0.00  0.00    +0.000 C 
BRANCH  17  18
ATOM     18  C   UNL     1       0.687   9.573  21.615  0.00  0.00    +0.000 A 
ATOM     19  C   UNL     1       0.631  10.487  20.544  0.00  0.00    +0.000 A 
ATOM     20  N   UNL     1      -0.172  11.522  20.793  0.00  0.00    +0.000 NA
ATOM     21  N   UNL     1      -0.601  11.334  22.068  0.00  0.00    +0.000 N 
ATOM     22  C   UNL     1      -0.104  10.157  22.583  0.00  0.00    +0.000 A 
BRANCH  21  23
ATOM     23  C   UNL     1      -1.454  12.273  22.711  0.00  0.00    +0.000 A 
ATOM     24  C   UNL     1      -1.119  13.635  22.702  0.00  0.00    +0.000 A 
ATOM     25  C   UNL     1      -1.952  14.566  23.327  0.00  0.00    +0.000 A 
ATOM     26  C   UNL     1      -3.115  14.142  23.967  0.00  0.00    +0.000 A 
ATOM     27  C   UNL     1      -3.453  12.791  23.986  0.00  0.00    +0.000 A 
ATOM     28  C   UNL     1      -2.628  11.857  23.356  0.00  0.00    +0.000 A 
ENDBRANCH  21  23
ENDBRANCH  17  18
ENDBRANCH   2  17
TORSDOF 5
ENDMDL
MODEL 9
REMARK VINA RESULT:      -7.8      6.515      8.392
REMARK  Name = 
REMARK  5 active torsions:
REMARK  status: ('A' for Active; 'I' for Inactive)
REMARK    1  A    between atoms: C_2  and  C_3
REMARK    2  A    between atoms: C_3  and  C_4
REMARK    3  A    between atoms: N_7  and  C_8
REMARK    4  A    between atoms: N_15  and  C_16
REMARK    5  A    between atoms: C_20  and  C_21
REMARK                            x       y       z     vdW  Elec       q    Type
REMARK                         _______ _______ _______ _____ _____    ______ ____
ROOT
ATOM      1  O   UNL     1       8.567   7.573  18.956  0.00  0.00    +0.000 OA
ATOM      2  C   UNL     1       8.069   8.149  17.993  0.00  0.00    +0.000 C 
ATOM      3  N   UNL     1       8.125   9.511  17.741  0.00  0.00    +0.000 N 
ATOM      4  H   UNL     1       7.510   9.871  17.017  0.00  0.00    +0.000 HD
ENDROOT
BRANCH   3   5
ATOM      5  C   UNL     1       8.827  10.470  18.504  0.00  0.00    +0.000 A 
ATOM      6  C   UNL     1       9.329  10.209  19.781  0.00  0.00    +0.000 A 
ATOM      7  C   UNL     1       9.994  11.200  20.504  0.00  0.00    +0.000 A 
ATOM      8  C   UNL     1      10.198  12.455  19.939  0.00  0.00    +0.000 A 
ATOM      9  C   UNL     1       9.759  12.723  18.637  0.00  0.00    +0.000 A 
ATOM     10  C   UNL     1       9.054  11.730  17.934  0.00  0.00    +0.000 A 
BRANCH   9  11
ATOM     11  C   UNL     1      10.057  13.996  17.997  0.00  0.00    +0.000 A 
ATOM     12  N   UNL     1       9.564  15.190  18.269  0.00  0.00    +0.000 NA
ATOM     13  N   UNL     1      10.120  16.057  17.356  0.00  0.00    +0.000 NA
ATOM     14  N   UNL     1      10.920  15.417  16.519  0.00  0.00    +0.000 NA
ATOM     15  N   UNL     1      10.879  14.138  16.911  0.00  0.00    +0.000 N 
ATOM     16  H   UNL     1      11.382  13.435  16.389  0.00  0.00    +0.000 HD
ENDBRANCH   9  11
ENDBRANCH   3   5
BRANCH   2  17
ATOM     17  C   UNL     1       7.338   7.350  16.927  0.00  0.00    +0.000 C 
BRANCH  17  18
ATOM     18  C   UNL     1       6.504   6.239  17.460  0.00  0.00    +0.000 A 
ATOM     19  C   UNL     1       6.801   4.867  17.578  0.00  0.00    +0.000 A 
ATOM     20  N   UNL     1       5.805   4.170  18.123  0.00  0.00    +0.000 NA
ATOM     21  N   UNL     1       4.805   5.071  18.306  0.00  0.00    +0.000 N 
ATOM     22  C   UNL     1       5.207   6.332  17.922  0.00  0.00    +0.000 A 
BRANCH  21  23
ATOM     23  C   UNL     1       3.543   4.684  18.835  0.00  0.00    +0.000 A 
ATOM     24  C   UNL     1       3.044   5.325  19.978  0.00  0.00    +0.000 A 
ATOM     25  C   UNL     1       1.803   4.957  20.503  0.00  0.00    +0.000 A 
ATOM     26  C   UNL     1       1.061   3.945  19.896  0.00  0.00    +0.000 A 
ATOM     27  C   UNL     1       1.551   3.299  18.764  0.00  0.00    +0.000 A 
ATOM     28  C   UNL     1       2.787   3.669  18.230  0.00  0.00    +0.000 A 
ENDBRANCH  21  23
ENDBRANCH  17  18
ENDBRANCH   2  17
TORSDOF 5
ENDMDL
