MODEL 1
REMARK VINA RESULT:     -10.8      0.000      0.000
REMARK  Name = 
REMARK  9 active torsions:
REMARK  status: ('A' for Active; 'I' for Inactive)
REMARK    1  A    between atoms: C_1  and  C_2
REMARK    2  A    between atoms: C_2  and  N_3
REMARK    3  A    between atoms: N_3  and  C_4
REMARK    4  A    between atoms: C_4  and  C_5
REMARK    5  A    between atoms: C_4  and  C_12
REMARK    6  A    between atoms: C_5  and  C_6
REMARK    7  A    between atoms: N_10  and  C_11
REMARK    8  A    between atoms: C_16  and  N_17
REMARK    9  A    between atoms: C_18  and  C_20
REMARK                            x       y       z     vdW  Elec       q    Type
REMARK                         _______ _______ _______ _____ _____    ______ ____
ROOT
ATOM      1  C   UNL     1       2.471   6.876  19.555  0.00  0.00    +0.000 A 
ATOM      2  C   UNL     1       2.845   7.005  18.280  0.00  0.00    +0.000 A 
ATOM      3  C   UNL     1       2.449   8.282  17.696  0.00  0.00    +0.000 A 
ATOM      4  C   UNL     1       1.632   9.731  18.137  0.00  0.00    +0.000 A 
ATOM      5  C   UNL     1       1.035  10.141  19.378  0.00  0.00    +0.000 A 
ATOM      6  C   UNL     1       1.559   8.450  20.053  0.00  0.00    +0.000 A 
ENDROOT
BRANCH   5   7
ATOM      7  N   UNL     1       0.042  11.831  19.691  0.00  0.00    +0.000 N 
ATOM      8  C   UNL     1      -0.882  13.411  20.375  0.00  0.00    +0.000 C 
ATOM      9  O   UNL     1      -0.900  14.120  19.355  0.00  0.00    +0.000 OA
ATOM     10  H   UNL     1       0.069  12.120  18.704  0.00  0.00    +0.000 HD
BRANCH   8  11
ATOM     11  C   UNL     1      -1.948  14.437  21.915  0.00  0.00    +0.000 A 
ATOM     12  C   UNL     1      -3.494  15.693  22.700  0.00  0.00    +0.000 A 
ATOM     13  C   UNL     1      -4.964  16.178  23.744  0.00  0.00    +0.000 A 
ATOM     14  C   UNL     1      -5.403  14.676  23.580  0.00  0.00    +0.000 A 
ATOM     15  C   UNL     1      -4.500  13.703  23.884  0.00  0.00    +0.000 A 
ATOM     16  C   UNL     1      -3.988  12.707  22.892  0.00  0.00    +0.000 A 
ATOM     17  C   UNL     1      -2.842  12.079  23.233  0.00  0.00    +0.000 A 
ATOM     18  C   UNL     1      -1.641  11.887  22.431  0.00  0.00    +0.000 A 
ATOM     19  C   UNL     1      -0.678  12.824  22.680  0.00  0.00    +0.000 A 
ATOM     20  N   UNL     1      -1.201  14.095  22.981  0.00  0.00    +0.000 NA
ENDBRANCH   8  11
ENDBRANCH   5   7
BRANCH   1  21
ATOM     21  C   UNL     1       3.190   5.067  19.949  0.00  0.00    +0.000 C 
BRANCH  21  22
ATOM     22  N   UNL     1       2.389   3.598  19.406  0.00  0.00    +0.000 NA
ATOM     23  H   UNL     1       3.075   3.051  18.862  0.00  0.00    +0.000 HD
BRANCH  22  25
ATOM     24  C   UNL     1       1.333   2.494  21.808  0.00  0.00    +0.000 C 
ATOM     25  C   UNL     1       1.592   2.522  20.178  0.00  0.00    +0.000 C 
ENDBRANCH  22  25
ENDBRANCH  21  22
BRANCH  21  26
ATOM     26  C   UNL     1       4.903   4.308  19.501  0.00  0.00    +0.000 C 
BRANCH  26  27
ATOM     27  C   UNL     1       6.039   4.508  18.144  0.00  0.00    +0.000 A 
ATOM     28  N   UNL     1       7.360   4.633  18.199  0.00  0.00    +0.000 NA
ATOM     29  N   UNL     1       7.930   4.598  16.888  0.00  0.00    +0.000 NA
ATOM     30  C   UNL     1       6.992   4.459  15.962  0.00  0.00    +0.000 A 
ATOM     31  N   UNL     1       5.785   4.444  16.698  0.00  0.00    +0.000 N 
ATOM     32  C   UNL     1       4.531   4.368  15.989  0.00  0.00    +0.000 C 
ENDBRANCH  26  27
ENDBRANCH  21  26
ENDBRANCH   1  21
TORSDOF 7
ENDMDL
MODEL 2
REMARK VINA RESULT:     -10.8      2.355      3.306
REMARK  Name = 
REMARK  9 active torsions:
REMARK  status: ('A' for Active; 'I' for Inactive)
REMARK    1  A    between atoms: C_1  and  C_2
REMARK    2  A    between atoms: C_2  and  N_3
REMARK    3  A    between atoms: N_3  and  C_4
REMARK    4  A    between atoms: C_4  and  C_5
REMARK    5  A    between atoms: C_4  and  C_12
REMARK    6  A    between atoms: C_5  and  C_6
REMARK    7  A    between atoms: N_10  and  C_11
REMARK    8  A    between atoms: C_16  and  N_17
REMARK    9  A    between atoms: C_18  and  C_20
REMARK                            x       y       z     vdW  Elec       q    Type
REMARK                         _______ _______ _______ _____ _____    ______ ____
ROOT
ATOM      1  C   UNL     1       3.676   5.751  18.433  0.00  0.00    +0.000 A 
ATOM      2  C   UNL     1       3.677   6.562  17.373  0.00  0.00    +0.000 A 
ATOM      3  C   UNL     1       2.942   7.801  17.602  0.00  0.00    +0.000 A 
ATOM      4  C   UNL     1       2.047   8.586  18.844  0.00  0.00    +0.000 A 
ATOM      5  C   UNL     1       1.737   8.183  20.188  0.00  0.00    +0.000 A 
ATOM      6  C   UNL     1       2.685   6.588  19.802  0.00  0.00    +0.000 A 
ENDROOT
BRANCH   5   7
ATOM      7  N   UNL     1       0.602   9.184  21.472  0.00  0.00    +0.000 N 
ATOM      8  C   UNL     1      -0.546  10.428  22.448  0.00  0.00    +0.000 C 
ATOM      9  O   UNL     1      -0.938   9.696  23.371  0.00  0.00    +0.000 OA
ATOM     10  H   UNL     1       0.552   8.412  22.149  0.00  0.00    +0.000 HD
BRANCH   8  11
ATOM     11  C   UNL     1      -1.333  12.388  22.776  0.00  0.00    +0.000 A 
ATOM     12  C   UNL     1      -1.671  14.181  23.894  0.00  0.00    +0.000 A 
ATOM     13  C   UNL     1      -1.634  16.006  24.287  0.00  0.00    +0.000 A 
ATOM     14  C   UNL     1      -0.272  16.008  23.500  0.00  0.00    +0.000 A 
ATOM     15  C   UNL     1      -0.247  15.465  22.251  0.00  0.00    +0.000 A 
ATOM     16  C   UNL     1       0.591  14.284  21.878  0.00  0.00    +0.000 A 
ATOM     17  C   UNL     1       0.223  13.639  20.749  0.00  0.00    +0.000 A 
ATOM     18  C   UNL     1       0.029  12.210  20.545  0.00  0.00    +0.000 A 
ATOM     19  C   UNL     1      -1.278  11.828  20.658  0.00  0.00    +0.000 A 
ATOM     20  N   UNL     1      -1.994  12.568  21.617  0.00  0.00    +0.000 NA
ENDBRANCH   8  11
ENDBRANCH   5   7
BRANCH   1  21
ATOM     21  C   UNL     1       4.755   4.243  17.722  0.00  0.00    +0.000 C 
BRANCH  21  22
ATOM     22  N   UNL     1       4.299   2.562  17.970  0.00  0.00    +0.000 NA
ATOM     23  H   UNL     1       5.091   2.088  18.433  0.00  0.00    +0.000 HD
BRANCH  22  25
ATOM     24  C   UNL     1       1.495   2.434  18.443  0.00  0.00    +0.000 C 
ATOM     25  C   UNL     1       3.054   1.926  18.630  0.00  0.00    +0.000 C 
ENDBRANCH  22  25
ENDBRANCH  21  22
BRANCH  21  26
ATOM     26  C   UNL     1       5.254   3.848  15.903  0.00  0.00    +0.000 C 
BRANCH  26  27
ATOM     27  C   UNL     1       6.401   4.559  14.742  0.00  0.00    +0.000 A 
ATOM     28  N   UNL     1       7.371   5.434  14.987  0.00  0.00    +0.000 NA
ATOM     29  N   UNL     1       8.184   5.630  13.827  0.00  0.00    +0.000 NA
ATOM     30  C   UNL     1       7.753   4.897  12.811  0.00  0.00    +0.000 A 
ATOM     31  N   UNL     1       6.609   4.242  13.323  0.00  0.00    +0.000 N 
ATOM     32  C   UNL     1       5.836   3.393  12.450  0.00  0.00    +0.000 C 
ENDBRANCH  26  27
ENDBRANCH  21  26
ENDBRANCH   1  21
TORSDOF 7
ENDMDL
MODEL 3
REMARK VINA RESULT:     -10.6      1.323      1.402
REMARK  Name = 
REMARK  9 active torsions:
REMARK  status: ('A' for Active; 'I' for Inactive)
REMARK    1  A    between atoms: C_1  and  C_2
REMARK    2  A    between atoms: C_2  and  N_3
REMARK    3  A    between atoms: N_3  and  C_4
REMARK    4  A    between atoms: C_4  and  C_5
REMARK    5  A    between atoms: C_4  and  C_12
REMARK    6  A    between atoms: C_5  and  C_6
REMARK    7  A    between atoms: N_10  and  C_11
REMARK    8  A    between atoms: C_16  and  N_17
REMARK    9  A    between atoms: C_18  and  C_20
REMARK                            x       y       z     vdW  Elec       q    Type
REMARK                         _______ _______ _______ _____ _____    ______ ____
ROOT
ATOM      1  C   UNL     1       1.854   7.629  19.401  0.00  0.00    +0.000 A 
ATOM      2  C   UNL     1       2.397   7.956  18.227  0.00  0.00    +0.000 A 
ATOM      3  C   UNL     1       2.180   9.354  17.867  0.00  0.00    +0.000 A 
ATOM      4  C   UNL     1       1.428  10.769  18.493  0.00  0.00    +0.000 A 
ATOM      5  C   UNL     1       0.710  10.998  19.716  0.00  0.00    +0.000 A 
ATOM      6  C   UNL     1       1.010   9.166  20.097  0.00  0.00    +0.000 A 
ENDROOT
BRANCH   5   7
ATOM      7  N   UNL     1      -0.181  12.691  20.246  0.00  0.00    +0.000 N 
ATOM      8  C   UNL     1      -1.154  14.161  21.089  0.00  0.00    +0.000 C 
ATOM      9  O   UNL     1      -0.739  15.119  20.417  0.00  0.00    +0.000 OA
ATOM     10  H   UNL     1       0.228  13.237  19.477  0.00  0.00    +0.000 HD
BRANCH   8  11
ATOM     11  C   UNL     1      -2.618  14.896  22.460  0.00  0.00    +0.000 A 
ATOM     12  C   UNL     1      -4.466  15.823  23.012  0.00  0.00    +0.000 A 
ATOM     13  C   UNL     1      -6.147  15.990  23.808  0.00  0.00    +0.000 A 
ATOM     14  C   UNL     1      -6.283  14.449  23.522  0.00  0.00    +0.000 A 
ATOM     15  C   UNL     1      -5.285  13.623  23.942  0.00  0.00    +0.000 A 
ATOM     16  C   UNL     1      -4.453  12.792  23.019  0.00  0.00    +0.000 A 
ATOM     17  C   UNL     1      -3.284  12.344  23.528  0.00  0.00    +0.000 A 
ATOM     18  C   UNL     1      -1.955  12.406  22.935  0.00  0.00    +0.000 A 
ATOM     19  C   UNL     1      -1.224  13.474  23.374  0.00  0.00    +0.000 A 
ATOM     20  N   UNL     1      -2.004  14.618  23.625  0.00  0.00    +0.000 NA
ENDBRANCH   8  11
ENDBRANCH   5   7
BRANCH   1  21
ATOM     21  C   UNL     1       2.375   5.716  19.507  0.00  0.00    +0.000 C 
BRANCH  21  22
ATOM     22  N   UNL     1       2.166   4.608  18.156  0.00  0.00    +0.000 NA
ATOM     23  H   UNL     1       3.015   4.665  17.571  0.00  0.00    +0.000 HD
BRANCH  22  25
ATOM     24  C   UNL     1       2.848   1.845  18.143  0.00  0.00    +0.000 C 
ATOM     25  C   UNL     1       1.788   3.110  18.109  0.00  0.00    +0.000 C 
ENDBRANCH  22  25
ENDBRANCH  21  22
BRANCH  21  26
ATOM     26  C   UNL     1       4.095   4.936  19.889  0.00  0.00    +0.000 C 
BRANCH  26  27
ATOM     27  C   UNL     1       5.702   5.026  19.127  0.00  0.00    +0.000 A 
ATOM     28  N   UNL     1       6.860   5.331  19.702  0.00  0.00    +0.000 NA
ATOM     29  N   UNL     1       7.947   5.127  18.796  0.00  0.00    +0.000 NA
ATOM     30  C   UNL     1       7.516   4.697  17.619  0.00  0.00    +0.000 A 
ATOM     31  N   UNL     1       6.109   4.661  17.763  0.00  0.00    +0.000 N 
ATOM     32  C   UNL     1       5.296   4.290  16.631  0.00  0.00    +0.000 C 
ENDBRANCH  26  27
ENDBRANCH  21  26
ENDBRANCH   1  21
TORSDOF 7
ENDMDL
MODEL 4
REMARK VINA RESULT:     -10.6      1.032      1.514
REMARK  Name = 
REMARK  9 active torsions:
REMARK  status: ('A' for Active; 'I' for Inactive)
REMARK    1  A    between atoms: C_1  and  C_2
REMARK    2  A    between atoms: C_2  and  N_3
REMARK    3  A    between atoms: N_3  and  C_4
REMARK    4  A    between atoms: C_4  and  C_5
REMARK    5  A    between atoms: C_4  and  C_12
REMARK    6  A    between atoms: C_5  and  C_6
REMARK    7  A    between atoms: N_10  and  C_11
REMARK    8  A    between atoms: C_16  and  N_17
REMARK    9  A    between atoms: C_18  and  C_20
REMARK                            x       y       z     vdW  Elec       q    Type
REMARK                         _______ _______ _______ _____ _____    ______ ____
ROOT
ATOM      1  C   UNL     1       2.521   6.781  19.584  0.00  0.00    +0.000 A 
ATOM      2  C   UNL     1       2.655   6.905  18.262  0.00  0.00    +0.000 A 
ATOM      3  C   UNL     1       2.085   8.144  17.744  0.00  0.00    +0.000 A 
ATOM      4  C   UNL     1       1.273   9.552  18.308  0.00  0.00    +0.000 A 
ATOM      5  C   UNL     1       0.881   9.953  19.631  0.00  0.00    +0.000 A 
ATOM      6  C   UNL     1       1.617   8.310  20.220  0.00  0.00    +0.000 A 
ENDROOT
BRANCH   5   7
ATOM      7  N   UNL     1      -0.141  11.590  20.098  0.00  0.00    +0.000 N 
ATOM      8  C   UNL     1      -0.927  13.199  20.878  0.00  0.00    +0.000 C 
ATOM      9  O   UNL     1      -1.489  13.681  19.881  0.00  0.00    +0.000 OA
ATOM     10  H   UNL     1      -0.581  11.673  19.172  0.00  0.00    +0.000 HD
BRANCH   8  11
ATOM     11  C   UNL     1      -1.390  14.432  22.561  0.00  0.00    +0.000 A 
ATOM     12  C   UNL     1      -2.133  16.187  23.535  0.00  0.00    +0.000 A 
ATOM     13  C   UNL     1      -3.199  17.211  24.675  0.00  0.00    +0.000 A 
ATOM     14  C   UNL     1      -4.319  16.155  24.353  0.00  0.00    +0.000 A 
ATOM     15  C   UNL     1      -4.026  14.834  24.514  0.00  0.00    +0.000 A 
ATOM     16  C   UNL     1      -4.046  13.839  23.397  0.00  0.00    +0.000 A 
ATOM     17  C   UNL     1      -3.372  12.691  23.626  0.00  0.00    +0.000 A 
ATOM     18  C   UNL     1      -2.402  12.024  22.768  0.00  0.00    +0.000 A 
ATOM     19  C   UNL     1      -1.109  12.325  23.092  0.00  0.00    +0.000 A 
ATOM     20  N   UNL     1      -0.942  13.643  23.555  0.00  0.00    +0.000 NA
ENDBRANCH   8  11
ENDBRANCH   5   7
BRANCH   1  21
ATOM     21  C   UNL     1       3.407   5.026  19.863  0.00  0.00    +0.000 C 
BRANCH  21  22
ATOM     22  N   UNL     1       2.577   3.661  20.600  0.00  0.00    +0.000 NA
ATOM     23  H   UNL     1       2.522   3.839  21.616  0.00  0.00    +0.000 HD
BRANCH  22  25
ATOM     24  C   UNL     1       0.704   2.543  18.770  0.00  0.00    +0.000 C 
ATOM     25  C   UNL     1       1.224   2.988  20.273  0.00  0.00    +0.000 C 
ENDBRANCH  22  25
ENDBRANCH  21  22
BRANCH  21  26
ATOM     26  C   UNL     1       4.218   3.846  18.573  0.00  0.00    +0.000 C 
BRANCH  26  27
ATOM     27  C   UNL     1       5.299   4.079  17.178  0.00  0.00    +0.000 A 
ATOM     28  N   UNL     1       5.045   3.823  15.899  0.00  0.00    +0.000 NA
ATOM     29  N   UNL     1       6.100   4.305  15.064  0.00  0.00    +0.000 NA
ATOM     30  C   UNL     1       7.059   4.871  15.783  0.00  0.00    +0.000 A 
ATOM     31  N   UNL     1       6.623   4.712  17.119  0.00  0.00    +0.000 N 
ATOM     32  C   UNL     1       7.471   5.167  18.194  0.00  0.00    +0.000 C 
ENDBRANCH  26  27
ENDBRANCH  21  26
ENDBRANCH   1  21
TORSDOF 7
ENDMDL
MODEL 5
REMARK VINA RESULT:     -10.6      1.882      2.530
REMARK  Name = 
REMARK  9 active torsions:
REMARK  status: ('A' for Active; 'I' for Inactive)
REMARK    1  A    between atoms: C_1  and  C_2
REMARK    2  A    between atoms: C_2  and  N_3
REMARK    3  A    between atoms: N_3  and  C_4
REMARK    4  A    between atoms: C_4  and  C_5
REMARK    5  A    between atoms: C_4  and  C_12
REMARK    6  A    between atoms: C_5  and  C_6
REMARK    7  A    between atoms: N_10  and  C_11
REMARK    8  A    between atoms: C_16  and  N_17
REMARK    9  A    between atoms: C_18  and  C_20
REMARK                            x       y       z     vdW  Elec       q    Type
REMARK                         _______ _______ _______ _____ _____    ______ ____
ROOT
ATOM      1  C   UNL     1       3.538   6.113  18.197  0.00  0.00    +0.000 A 
ATOM      2  C   UNL     1       3.369   5.727  19.463  0.00  0.00    +0.000 A 
ATOM      3  C   UNL     1       2.527   6.638  20.230  0.00  0.00    +0.000 A 
ATOM      4  C   UNL     1       1.644   8.100  20.021  0.00  0.00    +0.000 A 
ATOM      5  C   UNL     1       1.463   8.942  18.871  0.00  0.00    +0.000 A 
ATOM      6  C   UNL     1       2.589   7.725  17.952  0.00  0.00    +0.000 A 
ENDROOT
BRANCH   5   7
ATOM      7  N   UNL     1       0.473  10.661  18.829  0.00  0.00    +0.000 N 
ATOM      8  C   UNL     1      -0.539  12.297  19.170  0.00  0.00    +0.000 C 
ATOM      9  O   UNL     1      -0.304  12.929  18.128  0.00  0.00    +0.000 OA
ATOM     10  H   UNL     1       0.733  10.877  17.858  0.00  0.00    +0.000 HD
BRANCH   8  11
ATOM     11  C   UNL     1      -1.903  13.445  20.348  0.00  0.00    +0.000 A 
ATOM     12  C   UNL     1      -3.837  14.090  21.001  0.00  0.00    +0.000 A 
ATOM     13  C   UNL     1      -5.247  14.402  22.184  0.00  0.00    +0.000 A 
ATOM     14  C   UNL     1      -4.747  13.098  22.908  0.00  0.00    +0.000 A 
ATOM     15  C   UNL     1      -3.431  13.012  23.248  0.00  0.00    +0.000 A 
ATOM     16  C   UNL     1      -2.502  11.971  22.710  0.00  0.00    +0.000 A 
ATOM     17  C   UNL     1      -1.185  12.246  22.826  0.00  0.00    +0.000 A 
ATOM     18  C   UNL     1      -0.148  12.160  21.808  0.00  0.00    +0.000 A 
ATOM     19  C   UNL     1       0.111  13.360  21.207  0.00  0.00    +0.000 A 
ATOM     20  N   UNL     1      -1.030  14.172  21.070  0.00  0.00    +0.000 NA
ENDBRANCH   8  11
ENDBRANCH   5   7
BRANCH   1  21
ATOM     21  C   UNL     1       4.694   4.643  17.532  0.00  0.00    +0.000 C 
BRANCH  21  22
ATOM     22  N   UNL     1       4.379   2.954  17.913  0.00  0.00    +0.000 NA
ATOM     23  H   UNL     1       5.278   2.521  18.182  0.00  0.00    +0.000 HD
BRANCH  22  25
ATOM     24  C   UNL     1       3.312   2.461  20.506  0.00  0.00    +0.000 C 
ATOM     25  C   UNL     1       3.356   2.293  18.864  0.00  0.00    +0.000 C 
ENDBRANCH  22  25
ENDBRANCH  21  22
BRANCH  21  26
ATOM     26  C   UNL     1       5.137   4.159  15.720  0.00  0.00    +0.000 C 
BRANCH  26  27
ATOM     27  C   UNL     1       6.358   4.708  14.546  0.00  0.00    +0.000 A 
ATOM     28  N   UNL     1       7.358   5.558  14.748  0.00  0.00    +0.000 NA
ATOM     29  N   UNL     1       8.221   5.609  13.609  0.00  0.00    +0.000 NA
ATOM     30  C   UNL     1       7.793   4.804  12.648  0.00  0.00    +0.000 A 
ATOM     31  N   UNL     1       6.602   4.251  13.171  0.00  0.00    +0.000 N 
ATOM     32  C   UNL     1       5.821   3.358  12.349  0.00  0.00    +0.000 C 
ENDBRANCH  26  27
ENDBRANCH  21  26
ENDBRANCH   1  21
TORSDOF 7
ENDMDL
MODEL 6
REMARK VINA RESULT:     -10.5      1.770      2.417
REMARK  Name = 
REMARK  9 active torsions:
REMARK  status: ('A' for Active; 'I' for Inactive)
REMARK    1  A    between atoms: C_1  and  C_2
REMARK    2  A    between atoms: C_2  and  N_3
REMARK    3  A    between atoms: N_3  and  C_4
REMARK    4  A    between atoms: C_4  and  C_5
REMARK    5  A    between atoms: C_4  and  C_12
REMARK    6  A    between atoms: C_5  and  C_6
REMARK    7  A    between atoms: N_10  and  C_11
REMARK    8  A    between atoms: C_16  and  N_17
REMARK    9  A    between atoms: C_18  and  C_20
REMARK                            x       y       z     vdW  Elec       q    Type
REMARK                         _______ _______ _______ _____ _____    ______ ____
ROOT
ATOM      1  C   UNL     1       2.240   7.018  19.967  0.00  0.00    +0.000 A 
ATOM      2  C   UNL     1       2.274   7.516  18.729  0.00  0.00    +0.000 A 
ATOM      3  C   UNL     1       1.541   8.771  18.598  0.00  0.00    +0.000 A 
ATOM      4  C   UNL     1       0.621   9.860  19.560  0.00  0.00    +0.000 A 
ATOM      5  C   UNL     1       0.274   9.832  20.954  0.00  0.00    +0.000 A 
ATOM      6  C   UNL     1       1.220   8.192  21.035  0.00  0.00    +0.000 A 
ENDROOT
BRANCH   5   7
ATOM      7  N   UNL     1      -0.886  11.141  21.893  0.00  0.00    +0.000 N 
ATOM      8  C   UNL     1      -2.319  12.203  22.691  0.00  0.00    +0.000 C 
ATOM      9  O   UNL     1      -1.670  12.879  23.506  0.00  0.00    +0.000 OA
ATOM     10  H   UNL     1      -0.104  11.617  22.359  0.00  0.00    +0.000 HD
BRANCH   8  11
ATOM     11  C   UNL     1      -4.355  12.846  22.767  0.00  0.00    +0.000 A 
ATOM     12  C   UNL     1      -6.103  13.648  23.707  0.00  0.00    +0.000 A 
ATOM     13  C   UNL     1      -7.527  14.820  23.995  0.00  0.00    +0.000 A 
ATOM     14  C   UNL     1      -6.547  15.925  23.454  0.00  0.00    +0.000 A 
ATOM     15  C   UNL     1      -5.926  15.710  22.261  0.00  0.00    +0.000 A 
ATOM     16  C   UNL     1      -4.442  15.614  22.104  0.00  0.00    +0.000 A 
ATOM     17  C   UNL     1      -4.011  15.023  20.968  0.00  0.00    +0.000 A 
ATOM     18  C   UNL     1      -3.017  13.970  20.815  0.00  0.00    +0.000 A 
ATOM     19  C   UNL     1      -3.570  12.723  20.725  0.00  0.00    +0.000 A 
ATOM     20  N   UNL     1      -4.731  12.571  21.504  0.00  0.00    +0.000 NA
ENDBRANCH   8  11
ENDBRANCH   5   7
BRANCH   1  21
ATOM     21  C   UNL     1       3.326   5.375  19.715  0.00  0.00    +0.000 C 
BRANCH  21  22
ATOM     22  N   UNL     1       3.014   4.233  18.413  0.00  0.00    +0.000 NA
ATOM     23  H   UNL     1       3.648   3.428  18.544  0.00  0.00    +0.000 HD
BRANCH  22  25
ATOM     24  C   UNL     1       0.927   2.307  18.604  0.00  0.00    +0.000 C 
ATOM     25  C   UNL     1       1.703   3.588  17.909  0.00  0.00    +0.000 C 
ENDBRANCH  22  25
ENDBRANCH  21  22
BRANCH  21  26
ATOM     26  C   UNL     1       5.223   5.196  19.428  0.00  0.00    +0.000 C 
BRANCH  26  27
ATOM     27  C   UNL     1       6.262   5.100  17.986  0.00  0.00    +0.000 A 
ATOM     28  N   UNL     1       7.402   4.433  17.846  0.00  0.00    +0.000 NA
ATOM     29  N   UNL     1       7.847   4.463  16.488  0.00  0.00    +0.000 NA
ATOM     30  C   UNL     1       7.012   5.157  15.726  0.00  0.00    +0.000 A 
ATOM     31  N   UNL     1       6.027   5.615  16.630  0.00  0.00    +0.000 N 
ATOM     32  C   UNL     1       4.972   6.472  16.145  0.00  0.00    +0.000 C 
ENDBRANCH  26  27
ENDBRANCH  21  26
ENDBRANCH   1  21
TORSDOF 7
ENDMDL
MODEL 7
REMARK VINA RESULT:     -10.5      7.535     12.390
REMARK  Name = 
REMARK  9 active torsions:
REMARK  status: ('A' for Active; 'I' for Inactive)
REMARK    1  A    between atoms: C_1  and  C_2
REMARK    2  A    between atoms: C_2  and  N_3
REMARK    3  A    between atoms: N_3  and  C_4
REMARK    4  A    between atoms: C_4  and  C_5
REMARK    5  A    between atoms: C_4  and  C_12
REMARK    6  A    between atoms: C_5  and  C_6
REMARK    7  A    between atoms: N_10  and  C_11
REMARK    8  A    between atoms: C_16  and  N_17
REMARK    9  A    between atoms: C_18  and  C_20
REMARK                            x       y       z     vdW  Elec       q    Type
REMARK                         _______ _______ _______ _____ _____    ______ ____
ROOT
ATOM      1  C   UNL     1      10.119  12.280  19.703  0.00  0.00    +0.000 A 
ATOM      2  C   UNL     1       9.691  12.753  18.531  0.00  0.00    +0.000 A 
ATOM      3  C   UNL     1       8.978  11.755  17.739  0.00  0.00    +0.000 A 
ATOM      4  C   UNL     1       8.487  10.109  17.835  0.00  0.00    +0.000 A 
ATOM      5  C   UNL     1       8.666   9.126  18.867  0.00  0.00    +0.000 A 
ATOM      6  C   UNL     1       9.604  10.469  19.820  0.00  0.00    +0.000 A 
ENDROOT
BRANCH   5   7
ATOM      7  N   UNL     1       8.107   7.223  18.774  0.00  0.00    +0.000 N 
ATOM      8  C   UNL     1       7.228   5.495  18.534  0.00  0.00    +0.000 C 
ATOM      9  O   UNL     1       8.204   4.733  18.617  0.00  0.00    +0.000 OA
ATOM     10  H   UNL     1       9.041   6.857  19.000  0.00  0.00    +0.000 HD
BRANCH   8  11
ATOM     11  C   UNL     1       5.468   4.301  18.332  0.00  0.00    +0.000 A 
ATOM     12  C   UNL     1       3.861   3.077  19.041  0.00  0.00    +0.000 A 
ATOM     13  C   UNL     1       2.098   2.547  19.349  0.00  0.00    +0.000 A 
ATOM     14  C   UNL     1       1.795   4.088  19.437  0.00  0.00    +0.000 A 
ATOM     15  C   UNL     1       2.216   4.889  18.419  0.00  0.00    +0.000 A 
ATOM     16  C   UNL     1       3.200   6.002  18.593  0.00  0.00    +0.000 A 
ATOM     17  C   UNL     1       3.799   6.434  17.462  0.00  0.00    +0.000 A 
ATOM     18  C   UNL     1       5.217   6.658  17.217  0.00  0.00    +0.000 A 
ATOM     19  C   UNL     1       5.826   5.599  16.604  0.00  0.00    +0.000 A 
ATOM     20  N   UNL     1       5.305   4.352  16.997  0.00  0.00    +0.000 NA
ENDBRANCH   8  11
ENDBRANCH   5   7
BRANCH   1  21
ATOM     21  C   UNL     1      10.993  13.904  20.438  0.00  0.00    +0.000 C 
BRANCH  21  22
ATOM     22  N   UNL     1      12.258  14.765  19.569  0.00  0.00    +0.000 NA
ATOM     23  H   UNL     1      13.134  14.229  19.679  0.00  0.00    +0.000 HD
BRANCH  22  25
ATOM     24  C   UNL     1      11.262  16.332  17.412  0.00  0.00    +0.000 C 
ATOM     25  C   UNL     1      12.328  15.287  18.116  0.00  0.00    +0.000 C 
ENDBRANCH  22  25
ENDBRANCH  21  22
BRANCH  21  26
ATOM     26  C   UNL     1      10.208  15.581  20.972  0.00  0.00    +0.000 C 
BRANCH  26  27
ATOM     27  C   UNL     1       8.780  16.509  20.453  0.00  0.00    +0.000 A 
ATOM     28  N   UNL     1       8.216  16.533  19.251  0.00  0.00    +0.000 NA
ATOM     29  N   UNL     1       6.988  17.264  19.279  0.00  0.00    +0.000 NA
ATOM     30  C   UNL     1       6.739  17.736  20.492  0.00  0.00    +0.000 A 
ATOM     31  N   UNL     1       7.858  17.327  21.254  0.00  0.00    +0.000 N 
ATOM     32  C   UNL     1       7.952  17.729  22.636  0.00  0.00    +0.000 C 
ENDBRANCH  26  27
ENDBRANCH  21  26
ENDBRANCH   1  21
TORSDOF 7
ENDMDL
MODEL 8
REMARK VINA RESULT:     -10.5      3.238      4.066
REMARK  Name = 
REMARK  9 active torsions:
REMARK  status: ('A' for Active; 'I' for Inactive)
REMARK    1  A    between atoms: C_1  and  C_2
REMARK    2  A    between atoms: C_2  and  N_3
REMARK    3  A    between atoms: N_3  and  C_4
REMARK    4  A    between atoms: C_4  and  C_5
REMARK    5  A    between atoms: C_4  and  C_12
REMARK    6  A    between atoms: C_5  and  C_6
REMARK    7  A    between atoms: N_10  and  C_11
REMARK    8  A    between atoms: C_16  and  N_17
REMARK    9  A    between atoms: C_18  and  C_20
REMARK                            x       y       z     vdW  Elec       q    Type
REMARK                         _______ _______ _______ _____ _____    ______ ____
ROOT
ATOM      1  C   UNL     1       3.524   6.085  18.098  0.00  0.00    +0.000 A 
ATOM      2  C   UNL     1       3.241   5.703  19.345  0.00  0.00    +0.000 A 
ATOM      3  C   UNL     1       2.401   6.660  20.058  0.00  0.00    +0.000 A 
ATOM      4  C   UNL     1       1.624   8.173  19.799  0.00  0.00    +0.000 A 
ATOM      5  C   UNL     1       1.579   9.030  18.646  0.00  0.00    +0.000 A 
ATOM      6  C   UNL     1       2.693   7.752  17.800  0.00  0.00    +0.000 A 
ENDROOT
BRANCH   5   7
ATOM      7  N   UNL     1       0.698  10.806  18.549  0.00  0.00    +0.000 N 
ATOM      8  C   UNL     1       0.167  12.686  18.601  0.00  0.00    +0.000 C 
ATOM      9  O   UNL     1      -0.812  12.664  17.837  0.00  0.00    +0.000 OA
ATOM     10  H   UNL     1      -0.102  10.466  18.000  0.00  0.00    +0.000 HD
BRANCH   8  11
ATOM     11  C   UNL     1       0.350  14.663  19.388  0.00  0.00    +0.000 A 
ATOM     12  C   UNL     1      -0.148  16.288  20.690  0.00  0.00    +0.000 A 
ATOM     13  C   UNL     1       0.111  17.605  21.987  0.00  0.00    +0.000 A 
ATOM     14  C   UNL     1       1.131  16.589  22.619  0.00  0.00    +0.000 A 
ATOM     15  C   UNL     1       2.099  16.063  21.819  0.00  0.00    +0.000 A 
ATOM     16  C   UNL     1       2.230  14.602  21.526  0.00  0.00    +0.000 A 
ATOM     17  C   UNL     1       2.967  14.288  20.438  0.00  0.00    +0.000 A 
ATOM     18  C   UNL     1       2.634  13.380  19.349  0.00  0.00    +0.000 A 
ATOM     19  C   UNL     1       2.116  14.022  18.260  0.00  0.00    +0.000 A 
ATOM     20  N   UNL     1       1.328  15.139  18.593  0.00  0.00    +0.000 NA
ENDBRANCH   8  11
ENDBRANCH   5   7
BRANCH   1  21
ATOM     21  C   UNL     1       4.636   4.551  17.505  0.00  0.00    +0.000 C 
BRANCH  21  22
ATOM     22  N   UNL     1       4.198   2.882  17.853  0.00  0.00    +0.000 NA
ATOM     23  H   UNL     1       4.693   2.602  18.715  0.00  0.00    +0.000 HD
BRANCH  22  25
ATOM     24  C   UNL     1       1.847   2.216  19.313  0.00  0.00    +0.000 C 
ATOM     25  C   UNL     1       2.821   2.191  17.980  0.00  0.00    +0.000 C 
ENDBRANCH  22  25
ENDBRANCH  21  22
BRANCH  21  26
ATOM     26  C   UNL     1       5.174   4.046  15.725  0.00  0.00    +0.000 C 
BRANCH  26  27
ATOM     27  C   UNL     1       6.374   4.663  14.563  0.00  0.00    +0.000 A 
ATOM     28  N   UNL     1       7.363   5.519  14.791  0.00  0.00    +0.000 NA
ATOM     29  N   UNL     1       8.213   5.632  13.647  0.00  0.00    +0.000 NA
ATOM     30  C   UNL     1       7.787   4.861  12.656  0.00  0.00    +0.000 A 
ATOM     31  N   UNL     1       6.610   4.268  13.168  0.00  0.00    +0.000 N 
ATOM     32  C   UNL     1       5.835   3.398  12.317  0.00  0.00    +0.000 C 
ENDBRANCH  26  27
ENDBRANCH  21  26
ENDBRANCH   1  21
TORSDOF 7
ENDMDL
MODEL 9
REMARK VINA RESULT:     -10.4      1.887      2.548
REMARK  Name = 
REMARK  9 active torsions:
REMARK  status: ('A' for Active; 'I' for Inactive)
REMARK    1  A    between atoms: C_1  and  C_2
REMARK    2  A    between atoms: C_2  and  N_3
REMARK    3  A    between atoms: N_3  and  C_4
REMARK    4  A    between atoms: C_4  and  C_5
REMARK    5  A    between atoms: C_4  and  C_12
REMARK    6  A    between atoms: C_5  and  C_6
REMARK    7  A    between atoms: N_10  and  C_11
REMARK    8  A    between atoms: C_16  and  N_17
REMARK    9  A    between atoms: C_18  and  C_20
REMARK                            x       y       z     vdW  Elec       q    Type
REMARK                         _______ _______ _______ _____ _____    ______ ____
ROOT
ATOM      1  C   UNL     1       3.590   6.071  18.261  0.00  0.00    +0.000 A 
ATOM      2  C   UNL     1       3.351   5.634  19.500  0.00  0.00    +0.000 A 
ATOM      3  C   UNL     1       2.466   6.516  20.255  0.00  0.00    +0.000 A 
ATOM      4  C   UNL     1       1.596   7.986  20.055  0.00  0.00    +0.000 A 
ATOM      5  C   UNL     1       1.479   8.873  18.931  0.00  0.00    +0.000 A 
ATOM      6  C   UNL     1       2.655   7.693  18.028  0.00  0.00    +0.000 A 
ENDROOT
BRANCH   5   7
ATOM      7  N   UNL     1       0.492  10.595  18.902  0.00  0.00    +0.000 N 
ATOM      8  C   UNL     1      -0.301  12.353  19.213  0.00  0.00    +0.000 C 
ATOM      9  O   UNL     1      -0.714  12.619  18.072  0.00  0.00    +0.000 OA
ATOM     10  H   UNL     1       0.171  10.484  17.932  0.00  0.00    +0.000 HD
BRANCH   8  11
ATOM     11  C   UNL     1      -0.900  13.934  20.520  0.00  0.00    +0.000 A 
ATOM     12  C   UNL     1      -1.988  15.695  21.064  0.00  0.00    +0.000 A 
ATOM     13  C   UNL     1      -3.165  16.768  22.038  0.00  0.00    +0.000 A 
ATOM     14  C   UNL     1      -3.978  15.440  22.258  0.00  0.00    +0.000 A 
ATOM     15  C   UNL     1      -3.317  14.349  22.737  0.00  0.00    +0.000 A 
ATOM     16  C   UNL     1      -3.182  13.064  21.984  0.00  0.00    +0.000 A 
ATOM     17  C   UNL     1      -2.196  12.241  22.404  0.00  0.00    +0.000 A 
ATOM     18  C   UNL     1      -1.179  11.567  21.609  0.00  0.00    +0.000 A 
ATOM     19  C   UNL     1       0.008  12.244  21.578  0.00  0.00    +0.000 A 
ATOM     20  N   UNL     1      -0.146  13.642  21.596  0.00  0.00    +0.000 NA
ENDBRANCH   8  11
ENDBRANCH   5   7
BRANCH   1  21
ATOM     21  C   UNL     1       4.783   4.626  17.604  0.00  0.00    +0.000 C 
BRANCH  21  22
ATOM     22  N   UNL     1       4.531   2.935  18.024  0.00  0.00    +0.000 NA
ATOM     23  H   UNL     1       4.886   2.795  18.983  0.00  0.00    +0.000 HD
BRANCH  22  25
ATOM     24  C   UNL     1       2.076   1.983  19.106  0.00  0.00    +0.000 C 
ATOM     25  C   UNL     1       3.270   2.044  17.967  0.00  0.00    +0.000 C 
ENDBRANCH  22  25
ENDBRANCH  21  22
BRANCH  21  26
ATOM     26  C   UNL     1       5.209   4.120  15.794  0.00  0.00    +0.000 C 
BRANCH  26  27
ATOM     27  C   UNL     1       6.376   4.699  14.580  0.00  0.00    +0.000 A 
ATOM     28  N   UNL     1       7.376   5.555  14.755  0.00  0.00    +0.000 NA
ATOM     29  N   UNL     1       8.191   5.633  13.583  0.00  0.00    +0.000 NA
ATOM     30  C   UNL     1       7.730   4.839  12.626  0.00  0.00    +0.000 A 
ATOM     31  N   UNL     1       6.567   4.267  13.189  0.00  0.00    +0.000 N 
ATOM     32  C   UNL     1       5.761   3.380  12.386  0.00  0.00    +0.000 C 
ENDBRANCH  26  27
ENDBRANCH  21  26
ENDBRANCH   1  21
TORSDOF 7
ENDMDL
