MODEL 1
REMARK VINA RESULT:      -8.1      0.000      0.000
REMARK  Name = 
REMARK  7 active torsions:
REMARK  status: ('A' for Active; 'I' for Inactive)
REMARK    1  A    between atoms: C_1  and  C_2
REMARK    2  A    between atoms: N_5  and  C_6
REMARK    3  A    between atoms: C_6  and  C_7
REMARK    4  A    between atoms: C_11  and  N_12
REMARK    5  A    between atoms: C_13  and  C_15
REMARK    6  A    between atoms: C_17  and  C_18
REMARK    7  A    between atoms: C_26  and  C_27
REMARK                            x       y       z     vdW  Elec       q    Type
REMARK                         _______ _______ _______ _____ _____    ______ ____
ROOT
ATOM      1  N   UNL     1       6.839   7.667  17.313  0.00  0.00    +0.000 N 
ATOM      2  C   UNL     1       7.882   7.873  18.202  0.00  0.00    +0.000 C 
ATOM      3  O   UNL     1       8.407   7.021  18.913  0.00  0.00    +0.000 OA
ATOM      4  H   UNL     1       6.613   8.480  16.743  0.00  0.00    +0.000 HD
ENDROOT
BRANCH   1   9
ATOM      5  C   UNL     1       4.200   5.058  17.079  0.00  0.00    +0.000 A 
ATOM      6  C   UNL     1       4.860   4.075  16.329  0.00  0.00    +0.000 A 
ATOM      7  C   UNL     1       6.193   4.242  15.973  0.00  0.00    +0.000 A 
ATOM      8  C   UNL     1       6.868   5.409  16.327  0.00  0.00    +0.000 A 
ATOM      9  C   UNL     1       6.221   6.433  17.026  0.00  0.00    +0.000 A 
ATOM     10  C   UNL     1       4.894   6.233  17.433  0.00  0.00    +0.000 A 
BRANCH   5  11
ATOM     11  C   UNL     1       2.757   4.850  17.467  0.00  0.00    +0.000 C 
BRANCH  11  16
ATOM     12  C   UNL     1       1.819   2.585  21.857  0.00  0.00    +0.000 C 
ATOM     13  C   UNL     1       2.115   3.558  20.780  0.00  0.00    +0.000 A 
ATOM     14  N   UNL     1       2.347   4.876  21.076  0.00  0.00    +0.000 NA
ATOM     15  C   UNL     1       2.577   5.462  19.924  0.00  0.00    +0.000 A 
ATOM     16  N   UNL     1       2.520   4.578  18.883  0.00  0.00    +0.000 N 
ATOM     17  C   UNL     1       2.200   3.342  19.416  0.00  0.00    +0.000 A 
ATOM     18  C   UNL     1       2.005   2.093  18.639  0.00  0.00    +0.000 C 
ENDBRANCH  11  16
ENDBRANCH   5  11
ENDBRANCH   1   9
BRANCH   2  19
ATOM     19  C   UNL     1       8.390   9.254  18.211  0.00  0.00    +0.000 A 
ATOM     20  C   UNL     1       9.437   9.739  19.043  0.00  0.00    +0.000 A 
ATOM     21  C   UNL     1       9.603  11.056  18.701  0.00  0.00    +0.000 A 
ATOM     22  N   UNL     1       8.675  11.302  17.731  0.00  0.00    +0.000 N 
ATOM     23  N   UNL     1       7.927  10.224  17.396  0.00  0.00    +0.000 NA
ATOM     24  H   UNL     1       8.510  12.182  17.253  0.00  0.00    +0.000 HD
BRANCH  21  25
ATOM     25  C   UNL     1      10.512  12.045  19.178  0.00  0.00    +0.000 A 
ATOM     26  C   UNL     1      11.890  12.103  19.034  0.00  0.00    +0.000 A 
ATOM     27  C   UNL     1      12.327  13.284  19.677  0.00  0.00    +0.000 A 
ATOM     28  C   UNL     1      11.199  13.883  20.179  0.00  0.00    +0.000 A 
ATOM     29  O   UNL     1      10.100  13.144  19.884  0.00  0.00    +0.000 OA
ENDBRANCH  21  25
ENDBRANCH   2  19
TORSDOF 5
ENDMDL
MODEL 2
REMARK VINA RESULT:      -8.0      5.757      8.376
REMARK  Name = 
REMARK  7 active torsions:
REMARK  status: ('A' for Active; 'I' for Inactive)
REMARK    1  A    between atoms: C_1  and  C_2
REMARK    2  A    between atoms: N_5  and  C_6
REMARK    3  A    between atoms: C_6  and  C_7
REMARK    4  A    between atoms: C_11  and  N_12
REMARK    5  A    between atoms: C_13  and  C_15
REMARK    6  A    between atoms: C_17  and  C_18
REMARK    7  A    between atoms: C_26  and  C_27
REMARK                            x       y       z     vdW  Elec       q    Type
REMARK                         _______ _______ _______ _____ _____    ______ ____
ROOT
ATOM      1  N   UNL     1       3.111   6.902  18.551  0.00  0.00    +0.000 N 
ATOM      2  C   UNL     1       3.068   5.517  18.541  0.00  0.00    +0.000 C 
ATOM      3  O   UNL     1       2.283   4.812  19.169  0.00  0.00    +0.000 OA
ATOM      4  H   UNL     1       3.768   7.301  17.885  0.00  0.00    +0.000 HD
ENDROOT
BRANCH   1   9
ATOM      5  C   UNL     1       0.726   9.683  19.188  0.00  0.00    +0.000 A 
ATOM      6  C   UNL     1       0.328   9.400  20.502  0.00  0.00    +0.000 A 
ATOM      7  C   UNL     1       0.907   8.345  21.197  0.00  0.00    +0.000 A 
ATOM      8  C   UNL     1       1.856   7.536  20.575  0.00  0.00    +0.000 A 
ATOM      9  C   UNL     1       2.231   7.757  19.246  0.00  0.00    +0.000 A 
ATOM     10  C   UNL     1       1.689   8.859  18.570  0.00  0.00    +0.000 A 
BRANCH   5  11
ATOM     11  C   UNL     1       0.096  10.842  18.456  0.00  0.00    +0.000 C 
BRANCH  11  16
ATOM     12  C   UNL     1      -4.895  11.244  17.996  0.00  0.00    +0.000 C 
ATOM     13  C   UNL     1      -3.471  10.857  17.874  0.00  0.00    +0.000 A 
ATOM     14  N   UNL     1      -3.082   9.903  16.969  0.00  0.00    +0.000 NA
ATOM     15  C   UNL     1      -1.781   9.795  17.106  0.00  0.00    +0.000 A 
ATOM     16  N   UNL     1      -1.296  10.650  18.055  0.00  0.00    +0.000 N 
ATOM     17  C   UNL     1      -2.379  11.332  18.580  0.00  0.00    +0.000 A 
ATOM     18  C   UNL     1      -2.318  12.343  19.664  0.00  0.00    +0.000 C 
ENDBRANCH  11  16
ENDBRANCH   5  11
ENDBRANCH   1   9
BRANCH   2  19
ATOM     19  C   UNL     1       4.051   4.899  17.637  0.00  0.00    +0.000 A 
ATOM     20  C   UNL     1       4.495   5.452  16.405  0.00  0.00    +0.000 A 
ATOM     21  C   UNL     1       5.425   4.571  15.915  0.00  0.00    +0.000 A 
ATOM     22  N   UNL     1       5.484   3.557  16.828  0.00  0.00    +0.000 N 
ATOM     23  N   UNL     1       4.672   3.730  17.898  0.00  0.00    +0.000 NA
ATOM     24  H   UNL     1       6.066   2.727  16.780  0.00  0.00    +0.000 HD
BRANCH  21  25
ATOM     25  C   UNL     1       6.220   4.601  14.733  0.00  0.00    +0.000 A 
ATOM     26  C   UNL     1       6.021   3.935  13.533  0.00  0.00    +0.000 A 
ATOM     27  C   UNL     1       7.081   4.301  12.672  0.00  0.00    +0.000 A 
ATOM     28  C   UNL     1       7.869   5.167  13.387  0.00  0.00    +0.000 A 
ATOM     29  O   UNL     1       7.360   5.354  14.631  0.00  0.00    +0.000 OA
ENDBRANCH  21  25
ENDBRANCH   2  19
TORSDOF 5
ENDMDL
MODEL 3
REMARK VINA RESULT:      -8.0      0.727      1.257
REMARK  Name = 
REMARK  7 active torsions:
REMARK  status: ('A' for Active; 'I' for Inactive)
REMARK    1  A    between atoms: C_1  and  C_2
REMARK    2  A    between atoms: N_5  and  C_6
REMARK    3  A    between atoms: C_6  and  C_7
REMARK    4  A    between atoms: C_11  and  N_12
REMARK    5  A    between atoms: C_13  and  C_15
REMARK    6  A    between atoms: C_17  and  C_18
REMARK    7  A    between atoms: C_26  and  C_27
REMARK                            x       y       z     vdW  Elec       q    Type
REMARK                         _______ _______ _______ _____ _____    ______ ____
ROOT
ATOM      1  N   UNL     1       6.908   7.546  17.153  0.00  0.00    +0.000 N 
ATOM      2  C   UNL     1       7.860   7.782  18.133  0.00  0.00    +0.000 C 
ATOM      3  O   UNL     1       8.340   6.946  18.893  0.00  0.00    +0.000 OA
ATOM      4  H   UNL     1       6.715   8.351  16.561  0.00  0.00    +0.000 HD
ENDROOT
BRANCH   1   9
ATOM      5  C   UNL     1       4.397   4.827  16.802  0.00  0.00    +0.000 A 
ATOM      6  C   UNL     1       5.110   3.902  16.025  0.00  0.00    +0.000 A 
ATOM      7  C   UNL     1       6.436   4.144  15.690  0.00  0.00    +0.000 A 
ATOM      8  C   UNL     1       7.053   5.328  16.090  0.00  0.00    +0.000 A 
ATOM      9  C   UNL     1       6.352   6.295  16.817  0.00  0.00    +0.000 A 
ATOM     10  C   UNL     1       5.033   6.020  17.203  0.00  0.00    +0.000 A 
BRANCH   5  11
ATOM     11  C   UNL     1       2.962   4.538  17.167  0.00  0.00    +0.000 C 
BRANCH  11  16
ATOM     12  C   UNL     1       2.145   2.738  21.790  0.00  0.00    +0.000 C 
ATOM     13  C   UNL     1       2.405   2.904  20.342  0.00  0.00    +0.000 A 
ATOM     14  N   UNL     1       2.504   1.811  19.521  0.00  0.00    +0.000 NA
ATOM     15  C   UNL     1       2.731   2.290  18.320  0.00  0.00    +0.000 A 
ATOM     16  N   UNL     1       2.771   3.655  18.315  0.00  0.00    +0.000 N 
ATOM     17  C   UNL     1       2.584   4.072  19.620  0.00  0.00    +0.000 A 
ATOM     18  C   UNL     1       2.583   5.482  20.084  0.00  0.00    +0.000 C 
ENDBRANCH  11  16
ENDBRANCH   5  11
ENDBRANCH   1   9
BRANCH   2  19
ATOM     19  C   UNL     1       8.330   9.176  18.181  0.00  0.00    +0.000 A 
ATOM     20  C   UNL     1       9.338   9.674  19.050  0.00  0.00    +0.000 A 
ATOM     21  C   UNL     1       9.478  11.001  18.737  0.00  0.00    +0.000 A 
ATOM     22  N   UNL     1       8.570  11.240  17.746  0.00  0.00    +0.000 N 
ATOM     23  N   UNL     1       7.863  10.148  17.370  0.00  0.00    +0.000 NA
ATOM     24  H   UNL     1       8.395  12.124  17.279  0.00  0.00    +0.000 HD
BRANCH  21  25
ATOM     25  C   UNL     1      10.345  12.006  19.257  0.00  0.00    +0.000 A 
ATOM     26  C   UNL     1      11.715  12.140  19.098  0.00  0.00    +0.000 A 
ATOM     27  C   UNL     1      12.105  13.303  19.801  0.00  0.00    +0.000 A 
ATOM     28  C   UNL     1      10.958  13.816  20.352  0.00  0.00    +0.000 A 
ATOM     29  O   UNL     1       9.891  13.041  20.031  0.00  0.00    +0.000 OA
ENDBRANCH  21  25
ENDBRANCH   2  19
TORSDOF 5
ENDMDL
MODEL 4
REMARK VINA RESULT:      -7.9      5.704      8.331
REMARK  Name = 
REMARK  7 active torsions:
REMARK  status: ('A' for Active; 'I' for Inactive)
REMARK    1  A    between atoms: C_1  and  C_2
REMARK    2  A    between atoms: N_5  and  C_6
REMARK    3  A    between atoms: C_6  and  C_7
REMARK    4  A    between atoms: C_11  and  N_12
REMARK    5  A    between atoms: C_13  and  C_15
REMARK    6  A    between atoms: C_17  and  C_18
REMARK    7  A    between atoms: C_26  and  C_27
REMARK                            x       y       z     vdW  Elec       q    Type
REMARK                         _______ _______ _______ _____ _____    ______ ____
ROOT
ATOM      1  N   UNL     1       3.025   7.057  18.527  0.00  0.00    +0.000 N 
ATOM      2  C   UNL     1       3.493   5.828  18.968  0.00  0.00    +0.000 C 
ATOM      3  O   UNL     1       3.244   5.304  20.049  0.00  0.00    +0.000 OA
ATOM      4  H   UNL     1       3.263   7.269  17.561  0.00  0.00    +0.000 HD
ENDROOT
BRANCH   1   9
ATOM      5  C   UNL     1       0.753   9.921  19.205  0.00  0.00    +0.000 A 
ATOM      6  C   UNL     1       0.233   9.561  20.457  0.00  0.00    +0.000 A 
ATOM      7  C   UNL     1       0.692   8.421  21.104  0.00  0.00    +0.000 A 
ATOM      8  C   UNL     1       1.644   7.606  20.492  0.00  0.00    +0.000 A 
ATOM      9  C   UNL     1       2.139   7.907  19.220  0.00  0.00    +0.000 A 
ATOM     10  C   UNL     1       1.717   9.090  18.598  0.00  0.00    +0.000 A 
BRANCH   5  11
ATOM     11  C   UNL     1       0.251  11.171  18.525  0.00  0.00    +0.000 C 
BRANCH  11  16
ATOM     12  C   UNL     1      -4.759  11.133  18.097  0.00  0.00    +0.000 C 
ATOM     13  C   UNL     1      -3.355  11.402  18.486  0.00  0.00    +0.000 A 
ATOM     14  N   UNL     1      -3.069  12.273  19.504  0.00  0.00    +0.000 NA
ATOM     15  C   UNL     1      -1.759  12.288  19.599  0.00  0.00    +0.000 A 
ATOM     16  N   UNL     1      -1.174  11.449  18.694  0.00  0.00    +0.000 N 
ATOM     17  C   UNL     1      -2.191  10.881  17.948  0.00  0.00    +0.000 A 
ATOM     18  C   UNL     1      -2.009   9.926  16.827  0.00  0.00    +0.000 C 
ENDBRANCH  11  16
ENDBRANCH   5  11
ENDBRANCH   1   9
BRANCH   2  19
ATOM     19  C   UNL     1       4.322   5.120  17.979  0.00  0.00    +0.000 A 
ATOM     20  C   UNL     1       4.692   5.627  16.704  0.00  0.00    +0.000 A 
ATOM     21  C   UNL     1       5.483   4.661  16.135  0.00  0.00    +0.000 A 
ATOM     22  N   UNL     1       5.537   3.649  17.049  0.00  0.00    +0.000 N 
ATOM     23  N   UNL     1       4.854   3.899  18.192  0.00  0.00    +0.000 NA
ATOM     24  H   UNL     1       6.032   2.768  16.955  0.00  0.00    +0.000 HD
BRANCH  21  25
ATOM     25  C   UNL     1       6.157   4.615  14.881  0.00  0.00    +0.000 A 
ATOM     26  C   UNL     1       5.812   3.920  13.732  0.00  0.00    +0.000 A 
ATOM     27  C   UNL     1       6.796   4.207  12.758  0.00  0.00    +0.000 A 
ATOM     28  C   UNL     1       7.688   5.058  13.360  0.00  0.00    +0.000 A 
ATOM     29  O   UNL     1       7.313   5.310  14.640  0.00  0.00    +0.000 OA
ENDBRANCH  21  25
ENDBRANCH   2  19
TORSDOF 5
ENDMDL
MODEL 5
REMARK VINA RESULT:      -7.8      5.528      8.804
REMARK  Name = 
REMARK  7 active torsions:
REMARK  status: ('A' for Active; 'I' for Inactive)
REMARK    1  A    between atoms: C_1  and  C_2
REMARK    2  A    between atoms: N_5  and  C_6
REMARK    3  A    between atoms: C_6  and  C_7
REMARK    4  A    between atoms: C_11  and  N_12
REMARK    5  A    between atoms: C_13  and  C_15
REMARK    6  A    between atoms: C_17  and  C_18
REMARK    7  A    between atoms: C_26  and  C_27
REMARK                            x       y       z     vdW  Elec       q    Type
REMARK                         _______ _______ _______ _____ _____    ______ ____
ROOT
ATOM      1  N   UNL     1       2.334   7.493  19.839  0.00  0.00    +0.000 N 
ATOM      2  C   UNL     1       2.247   6.117  19.989  0.00  0.00    +0.000 C 
ATOM      3  O   UNL     1       1.423   5.513  20.668  0.00  0.00    +0.000 OA
ATOM      4  H   UNL     1       3.023   7.792  19.154  0.00  0.00    +0.000 HD
ENDROOT
BRANCH   1   9
ATOM      5  C   UNL     1       0.009  10.385  20.067  0.00  0.00    +0.000 A 
ATOM      6  C   UNL     1      -0.424  10.278  21.396  0.00  0.00    +0.000 A 
ATOM      7  C   UNL     1       0.111   9.304  22.231  0.00  0.00    +0.000 A 
ATOM      8  C   UNL     1       1.053   8.403  21.737  0.00  0.00    +0.000 A 
ATOM      9  C   UNL     1       1.462   8.448  20.401  0.00  0.00    +0.000 A 
ATOM     10  C   UNL     1       0.963   9.469  19.580  0.00  0.00    +0.000 A 
BRANCH   5  11
ATOM     11  C   UNL     1      -0.575  11.458  19.181  0.00  0.00    +0.000 C 
BRANCH  11  16
ATOM     12  C   UNL     1      -5.357  11.203  17.649  0.00  0.00    +0.000 C 
ATOM     13  C   UNL     1      -3.900  11.016  17.837  0.00  0.00    +0.000 A 
ATOM     14  N   UNL     1      -3.197  10.159  17.031  0.00  0.00    +0.000 NA
ATOM     15  C   UNL     1      -1.953  10.221  17.447  0.00  0.00    +0.000 A 
ATOM     16  N   UNL     1      -1.808  11.097  18.485  0.00  0.00    +0.000 N 
ATOM     17  C   UNL     1      -3.062  11.606  18.767  0.00  0.00    +0.000 A 
ATOM     18  C   UNL     1      -3.377  12.575  19.847  0.00  0.00    +0.000 C 
ENDBRANCH  11  16
ENDBRANCH   5  11
ENDBRANCH   1   9
BRANCH   2  19
ATOM     19  C   UNL     1       3.237   5.370  19.196  0.00  0.00    +0.000 A 
ATOM     20  C   UNL     1       3.760   5.780  17.939  0.00  0.00    +0.000 A 
ATOM     21  C   UNL     1       4.665   4.814  17.580  0.00  0.00    +0.000 A 
ATOM     22  N   UNL     1       4.634   3.892  18.587  0.00  0.00    +0.000 N 
ATOM     23  N   UNL     1       3.787   4.205  19.597  0.00  0.00    +0.000 NA
ATOM     24  H   UNL     1       5.175   3.036  18.647  0.00  0.00    +0.000 HD
BRANCH  21  25
ATOM     25  C   UNL     1       5.510   4.692  16.440  0.00  0.00    +0.000 A 
ATOM     26  C   UNL     1       6.642   5.422  16.114  0.00  0.00    +0.000 A 
ATOM     27  C   UNL     1       7.128   4.915  14.886  0.00  0.00    +0.000 A 
ATOM     28  C   UNL     1       6.270   3.905  14.527  0.00  0.00    +0.000 A 
ATOM     29  O   UNL     1       5.290   3.764  15.456  0.00  0.00    +0.000 OA
ENDBRANCH  21  25
ENDBRANCH   2  19
TORSDOF 5
ENDMDL
MODEL 6
REMARK VINA RESULT:      -7.8      5.556      8.829
REMARK  Name = 
REMARK  7 active torsions:
REMARK  status: ('A' for Active; 'I' for Inactive)
REMARK    1  A    between atoms: C_1  and  C_2
REMARK    2  A    between atoms: N_5  and  C_6
REMARK    3  A    between atoms: C_6  and  C_7
REMARK    4  A    between atoms: C_11  and  N_12
REMARK    5  A    between atoms: C_13  and  C_15
REMARK    6  A    between atoms: C_17  and  C_18
REMARK    7  A    between atoms: C_26  and  C_27
REMARK                            x       y       z     vdW  Elec       q    Type
REMARK                         _______ _______ _______ _____ _____    ______ ____
ROOT
ATOM      1  N   UNL     1       2.245   7.510  19.982  0.00  0.00    +0.000 N 
ATOM      2  C   UNL     1       2.109   6.132  20.055  0.00  0.00    +0.000 C 
ATOM      3  O   UNL     1       1.227   5.522  20.652  0.00  0.00    +0.000 OA
ATOM      4  H   UNL     1       2.984   7.820  19.355  0.00  0.00    +0.000 HD
ENDROOT
BRANCH   1   9
ATOM      5  C   UNL     1       0.032  10.488  20.228  0.00  0.00    +0.000 A 
ATOM      6  C   UNL     1      -0.518  10.308  21.506  0.00  0.00    +0.000 A 
ATOM      7  C   UNL     1      -0.098   9.254  22.307  0.00  0.00    +0.000 A 
ATOM      8  C   UNL     1       0.844   8.345  21.828  0.00  0.00    +0.000 A 
ATOM      9  C   UNL     1       1.369   8.464  20.538  0.00  0.00    +0.000 A 
ATOM     10  C   UNL     1       0.986   9.563  19.756  0.00  0.00    +0.000 A 
BRANCH   5  11
ATOM     11  C   UNL     1      -0.427  11.647  19.379  0.00  0.00    +0.000 C 
BRANCH  11  16
ATOM     12  C   UNL     1      -5.104  10.971  17.661  0.00  0.00    +0.000 C 
ATOM     13  C   UNL     1      -3.897  11.412  18.397  0.00  0.00    +0.000 A 
ATOM     14  N   UNL     1      -4.000  12.297  19.438  0.00  0.00    +0.000 NA
ATOM     15  C   UNL     1      -2.774  12.478  19.871  0.00  0.00    +0.000 A 
ATOM     16  N   UNL     1      -1.870  11.736  19.165  0.00  0.00    +0.000 N 
ATOM     17  C   UNL     1      -2.576  11.054  18.191  0.00  0.00    +0.000 A 
ATOM     18  C   UNL     1      -1.986  10.148  17.174  0.00  0.00    +0.000 C 
ENDBRANCH  11  16
ENDBRANCH   5  11
ENDBRANCH   1   9
BRANCH   2  19
ATOM     19  C   UNL     1       3.123   5.394  19.286  0.00  0.00    +0.000 A 
ATOM     20  C   UNL     1       3.626   5.774  18.012  0.00  0.00    +0.000 A 
ATOM     21  C   UNL     1       4.565   4.830  17.685  0.00  0.00    +0.000 A 
ATOM     22  N   UNL     1       4.573   3.947  18.727  0.00  0.00    +0.000 N 
ATOM     23  N   UNL     1       3.718   4.266  19.728  0.00  0.00    +0.000 NA
ATOM     24  H   UNL     1       5.147   3.115  18.816  0.00  0.00    +0.000 HD
BRANCH  21  25
ATOM     25  C   UNL     1       5.410   4.697  16.546  0.00  0.00    +0.000 A 
ATOM     26  C   UNL     1       6.672   5.229  16.331  0.00  0.00    +0.000 A 
ATOM     27  C   UNL     1       7.093   4.802  15.050  0.00  0.00    +0.000 A 
ATOM     28  C   UNL     1       6.070   4.035  14.551  0.00  0.00    +0.000 A 
ATOM     29  O   UNL     1       5.050   3.966  15.444  0.00  0.00    +0.000 OA
ENDBRANCH  21  25
ENDBRANCH   2  19
TORSDOF 5
ENDMDL
MODEL 7
REMARK VINA RESULT:      -7.8      5.659      8.452
REMARK  Name = 
REMARK  7 active torsions:
REMARK  status: ('A' for Active; 'I' for Inactive)
REMARK    1  A    between atoms: C_1  and  C_2
REMARK    2  A    between atoms: N_5  and  C_6
REMARK    3  A    between atoms: C_6  and  C_7
REMARK    4  A    between atoms: C_11  and  N_12
REMARK    5  A    between atoms: C_13  and  C_15
REMARK    6  A    between atoms: C_17  and  C_18
REMARK    7  A    between atoms: C_26  and  C_27
REMARK                            x       y       z     vdW  Elec       q    Type
REMARK                         _______ _______ _______ _____ _____    ______ ____
ROOT
ATOM      1  N   UNL     1       3.160   6.664  18.103  0.00  0.00    +0.000 N 
ATOM      2  C   UNL     1       4.210   5.848  18.495  0.00  0.00    +0.000 C 
ATOM      3  O   UNL     1       4.663   5.747  19.632  0.00  0.00    +0.000 OA
ATOM      4  H   UNL     1       2.869   6.529  17.138  0.00  0.00    +0.000 HD
ENDROOT
BRANCH   1   9
ATOM      5  C   UNL     1       1.062   9.528  19.208  0.00  0.00    +0.000 A 
ATOM      6  C   UNL     1       0.695   9.111  20.495  0.00  0.00    +0.000 A 
ATOM      7  C   UNL     1       1.204   7.930  21.020  0.00  0.00    +0.000 A 
ATOM      8  C   UNL     1       2.051   7.132  20.252  0.00  0.00    +0.000 A 
ATOM      9  C   UNL     1       2.390   7.492  18.945  0.00  0.00    +0.000 A 
ATOM     10  C   UNL     1       1.921   8.714  18.441  0.00  0.00    +0.000 A 
BRANCH   5  11
ATOM     11  C   UNL     1       0.509  10.821  18.661  0.00  0.00    +0.000 C 
BRANCH  11  16
ATOM     12  C   UNL     1      -4.413  11.832  18.473  0.00  0.00    +0.000 C 
ATOM     13  C   UNL     1      -3.054  11.278  18.271  0.00  0.00    +0.000 A 
ATOM     14  N   UNL     1      -2.831  10.302  17.334  0.00  0.00    +0.000 NA
ATOM     15  C   UNL     1      -1.548  10.035  17.399  0.00  0.00    +0.000 A 
ATOM     16  N   UNL     1      -0.914  10.807  18.332  0.00  0.00    +0.000 N 
ATOM     17  C   UNL     1      -1.878  11.604  18.923  0.00  0.00    +0.000 A 
ATOM     18  C   UNL     1      -1.639  12.580  20.016  0.00  0.00    +0.000 C 
ENDBRANCH  11  16
ENDBRANCH   5  11
ENDBRANCH   1   9
BRANCH   2  19
ATOM     19  C   UNL     1       4.754   5.018  17.409  0.00  0.00    +0.000 A 
ATOM     20  C   UNL     1       5.127   5.491  16.121  0.00  0.00    +0.000 A 
ATOM     21  C   UNL     1       5.609   4.398  15.448  0.00  0.00    +0.000 A 
ATOM     22  N   UNL     1       5.492   3.353  16.318  0.00  0.00    +0.000 N 
ATOM     23  N   UNL     1       4.989   3.695  17.528  0.00  0.00    +0.000 NA
ATOM     24  H   UNL     1       5.748   2.386  16.147  0.00  0.00    +0.000 HD
BRANCH  21  25
ATOM     25  C   UNL     1       6.142   4.262  14.134  0.00  0.00    +0.000 A 
ATOM     26  C   UNL     1       7.206   4.934  13.552  0.00  0.00    +0.000 A 
ATOM     27  C   UNL     1       7.346   4.436  12.236  0.00  0.00    +0.000 A 
ATOM     28  C   UNL     1       6.364   3.489  12.083  0.00  0.00    +0.000 A 
ATOM     29  O   UNL     1       5.632   3.377  13.221  0.00  0.00    +0.000 OA
ENDBRANCH  21  25
ENDBRANCH   2  19
TORSDOF 5
ENDMDL
MODEL 8
REMARK VINA RESULT:      -7.8      2.274      3.431
REMARK  Name = 
REMARK  7 active torsions:
REMARK  status: ('A' for Active; 'I' for Inactive)
REMARK    1  A    between atoms: C_1  and  C_2
REMARK    2  A    between atoms: N_5  and  C_6
REMARK    3  A    between atoms: C_6  and  C_7
REMARK    4  A    between atoms: C_11  and  N_12
REMARK    5  A    between atoms: C_13  and  C_15
REMARK    6  A    between atoms: C_17  and  C_18
REMARK    7  A    between atoms: C_26  and  C_27
REMARK                            x       y       z     vdW  Elec       q    Type
REMARK                         _______ _______ _______ _____ _____    ______ ____
ROOT
ATOM      1  N   UNL     1       8.496   9.486  17.774  0.00  0.00    +0.000 N 
ATOM      2  C   UNL     1       9.054  10.287  18.759  0.00  0.00    +0.000 C 
ATOM      3  O   UNL     1       9.101  10.034  19.959  0.00  0.00    +0.000 OA
ATOM      4  H   UNL     1       8.648   9.826  16.828  0.00  0.00    +0.000 HD
ENDROOT
BRANCH   1   9
ATOM      5  C   UNL     1       6.279   6.546  17.257  0.00  0.00    +0.000 A 
ATOM      6  C   UNL     1       6.842   5.624  18.151  0.00  0.00    +0.000 A 
ATOM      7  C   UNL     1       7.895   6.002  18.975  0.00  0.00    +0.000 A 
ATOM      8  C   UNL     1       8.425   7.288  18.886  0.00  0.00    +0.000 A 
ATOM      9  C   UNL     1       7.923   8.212  17.964  0.00  0.00    +0.000 A 
ATOM     10  C   UNL     1       6.822   7.845  17.178  0.00  0.00    +0.000 A 
BRANCH   5  11
ATOM     11  C   UNL     1       5.126   6.121  16.381  0.00  0.00    +0.000 C 
BRANCH  11  16
ATOM     12  C   UNL     1       1.383   3.897  18.897  0.00  0.00    +0.000 C 
ATOM     13  C   UNL     1       2.575   4.198  18.070  0.00  0.00    +0.000 A 
ATOM     14  N   UNL     1       3.260   3.191  17.442  0.00  0.00    +0.000 NA
ATOM     15  C   UNL     1       4.242   3.779  16.799  0.00  0.00    +0.000 A 
ATOM     16  N   UNL     1       4.222   5.134  16.968  0.00  0.00    +0.000 N 
ATOM     17  C   UNL     1       3.161   5.424  17.807  0.00  0.00    +0.000 A 
ATOM     18  C   UNL     1       2.783   6.778  18.284  0.00  0.00    +0.000 C 
ENDBRANCH  11  16
ENDBRANCH   5  11
ENDBRANCH   1   9
BRANCH   2  19
ATOM     19  C   UNL     1       9.671  11.519  18.242  0.00  0.00    +0.000 A 
ATOM     20  C   UNL     1       9.171  12.834  18.441  0.00  0.00    +0.000 A 
ATOM     21  C   UNL     1      10.064  13.670  17.822  0.00  0.00    +0.000 A 
ATOM     22  N   UNL     1      11.015  12.853  17.282  0.00  0.00    +0.000 N 
ATOM     23  N   UNL     1      10.817  11.536  17.530  0.00  0.00    +0.000 NA
ATOM     24  H   UNL     1      11.828  13.136  16.744  0.00  0.00    +0.000 HD
BRANCH  21  25
ATOM     25  C   UNL     1      10.100  15.090  17.705  0.00  0.00    +0.000 A 
ATOM     26  C   UNL     1       9.178  16.024  18.151  0.00  0.00    +0.000 A 
ATOM     27  C   UNL     1       9.673  17.301  17.799  0.00  0.00    +0.000 A 
ATOM     28  C   UNL     1      10.867  17.082  17.158  0.00  0.00    +0.000 A 
ATOM     29  O   UNL     1      11.133  15.752  17.095  0.00  0.00    +0.000 OA
ENDBRANCH  21  25
ENDBRANCH   2  19
TORSDOF 5
ENDMDL
MODEL 9
REMARK VINA RESULT:      -7.8      4.866      8.310
REMARK  Name = 
REMARK  7 active torsions:
REMARK  status: ('A' for Active; 'I' for Inactive)
REMARK    1  A    between atoms: C_1  and  C_2
REMARK    2  A    between atoms: N_5  and  C_6
REMARK    3  A    between atoms: C_6  and  C_7
REMARK    4  A    between atoms: C_11  and  N_12
REMARK    5  A    between atoms: C_13  and  C_15
REMARK    6  A    between atoms: C_17  and  C_18
REMARK    7  A    between atoms: C_26  and  C_27
REMARK                            x       y       z     vdW  Elec       q    Type
REMARK                         _______ _______ _______ _____ _____    ______ ____
ROOT
ATOM      1  N   UNL     1       1.605   6.384  20.877  0.00  0.00    +0.000 N 
ATOM      2  C   UNL     1       1.681   7.639  20.293  0.00  0.00    +0.000 C 
ATOM      3  O   UNL     1       2.167   7.900  19.197  0.00  0.00    +0.000 OA
ATOM      4  H   UNL     1       1.074   6.362  21.745  0.00  0.00    +0.000 HD
ENDROOT
BRANCH   1   9
ATOM      5  C   UNL     1       3.541   4.015  18.765  0.00  0.00    +0.000 A 
ATOM      6  C   UNL     1       3.057   2.783  19.229  0.00  0.00    +0.000 A 
ATOM      7  C   UNL     1       2.041   2.743  20.176  0.00  0.00    +0.000 A 
ATOM      8  C   UNL     1       1.526   3.928  20.699  0.00  0.00    +0.000 A 
ATOM      9  C   UNL     1       2.028   5.170  20.299  0.00  0.00    +0.000 A 
ATOM     10  C   UNL     1       3.011   5.206  19.300  0.00  0.00    +0.000 A 
BRANCH   5  11
ATOM     11  C   UNL     1       4.635   4.037  17.726  0.00  0.00    +0.000 C 
BRANCH  11  16
ATOM     12  C   UNL     1       7.716   8.004  17.499  0.00  0.00    +0.000 C 
ATOM     13  C   UNL     1       7.034   6.737  17.848  0.00  0.00    +0.000 A 
ATOM     14  N   UNL     1       7.461   5.985  18.912  0.00  0.00    +0.000 NA
ATOM     15  C   UNL     1       6.660   4.946  18.955  0.00  0.00    +0.000 A 
ATOM     16  N   UNL     1       5.714   4.991  17.971  0.00  0.00    +0.000 N 
ATOM     17  C   UNL     1       5.953   6.134  17.229  0.00  0.00    +0.000 A 
ATOM     18  C   UNL     1       5.181   6.565  16.037  0.00  0.00    +0.000 C 
ENDBRANCH  11  16
ENDBRANCH   5  11
ENDBRANCH   1   9
BRANCH   2  19
ATOM     19  C   UNL     1       1.061   8.705  21.096  0.00  0.00    +0.000 A 
ATOM     20  C   UNL     1       0.013   9.560  20.658  0.00  0.00    +0.000 A 
ATOM     21  C   UNL     1      -0.276  10.372  21.725  0.00  0.00    +0.000 A 
ATOM     22  N   UNL     1       0.589   9.998  22.713  0.00  0.00    +0.000 N 
ATOM     23  N   UNL     1       1.409   8.975  22.371  0.00  0.00    +0.000 NA
ATOM     24  H   UNL     1       0.660  10.396  23.643  0.00  0.00    +0.000 HD
BRANCH  21  25
ATOM     25  C   UNL     1      -1.243  11.406  21.886  0.00  0.00    +0.000 A 
ATOM     26  C   UNL     1      -1.915  11.798  23.034  0.00  0.00    +0.000 A 
ATOM     27  C   UNL     1      -2.761  12.873  22.676  0.00  0.00    +0.000 A 
ATOM     28  C   UNL     1      -2.563  13.081  21.334  0.00  0.00    +0.000 A 
ATOM     29  O   UNL     1      -1.651  12.201  20.848  0.00  0.00    +0.000 OA
ENDBRANCH  21  25
ENDBRANCH   2  19
TORSDOF 5
ENDMDL
