MODEL 1
REMARK VINA RESULT:      -8.7      0.000      0.000
REMARK  Name = 
REMARK  7 active torsions:
REMARK  status: ('A' for Active; 'I' for Inactive)
REMARK    1  A    between atoms: C_1  and  C_2
REMARK    2  A    between atoms: C_6  and  N_7
REMARK    3  A    between atoms: C_8  and  C_10
REMARK    4  A    between atoms: N_12  and  C_13
REMARK    5  A    between atoms: C_13  and  C_14
REMARK    6  A    between atoms: C_14  and  C_15
REMARK    7  A    between atoms: C_22  and  C_23
REMARK                            x       y       z     vdW  Elec       q    Type
REMARK                         _______ _______ _______ _____ _____    ______ ____
ROOT
ATOM      1  C   UNL     1       7.642   6.604  18.235  0.00  0.00    +0.000 C 
ATOM      2  O   UNL     1       8.005   6.019  19.253  0.00  0.00    +0.000 OA
ATOM      3  N   UNL     1       6.949   6.065  17.173  0.00  0.00    +0.000 N 
ATOM      4  H   UNL     1       6.687   6.721  16.442  0.00  0.00    +0.000 HD
ENDROOT
BRANCH   1   6
ATOM      5  N   UNL     1       8.823   8.638  18.964  0.00  0.00    +0.000 N 
ATOM      6  C   UNL     1       7.937   8.109  18.049  0.00  0.00    +0.000 C 
ATOM      7  O   UNL     1       7.397   8.669  17.108  0.00  0.00    +0.000 OA
ATOM      8  H   UNL     1       9.174   7.979  19.662  0.00  0.00    +0.000 HD
BRANCH   5  14
ATOM      9  C   UNL     1       9.646  12.647  21.772  0.00  0.00    +0.000 C 
ATOM     10  C   UNL     1       9.659  11.963  20.437  0.00  0.00    +0.000 A 
ATOM     11  C   UNL     1      10.095  12.661  19.305  0.00  0.00    +0.000 A 
ATOM     12  C   UNL     1      10.114  12.036  18.064  0.00  0.00    +0.000 A 
ATOM     13  C   UNL     1       9.699  10.709  17.941  0.00  0.00    +0.000 A 
ATOM     14  C   UNL     1       9.257   9.986  19.051  0.00  0.00    +0.000 A 
ATOM     15  C   UNL     1       9.244  10.624  20.301  0.00  0.00    +0.000 A 
ENDBRANCH   5  14
ENDBRANCH   1   6
BRANCH   3  16
ATOM     16  C   UNL     1       6.543   4.678  17.059  0.00  0.00    +0.000 C 
BRANCH  16  17
ATOM     17  C   UNL     1       5.139   4.468  16.481  0.00  0.00    +0.000 C 
BRANCH  17  18
ATOM     18  C   UNL     1       4.086   3.962  17.435  0.00  0.00    +0.000 A 
ATOM     19  C   UNL     1       3.779   2.651  17.745  0.00  0.00    +0.000 A 
ATOM     20  N   UNL     1       2.670   2.655  18.540  0.00  0.00    +0.000 N 
ATOM     21  C   UNL     1       2.528   3.894  19.102  0.00  0.00    +0.000 A 
ATOM     22  C   UNL     1       1.784   4.298  20.216  0.00  0.00    +0.000 A 
ATOM     23  C   UNL     1       1.788   5.654  20.534  0.00  0.00    +0.000 A 
ATOM     24  C   UNL     1       2.401   6.574  19.686  0.00  0.00    +0.000 A 
ATOM     25  C   UNL     1       3.111   6.174  18.532  0.00  0.00    +0.000 A 
ATOM     26  C   UNL     1       3.650   7.228  17.608  0.00  0.00    +0.000 C 
ATOM     27  C   UNL     1       3.267   4.781  18.309  0.00  0.00    +0.000 A 
ATOM     28  H   UNL     1       2.102   1.852  18.760  0.00  0.00    +0.000 HD
ENDBRANCH  17  18
ENDBRANCH  16  17
ENDBRANCH   3  16
TORSDOF 5
ENDMDL
MODEL 2
REMARK VINA RESULT:      -8.5      0.766      1.670
REMARK  Name = 
REMARK  7 active torsions:
REMARK  status: ('A' for Active; 'I' for Inactive)
REMARK    1  A    between atoms: C_1  and  C_2
REMARK    2  A    between atoms: C_6  and  N_7
REMARK    3  A    between atoms: C_8  and  C_10
REMARK    4  A    between atoms: N_12  and  C_13
REMARK    5  A    between atoms: C_13  and  C_14
REMARK    6  A    between atoms: C_14  and  C_15
REMARK    7  A    between atoms: C_22  and  C_23
REMARK                            x       y       z     vdW  Elec       q    Type
REMARK                         _______ _______ _______ _____ _____    ______ ____
ROOT
ATOM      1  C   UNL     1       7.641   6.831  18.238  0.00  0.00    +0.000 C 
ATOM      2  O   UNL     1       8.239   6.099  19.022  0.00  0.00    +0.000 OA
ATOM      3  N   UNL     1       6.606   6.475  17.399  0.00  0.00    +0.000 N 
ATOM      4  H   UNL     1       6.198   7.234  16.860  0.00  0.00    +0.000 HD
ENDROOT
BRANCH   1   6
ATOM      5  N   UNL     1       8.868   8.782  19.101  0.00  0.00    +0.000 N 
ATOM      6  C   UNL     1       8.009   8.327  18.123  0.00  0.00    +0.000 C 
ATOM      7  O   UNL     1       7.543   8.944  17.179  0.00  0.00    +0.000 OA
ATOM      8  H   UNL     1       9.155   8.084  19.790  0.00  0.00    +0.000 HD
BRANCH   5  14
ATOM      9  C   UNL     1      10.903  12.819  17.051  0.00  0.00    +0.000 C 
ATOM     10  C   UNL     1      10.362  12.094  18.249  0.00  0.00    +0.000 A 
ATOM     11  C   UNL     1      10.347  12.730  19.495  0.00  0.00    +0.000 A 
ATOM     12  C   UNL     1       9.844  12.068  20.609  0.00  0.00    +0.000 A 
ATOM     13  C   UNL     1       9.352  10.768  20.490  0.00  0.00    +0.000 A 
ATOM     14  C   UNL     1       9.355  10.106  19.261  0.00  0.00    +0.000 A 
ATOM     15  C   UNL     1       9.861  10.782  18.139  0.00  0.00    +0.000 A 
ENDBRANCH   5  14
ENDBRANCH   1   6
BRANCH   3  16
ATOM     16  C   UNL     1       6.052   5.141  17.277  0.00  0.00    +0.000 C 
BRANCH  16  17
ATOM     17  C   UNL     1       4.572   5.097  16.881  0.00  0.00    +0.000 C 
BRANCH  17  18
ATOM     18  C   UNL     1       3.742   3.997  17.494  0.00  0.00    +0.000 A 
ATOM     19  C   UNL     1       3.803   2.642  17.235  0.00  0.00    +0.000 A 
ATOM     20  N   UNL     1       2.778   2.038  17.904  0.00  0.00    +0.000 N 
ATOM     21  C   UNL     1       2.352   2.866  18.907  0.00  0.00    +0.000 A 
ATOM     22  C   UNL     1       1.593   2.581  20.048  0.00  0.00    +0.000 A 
ATOM     23  C   UNL     1       1.263   3.647  20.882  0.00  0.00    +0.000 A 
ATOM     24  C   UNL     1       1.568   4.954  20.508  0.00  0.00    +0.000 A 
ATOM     25  C   UNL     1       2.291   5.249  19.331  0.00  0.00    +0.000 A 
ATOM     26  C   UNL     1       2.485   6.685  18.937  0.00  0.00    +0.000 C 
ATOM     27  C   UNL     1       2.790   4.154  18.577  0.00  0.00    +0.000 A 
ATOM     28  H   UNL     1       2.451   1.097  17.753  0.00  0.00    +0.000 HD
ENDBRANCH  17  18
ENDBRANCH  16  17
ENDBRANCH   3  16
TORSDOF 5
ENDMDL
MODEL 3
REMARK VINA RESULT:      -8.4      1.143      1.342
REMARK  Name = 
REMARK  7 active torsions:
REMARK  status: ('A' for Active; 'I' for Inactive)
REMARK    1  A    between atoms: C_1  and  C_2
REMARK    2  A    between atoms: C_6  and  N_7
REMARK    3  A    between atoms: C_8  and  C_10
REMARK    4  A    between atoms: N_12  and  C_13
REMARK    5  A    between atoms: C_13  and  C_14
REMARK    6  A    between atoms: C_14  and  C_15
REMARK    7  A    between atoms: C_22  and  C_23
REMARK                            x       y       z     vdW  Elec       q    Type
REMARK                         _______ _______ _______ _____ _____    ______ ____
ROOT
ATOM      1  C   UNL     1       7.898   7.752  18.067  0.00  0.00    +0.000 C 
ATOM      2  O   UNL     1       8.336   6.878  18.810  0.00  0.00    +0.000 OA
ATOM      3  N   UNL     1       6.992   7.587  17.041  0.00  0.00    +0.000 N 
ATOM      4  H   UNL     1       6.704   8.441  16.569  0.00  0.00    +0.000 HD
ENDROOT
BRANCH   1   6
ATOM      5  N   UNL     1       9.206   9.442  19.289  0.00  0.00    +0.000 N 
ATOM      6  C   UNL     1       8.341   9.222  18.237  0.00  0.00    +0.000 C 
ATOM      7  O   UNL     1       7.920  10.028  17.423  0.00  0.00    +0.000 OA
ATOM      8  H   UNL     1       9.447   8.614  19.836  0.00  0.00    +0.000 HD
BRANCH   5  14
ATOM      9  C   UNL     1       9.093  13.296  22.414  0.00  0.00    +0.000 C 
ATOM     10  C   UNL     1       9.695  12.588  21.236  0.00  0.00    +0.000 A 
ATOM     11  C   UNL     1      10.779  13.161  20.563  0.00  0.00    +0.000 A 
ATOM     12  C   UNL     1      11.345  12.510  19.472  0.00  0.00    +0.000 A 
ATOM     13  C   UNL     1      10.836  11.283  19.045  0.00  0.00    +0.000 A 
ATOM     14  C   UNL     1       9.754  10.686  19.696  0.00  0.00    +0.000 A 
ATOM     15  C   UNL     1       9.190  11.348  20.799  0.00  0.00    +0.000 A 
ENDBRANCH   5  14
ENDBRANCH   1   6
BRANCH   3  16
ATOM     16  C   UNL     1       6.409   6.323  16.637  0.00  0.00    +0.000 C 
BRANCH  16  17
ATOM     17  C   UNL     1       4.893   6.224  16.841  0.00  0.00    +0.000 C 
BRANCH  17  18
ATOM     18  C   UNL     1       4.385   4.977  17.520  0.00  0.00    +0.000 A 
ATOM     19  C   UNL     1       4.822   3.678  17.350  0.00  0.00    +0.000 A 
ATOM     20  N   UNL     1       3.988   2.857  18.052  0.00  0.00    +0.000 N 
ATOM     21  C   UNL     1       3.329   3.593  18.998  0.00  0.00    +0.000 A 
ATOM     22  C   UNL     1       2.653   3.180  20.151  0.00  0.00    +0.000 A 
ATOM     23  C   UNL     1       2.024   4.162  20.913  0.00  0.00    +0.000 A 
ATOM     24  C   UNL     1       1.966   5.477  20.457  0.00  0.00    +0.000 A 
ATOM     25  C   UNL     1       2.605   5.888  19.267  0.00  0.00    +0.000 A 
ATOM     26  C   UNL     1       2.405   7.296  18.783  0.00  0.00    +0.000 C 
ATOM     27  C   UNL     1       3.402   4.930  18.587  0.00  0.00    +0.000 A 
ATOM     28  H   UNL     1       3.936   1.854  17.960  0.00  0.00    +0.000 HD
ENDBRANCH  17  18
ENDBRANCH  16  17
ENDBRANCH   3  16
TORSDOF 5
ENDMDL
MODEL 4
REMARK VINA RESULT:      -8.4      4.936      6.680
REMARK  Name = 
REMARK  7 active torsions:
REMARK  status: ('A' for Active; 'I' for Inactive)
REMARK    1  A    between atoms: C_1  and  C_2
REMARK    2  A    between atoms: C_6  and  N_7
REMARK    3  A    between atoms: C_8  and  C_10
REMARK    4  A    between atoms: N_12  and  C_13
REMARK    5  A    between atoms: C_13  and  C_14
REMARK    6  A    between atoms: C_14  and  C_15
REMARK    7  A    between atoms: C_22  and  C_23
REMARK                            x       y       z     vdW  Elec       q    Type
REMARK                         _______ _______ _______ _____ _____    ______ ____
ROOT
ATOM      1  C   UNL     1       2.561   7.947  18.270  0.00  0.00    +0.000 C 
ATOM      2  O   UNL     1       2.339   8.707  17.331  0.00  0.00    +0.000 OA
ATOM      3  N   UNL     1       3.460   6.902  18.294  0.00  0.00    +0.000 N 
ATOM      4  H   UNL     1       3.545   6.418  19.183  0.00  0.00    +0.000 HD
ENDROOT
BRANCH   1   6
ATOM      5  N   UNL     1       1.190   9.337  19.770  0.00  0.00    +0.000 N 
ATOM      6  C   UNL     1       1.813   8.117  19.611  0.00  0.00    +0.000 C 
ATOM      7  O   UNL     1       1.813   7.163  20.372  0.00  0.00    +0.000 OA
ATOM      8  H   UNL     1       1.302   9.988  18.991  0.00  0.00    +0.000 HD
BRANCH   5  14
ATOM      9  C   UNL     1      -2.066  12.539  21.713  0.00  0.00    +0.000 C 
ATOM     10  C   UNL     1      -1.148  11.361  21.858  0.00  0.00    +0.000 A 
ATOM     11  C   UNL     1      -1.031  10.722  23.098  0.00  0.00    +0.000 A 
ATOM     12  C   UNL     1      -0.185   9.628  23.241  0.00  0.00    +0.000 A 
ATOM     13  C   UNL     1       0.550   9.162  22.150  0.00  0.00    +0.000 A 
ATOM     14  C   UNL     1       0.455   9.779  20.900  0.00  0.00    +0.000 A 
ATOM     15  C   UNL     1      -0.403  10.881  20.763  0.00  0.00    +0.000 A 
ENDBRANCH   5  14
ENDBRANCH   1   6
BRANCH   3  16
ATOM     16  C   UNL     1       4.295   6.495  17.181  0.00  0.00    +0.000 C 
BRANCH  16  17
ATOM     17  C   UNL     1       4.364   4.980  16.956  0.00  0.00    +0.000 C 
BRANCH  17  18
ATOM     18  C   UNL     1       4.349   4.113  18.190  0.00  0.00    +0.000 A 
ATOM     19  C   UNL     1       5.428   3.656  18.921  0.00  0.00    +0.000 A 
ATOM     20  N   UNL     1       4.960   2.790  19.867  0.00  0.00    +0.000 N 
ATOM     21  C   UNL     1       3.624   3.015  20.056  0.00  0.00    +0.000 A 
ATOM     22  C   UNL     1       2.790   2.647  21.117  0.00  0.00    +0.000 A 
ATOM     23  C   UNL     1       1.440   2.974  21.016  0.00  0.00    +0.000 A 
ATOM     24  C   UNL     1       0.934   3.522  19.839  0.00  0.00    +0.000 A 
ATOM     25  C   UNL     1       1.766   3.849  18.746  0.00  0.00    +0.000 A 
ATOM     26  C   UNL     1       1.136   4.333  17.471  0.00  0.00    +0.000 C 
ATOM     27  C   UNL     1       3.166   3.691  18.917  0.00  0.00    +0.000 A 
ATOM     28  H   UNL     1       5.522   2.156  20.412  0.00  0.00    +0.000 HD
ENDBRANCH  17  18
ENDBRANCH  16  17
ENDBRANCH   3  16
TORSDOF 5
ENDMDL
MODEL 5
REMARK VINA RESULT:      -8.3      1.243      1.873
REMARK  Name = 
REMARK  7 active torsions:
REMARK  status: ('A' for Active; 'I' for Inactive)
REMARK    1  A    between atoms: C_1  and  C_2
REMARK    2  A    between atoms: C_6  and  N_7
REMARK    3  A    between atoms: C_8  and  C_10
REMARK    4  A    between atoms: N_12  and  C_13
REMARK    5  A    between atoms: C_13  and  C_14
REMARK    6  A    between atoms: C_14  and  C_15
REMARK    7  A    between atoms: C_22  and  C_23
REMARK                            x       y       z     vdW  Elec       q    Type
REMARK                         _______ _______ _______ _____ _____    ______ ____
ROOT
ATOM      1  C   UNL     1       7.164   5.935  16.882  0.00  0.00    +0.000 C 
ATOM      2  O   UNL     1       7.407   6.014  15.680  0.00  0.00    +0.000 OA
ATOM      3  N   UNL     1       6.412   4.966  17.512  0.00  0.00    +0.000 N 
ATOM      4  H   UNL     1       6.368   5.036  18.525  0.00  0.00    +0.000 HD
ENDROOT
BRANCH   1   6
ATOM      5  N   UNL     1       7.833   8.256  17.358  0.00  0.00    +0.000 N 
ATOM      6  C   UNL     1       7.734   6.978  17.868  0.00  0.00    +0.000 C 
ATOM      7  O   UNL     1       8.006   6.590  18.993  0.00  0.00    +0.000 OA
ATOM      8  H   UNL     1       7.528   8.363  16.389  0.00  0.00    +0.000 HD
BRANCH   5  14
ATOM      9  C   UNL     1       8.328  13.193  17.495  0.00  0.00    +0.000 C 
ATOM     10  C   UNL     1       8.586  11.838  18.086  0.00  0.00    +0.000 A 
ATOM     11  C   UNL     1       9.318  11.727  19.273  0.00  0.00    +0.000 A 
ATOM     12  C   UNL     1       9.559  10.476  19.830  0.00  0.00    +0.000 A 
ATOM     13  C   UNL     1       9.072   9.326  19.208  0.00  0.00    +0.000 A 
ATOM     14  C   UNL     1       8.340   9.403  18.022  0.00  0.00    +0.000 A 
ATOM     15  C   UNL     1       8.098  10.670  17.468  0.00  0.00    +0.000 A 
ENDBRANCH   5  14
ENDBRANCH   1   6
BRANCH   3  16
ATOM     16  C   UNL     1       5.741   3.867  16.847  0.00  0.00    +0.000 C 
BRANCH  16  17
ATOM     17  C   UNL     1       4.300   4.166  16.415  0.00  0.00    +0.000 C 
BRANCH  17  18
ATOM     18  C   UNL     1       3.214   3.804  17.397  0.00  0.00    +0.000 A 
ATOM     19  C   UNL     1       2.650   2.563  17.622  0.00  0.00    +0.000 A 
ATOM     20  N   UNL     1       1.609   2.724  18.490  0.00  0.00    +0.000 N 
ATOM     21  C   UNL     1       1.765   3.909  19.158  0.00  0.00    +0.000 A 
ATOM     22  C   UNL     1       1.183   4.353  20.350  0.00  0.00    +0.000 A 
ATOM     23  C   UNL     1       1.493   5.643  20.773  0.00  0.00    +0.000 A 
ATOM     24  C   UNL     1       2.245   6.489  19.961  0.00  0.00    +0.000 A 
ATOM     25  C   UNL     1       2.792   6.059  18.733  0.00  0.00    +0.000 A 
ATOM     26  C   UNL     1       3.497   7.059  17.860  0.00  0.00    +0.000 C 
ATOM     27  C   UNL     1       2.635   4.691  18.388  0.00  0.00    +0.000 A 
ATOM     28  H   UNL     1       0.895   2.040  18.685  0.00  0.00    +0.000 HD
ENDBRANCH  17  18
ENDBRANCH  16  17
ENDBRANCH   3  16
TORSDOF 5
ENDMDL
MODEL 6
REMARK VINA RESULT:      -8.3      1.266      2.632
REMARK  Name = 
REMARK  7 active torsions:
REMARK  status: ('A' for Active; 'I' for Inactive)
REMARK    1  A    between atoms: C_1  and  C_2
REMARK    2  A    between atoms: C_6  and  N_7
REMARK    3  A    between atoms: C_8  and  C_10
REMARK    4  A    between atoms: N_12  and  C_13
REMARK    5  A    between atoms: C_13  and  C_14
REMARK    6  A    between atoms: C_14  and  C_15
REMARK    7  A    between atoms: C_22  and  C_23
REMARK                            x       y       z     vdW  Elec       q    Type
REMARK                         _______ _______ _______ _____ _____    ______ ____
ROOT
ATOM      1  C   UNL     1       7.012   6.870  17.356  0.00  0.00    +0.000 C 
ATOM      2  O   UNL     1       6.429   7.407  16.418  0.00  0.00    +0.000 OA
ATOM      3  N   UNL     1       6.890   5.559  17.765  0.00  0.00    +0.000 N 
ATOM      4  H   UNL     1       7.497   5.280  18.531  0.00  0.00    +0.000 HD
ENDROOT
BRANCH   1   6
ATOM      5  N   UNL     1       8.064   9.018  17.939  0.00  0.00    +0.000 N 
ATOM      6  C   UNL     1       8.020   7.667  18.214  0.00  0.00    +0.000 C 
ATOM      7  O   UNL     1       8.644   7.047  19.060  0.00  0.00    +0.000 OA
ATOM      8  H   UNL     1       7.436   9.333  17.199  0.00  0.00    +0.000 HD
BRANCH   5  14
ATOM      9  C   UNL     1      11.460  12.600  17.418  0.00  0.00    +0.000 C 
ATOM     10  C   UNL     1      10.583  11.749  18.289  0.00  0.00    +0.000 A 
ATOM     11  C   UNL     1      10.610  11.921  19.677  0.00  0.00    +0.000 A 
ATOM     12  C   UNL     1       9.798  11.139  20.492  0.00  0.00    +0.000 A 
ATOM     13  C   UNL     1       8.954  10.181  19.929  0.00  0.00    +0.000 A 
ATOM     14  C   UNL     1       8.906   9.985  18.547  0.00  0.00    +0.000 A 
ATOM     15  C   UNL     1       9.726  10.781  17.731  0.00  0.00    +0.000 A 
ENDBRANCH   5  14
ENDBRANCH   1   6
BRANCH   3  16
ATOM     16  C   UNL     1       6.012   4.575  17.163  0.00  0.00    +0.000 C 
BRANCH  16  17
ATOM     17  C   UNL     1       4.573   5.054  16.940  0.00  0.00    +0.000 C 
BRANCH  17  18
ATOM     18  C   UNL     1       3.743   5.290  18.177  0.00  0.00    +0.000 A 
ATOM     19  C   UNL     1       3.508   6.486  18.828  0.00  0.00    +0.000 A 
ATOM     20  N   UNL     1       2.825   6.212  19.978  0.00  0.00    +0.000 N 
ATOM     21  C   UNL     1       2.238   4.981  19.866  0.00  0.00    +0.000 A 
ATOM     22  C   UNL     1       1.188   4.414  20.596  0.00  0.00    +0.000 A 
ATOM     23  C   UNL     1       0.827   3.105  20.290  0.00  0.00    +0.000 A 
ATOM     24  C   UNL     1       1.580   2.360  19.385  0.00  0.00    +0.000 A 
ATOM     25  C   UNL     1       2.672   2.914  18.682  0.00  0.00    +0.000 A 
ATOM     26  C   UNL     1       3.504   2.020  17.808  0.00  0.00    +0.000 C 
ATOM     27  C   UNL     1       2.926   4.300  18.853  0.00  0.00    +0.000 A 
ATOM     28  H   UNL     1       2.687   6.851  20.745  0.00  0.00    +0.000 HD
ENDBRANCH  17  18
ENDBRANCH  16  17
ENDBRANCH   3  16
TORSDOF 5
ENDMDL
MODEL 7
REMARK VINA RESULT:      -8.2      0.992      1.548
REMARK  Name = 
REMARK  7 active torsions:
REMARK  status: ('A' for Active; 'I' for Inactive)
REMARK    1  A    between atoms: C_1  and  C_2
REMARK    2  A    between atoms: C_6  and  N_7
REMARK    3  A    between atoms: C_8  and  C_10
REMARK    4  A    between atoms: N_12  and  C_13
REMARK    5  A    between atoms: C_13  and  C_14
REMARK    6  A    between atoms: C_14  and  C_15
REMARK    7  A    between atoms: C_22  and  C_23
REMARK                            x       y       z     vdW  Elec       q    Type
REMARK                         _______ _______ _______ _____ _____    ______ ____
ROOT
ATOM      1  C   UNL     1       7.583   6.331  18.459  0.00  0.00    +0.000 C 
ATOM      2  O   UNL     1       8.095   5.844  19.464  0.00  0.00    +0.000 OA
ATOM      3  N   UNL     1       6.671   5.728  17.619  0.00  0.00    +0.000 N 
ATOM      4  H   UNL     1       6.317   6.311  16.865  0.00  0.00    +0.000 HD
ENDROOT
BRANCH   1   6
ATOM      5  N   UNL     1       8.589   8.517  18.978  0.00  0.00    +0.000 N 
ATOM      6  C   UNL     1       7.927   7.774  18.024  0.00  0.00    +0.000 C 
ATOM      7  O   UNL     1       7.618   8.101  16.890  0.00  0.00    +0.000 OA
ATOM      8  H   UNL     1       8.768   8.035  19.860  0.00  0.00    +0.000 HD
BRANCH   5  14
ATOM      9  C   UNL     1       7.827  13.039  17.078  0.00  0.00    +0.000 C 
ATOM     10  C   UNL     1       8.631  12.098  17.927  0.00  0.00    +0.000 A 
ATOM     11  C   UNL     1       9.770  12.565  18.591  0.00  0.00    +0.000 A 
ATOM     12  C   UNL     1      10.519  11.701  19.383  0.00  0.00    +0.000 A 
ATOM     13  C   UNL     1      10.137  10.366  19.519  0.00  0.00    +0.000 A 
ATOM     14  C   UNL     1       9.005   9.869  18.868  0.00  0.00    +0.000 A 
ATOM     15  C   UNL     1       8.253  10.749  18.073  0.00  0.00    +0.000 A 
ENDBRANCH   5  14
ENDBRANCH   1   6
BRANCH   3  16
ATOM     16  C   UNL     1       6.170   4.376  17.764  0.00  0.00    +0.000 C 
BRANCH  16  17
ATOM     17  C   UNL     1       4.928   4.061  16.922  0.00  0.00    +0.000 C 
BRANCH  17  18
ATOM     18  C   UNL     1       3.803   3.342  17.623  0.00  0.00    +0.000 A 
ATOM     19  C   UNL     1       3.524   1.989  17.616  0.00  0.00    +0.000 A 
ATOM     20  N   UNL     1       2.337   1.801  18.263  0.00  0.00    +0.000 N 
ATOM     21  C   UNL     1       2.080   2.890  19.051  0.00  0.00    +0.000 A 
ATOM     22  C   UNL     1       1.204   3.032  20.132  0.00  0.00    +0.000 A 
ATOM     23  C   UNL     1       1.113   4.290  20.723  0.00  0.00    +0.000 A 
ATOM     24  C   UNL     1       1.772   5.381  20.161  0.00  0.00    +0.000 A 
ATOM     25  C   UNL     1       2.618   5.250  19.038  0.00  0.00    +0.000 A 
ATOM     26  C   UNL     1       3.205   6.487  18.422  0.00  0.00    +0.000 C 
ATOM     27  C   UNL     1       2.859   3.940  18.549  0.00  0.00    +0.000 A 
ATOM     28  H   UNL     1       1.785   0.957  18.245  0.00  0.00    +0.000 HD
ENDBRANCH  17  18
ENDBRANCH  16  17
ENDBRANCH   3  16
TORSDOF 5
ENDMDL
MODEL 8
REMARK VINA RESULT:      -8.2      0.849      1.769
REMARK  Name = 
REMARK  7 active torsions:
REMARK  status: ('A' for Active; 'I' for Inactive)
REMARK    1  A    between atoms: C_1  and  C_2
REMARK    2  A    between atoms: C_6  and  N_7
REMARK    3  A    between atoms: C_8  and  C_10
REMARK    4  A    between atoms: N_12  and  C_13
REMARK    5  A    between atoms: C_13  and  C_14
REMARK    6  A    between atoms: C_14  and  C_15
REMARK    7  A    between atoms: C_22  and  C_23
REMARK                            x       y       z     vdW  Elec       q    Type
REMARK                         _______ _______ _______ _____ _____    ______ ____
ROOT
ATOM      1  C   UNL     1       7.873   6.602  18.384  0.00  0.00    +0.000 C 
ATOM      2  O   UNL     1       7.918   6.079  19.495  0.00  0.00    +0.000 OA
ATOM      3  N   UNL     1       7.617   5.972  17.184  0.00  0.00    +0.000 N 
ATOM      4  H   UNL     1       7.566   6.582  16.372  0.00  0.00    +0.000 HD
ENDROOT
BRANCH   1   6
ATOM      5  N   UNL     1       8.928   8.682  19.169  0.00  0.00    +0.000 N 
ATOM      6  C   UNL     1       8.098   8.121  18.221  0.00  0.00    +0.000 C 
ATOM      7  O   UNL     1       7.561   8.664  17.270  0.00  0.00    +0.000 OA
ATOM      8  H   UNL     1       9.290   8.035  19.871  0.00  0.00    +0.000 HD
BRANCH   5  14
ATOM      9  C   UNL     1      10.709  12.780  17.008  0.00  0.00    +0.000 C 
ATOM     10  C   UNL     1      10.175  12.068  18.215  0.00  0.00    +0.000 A 
ATOM     11  C   UNL     1      10.046  12.758  19.426  0.00  0.00    +0.000 A 
ATOM     12  C   UNL     1       9.548  12.108  20.549  0.00  0.00    +0.000 A 
ATOM     13  C   UNL     1       9.174  10.766  20.475  0.00  0.00    +0.000 A 
ATOM     14  C   UNL     1       9.292  10.049  19.282  0.00  0.00    +0.000 A 
ATOM     15  C   UNL     1       9.793  10.714  18.151  0.00  0.00    +0.000 A 
ENDBRANCH   5  14
ENDBRANCH   1   6
BRANCH   3  16
ATOM     16  C   UNL     1       7.379   4.552  17.021  0.00  0.00    +0.000 C 
BRANCH  16  17
ATOM     17  C   UNL     1       5.991   4.196  16.474  0.00  0.00    +0.000 C 
BRANCH  17  18
ATOM     18  C   UNL     1       4.842   4.276  17.447  0.00  0.00    +0.000 A 
ATOM     19  C   UNL     1       4.421   3.316  18.346  0.00  0.00    +0.000 A 
ATOM     20  N   UNL     1       3.263   3.755  18.920  0.00  0.00    +0.000 N 
ATOM     21  C   UNL     1       3.173   5.112  18.761  0.00  0.00    +0.000 A 
ATOM     22  C   UNL     1       2.386   6.047  19.441  0.00  0.00    +0.000 A 
ATOM     23  C   UNL     1       2.466   7.375  19.028  0.00  0.00    +0.000 A 
ATOM     24  C   UNL     1       3.201   7.716  17.894  0.00  0.00    +0.000 A 
ATOM     25  C   UNL     1       3.957   6.765  17.176  0.00  0.00    +0.000 A 
ATOM     26  C   UNL     1       4.633   7.185  15.902  0.00  0.00    +0.000 C 
ATOM     27  C   UNL     1       4.027   5.449  17.703  0.00  0.00    +0.000 A 
ATOM     28  H   UNL     1       2.625   3.193  19.460  0.00  0.00    +0.000 HD
ENDBRANCH  17  18
ENDBRANCH  16  17
ENDBRANCH   3  16
TORSDOF 5
ENDMDL
MODEL 9
REMARK VINA RESULT:      -8.1      4.695      6.886
REMARK  Name = 
REMARK  7 active torsions:
REMARK  status: ('A' for Active; 'I' for Inactive)
REMARK    1  A    between atoms: C_1  and  C_2
REMARK    2  A    between atoms: C_6  and  N_7
REMARK    3  A    between atoms: C_8  and  C_10
REMARK    4  A    between atoms: N_12  and  C_13
REMARK    5  A    between atoms: C_13  and  C_14
REMARK    6  A    between atoms: C_14  and  C_15
REMARK    7  A    between atoms: C_22  and  C_23
REMARK                            x       y       z     vdW  Elec       q    Type
REMARK                         _______ _______ _______ _____ _____    ______ ____
ROOT
ATOM      1  C   UNL     1       2.811   7.733  18.502  0.00  0.00    +0.000 C 
ATOM      2  O   UNL     1       2.718   7.030  19.505  0.00  0.00    +0.000 OA
ATOM      3  N   UNL     1       3.712   7.586  17.469  0.00  0.00    +0.000 N 
ATOM      4  H   UNL     1       3.599   8.235  16.694  0.00  0.00    +0.000 HD
ENDROOT
BRANCH   1   6
ATOM      5  N   UNL     1       0.926   9.104  19.294  0.00  0.00    +0.000 N 
ATOM      6  C   UNL     1       1.847   8.921  18.285  0.00  0.00    +0.000 C 
ATOM      7  O   UNL     1       2.010   9.592  17.279  0.00  0.00    +0.000 OA
ATOM      8  H   UNL     1       0.981   8.433  20.062  0.00  0.00    +0.000 HD
BRANCH   5  14
ATOM      9  C   UNL     1      -3.095  11.165  17.240  0.00  0.00    +0.000 C 
ATOM     10  C   UNL     1      -2.072  11.110  18.336  0.00  0.00    +0.000 A 
ATOM     11  C   UNL     1      -2.135  12.028  19.390  0.00  0.00    +0.000 A 
ATOM     12  C   UNL     1      -1.194  11.982  20.412  0.00  0.00    +0.000 A 
ATOM     13  C   UNL     1      -0.182  11.021  20.391  0.00  0.00    +0.000 A 
ATOM     14  C   UNL     1      -0.091  10.092  19.353  0.00  0.00    +0.000 A 
ATOM     15  C   UNL     1      -1.048  10.143  18.326  0.00  0.00    +0.000 A 
ENDBRANCH   5  14
ENDBRANCH   1   6
BRANCH   3  16
ATOM     16  C   UNL     1       4.744   6.571  17.400  0.00  0.00    +0.000 C 
BRANCH  16  17
ATOM     17  C   UNL     1       4.227   5.152  17.135  0.00  0.00    +0.000 C 
BRANCH  17  18
ATOM     18  C   UNL     1       4.252   4.197  18.303  0.00  0.00    +0.000 A 
ATOM     19  C   UNL     1       5.352   3.726  18.993  0.00  0.00    +0.000 A 
ATOM     20  N   UNL     1       4.922   2.777  19.874  0.00  0.00    +0.000 N 
ATOM     21  C   UNL     1       3.580   2.941  20.087  0.00  0.00    +0.000 A 
ATOM     22  C   UNL     1       2.768   2.467  21.122  0.00  0.00    +0.000 A 
ATOM     23  C   UNL     1       1.407   2.752  21.053  0.00  0.00    +0.000 A 
ATOM     24  C   UNL     1       0.873   3.368  19.923  0.00  0.00    +0.000 A 
ATOM     25  C   UNL     1       1.685   3.803  18.852  0.00  0.00    +0.000 A 
ATOM     26  C   UNL     1       1.028   4.356  17.620  0.00  0.00    +0.000 C 
ATOM     27  C   UNL     1       3.091   3.682  19.003  0.00  0.00    +0.000 A 
ATOM     28  H   UNL     1       5.510   2.125  20.368  0.00  0.00    +0.000 HD
ENDBRANCH  17  18
ENDBRANCH  16  17
ENDBRANCH   3  16
TORSDOF 5
ENDMDL
