MODEL 1
REMARK VINA RESULT:      -8.8      0.000      0.000
REMARK  Name = 
REMARK  6 active torsions:
REMARK  status: ('A' for Active; 'I' for Inactive)
REMARK    1  A    between atoms: C_2  and  C_3
REMARK    2  A    between atoms: C_3  and  C_4
REMARK    3  A    between atoms: C_4  and  C_5
REMARK    4  A    between atoms: C_8  and  S_9
REMARK    5  A    between atoms: S_9  and  N_12
REMARK    6  A    between atoms: N_20  and  C_21
REMARK                            x       y       z     vdW  Elec       q    Type
REMARK                         _______ _______ _______ _____ _____    ______ ____
ROOT
ATOM      1  C   UNL     1       7.704   8.426  17.540  0.00  0.00    +0.000 C 
ENDROOT
BRANCH   1   2
ATOM      2  C   UNL     1       6.723   7.268  17.613  0.00  0.00    +0.000 A 
ATOM      3  C   UNL     1       7.065   6.085  18.286  0.00  0.00    +0.000 A 
ATOM      4  C   UNL     1       6.185   4.998  18.323  0.00  0.00    +0.000 A 
ATOM      5  C   UNL     1       4.931   5.096  17.715  0.00  0.00    +0.000 A 
ATOM      6  C   UNL     1       4.562   6.274  17.061  0.00  0.00    +0.000 A 
ATOM      7  C   UNL     1       5.450   7.358  17.026  0.00  0.00    +0.000 A 
BRANCH   5   8
ATOM      8  S   UNL     1       3.875   3.653  17.643  0.00  0.00    +0.000 S 
ATOM      9  O   UNL     1       2.914   3.885  16.578  0.00  0.00    +0.000 OA
ATOM     10  O   UNL     1       4.741   2.494  17.605  0.00  0.00    +0.000 OA
BRANCH   8  11
ATOM     11  N   UNL     1       3.026   3.636  19.129  0.00  0.00    +0.000 NA
ATOM     12  C   UNL     1       1.572   3.913  19.028  0.00  0.00    +0.000 C 
ATOM     13  C   UNL     1       0.934   4.075  20.404  0.00  0.00    +0.000 C 
ATOM     14  C   UNL     1       1.234   2.875  21.290  0.00  0.00    +0.000 C 
ATOM     15  C   UNL     1       2.741   2.715  21.425  0.00  0.00    +0.000 C 
ATOM     16  C   UNL     1       3.404   2.546  20.061  0.00  0.00    +0.000 C 
ENDBRANCH   8  11
ENDBRANCH   5   8
ENDBRANCH   1   2
BRANCH   1  17
ATOM     17  C   UNL     1       8.675   8.517  18.744  0.00  0.00    +0.000 C 
BRANCH  17  19
ATOM     18  O   UNL     1       9.154  10.404  20.123  0.00  0.00    +0.000 OA
ATOM     19  C   UNL     1       9.158   9.947  18.983  0.00  0.00    +0.000 C 
ATOM     20  N   UNL     1       9.553  10.642  17.829  0.00  0.00    +0.000 N 
ATOM     21  H   UNL     1       9.315  10.238  16.933  0.00  0.00    +0.000 HD
BRANCH  20  22
ATOM     22  C   UNL     1      10.147  11.956  17.820  0.00  0.00    +0.000 A 
ATOM     23  C   UNL     1      11.546  12.064  17.802  0.00  0.00    +0.000 A 
ATOM     24  C   UNL     1      12.184  13.294  17.859  0.00  0.00    +0.000 A 
ATOM     25  C   UNL     1      11.432  14.455  17.879  0.00  0.00    +0.000 A 
ATOM     26  C   UNL     1      10.055  14.424  17.826  0.00  0.00    +0.000 A 
ATOM     27  N   UNL     1       9.462  15.627  17.795  0.00  0.00    +0.000 NA
ATOM     28  C   UNL     1       8.123  15.683  17.755  0.00  0.00    +0.000 A 
ATOM     29  C   UNL     1       7.329  14.557  17.760  0.00  0.00    +0.000 A 
ATOM     30  C   UNL     1       7.951  13.299  17.785  0.00  0.00    +0.000 A 
ATOM     31  C   UNL     1       9.367  13.174  17.802  0.00  0.00    +0.000 A 
ENDBRANCH  20  22
ENDBRANCH  17  19
ENDBRANCH   1  17
TORSDOF 6
ENDMDL
MODEL 2
REMARK VINA RESULT:      -8.5      1.845      1.965
REMARK  Name = 
REMARK  6 active torsions:
REMARK  status: ('A' for Active; 'I' for Inactive)
REMARK    1  A    between atoms: C_2  and  C_3
REMARK    2  A    between atoms: C_3  and  C_4
REMARK    3  A    between atoms: C_4  and  C_5
REMARK    4  A    between atoms: C_8  and  S_9
REMARK    5  A    between atoms: S_9  and  N_12
REMARK    6  A    between atoms: N_20  and  C_21
REMARK                            x       y       z     vdW  Elec       q    Type
REMARK                         _______ _______ _______ _____ _____    ______ ____
ROOT
ATOM      1  C   UNL     1       7.808   7.852  17.253  0.00  0.00    +0.000 C 
ENDROOT
BRANCH   1   2
ATOM      2  C   UNL     1       6.763   6.758  17.403  0.00  0.00    +0.000 A 
ATOM      3  C   UNL     1       7.149   5.415  17.525  0.00  0.00    +0.000 A 
ATOM      4  C   UNL     1       6.194   4.398  17.622  0.00  0.00    +0.000 A 
ATOM      5  C   UNL     1       4.834   4.718  17.635  0.00  0.00    +0.000 A 
ATOM      6  C   UNL     1       4.429   6.051  17.539  0.00  0.00    +0.000 A 
ATOM      7  C   UNL     1       5.393   7.065  17.439  0.00  0.00    +0.000 A 
BRANCH   5   8
ATOM      8  S   UNL     1       3.622   3.401  17.611  0.00  0.00    +0.000 S 
ATOM      9  O   UNL     1       2.656   3.734  16.576  0.00  0.00    +0.000 OA
ATOM     10  O   UNL     1       4.351   2.152  17.554  0.00  0.00    +0.000 OA
BRANCH   8  11
ATOM     11  N   UNL     1       2.827   3.487  19.124  0.00  0.00    +0.000 NA
ATOM     12  C   UNL     1       1.349   3.595  19.056  0.00  0.00    +0.000 C 
ATOM     13  C   UNL     1       0.742   3.866  20.429  0.00  0.00    +0.000 C 
ATOM     14  C   UNL     1       1.200   2.827  21.443  0.00  0.00    +0.000 C 
ATOM     15  C   UNL     1       2.719   2.844  21.528  0.00  0.00    +0.000 C 
ATOM     16  C   UNL     1       3.353   2.571  20.167  0.00  0.00    +0.000 C 
ENDBRANCH   8  11
ENDBRANCH   5   8
ENDBRANCH   1   2
BRANCH   1  17
ATOM     17  C   UNL     1       8.329   8.424  18.595  0.00  0.00    +0.000 C 
BRANCH  17  19
ATOM     18  O   UNL     1       8.244  10.621  17.667  0.00  0.00    +0.000 OA
ATOM     19  C   UNL     1       8.812   9.867  18.453  0.00  0.00    +0.000 C 
ATOM     20  N   UNL     1       9.921  10.204  19.245  0.00  0.00    +0.000 N 
ATOM     21  H   UNL     1      10.428   9.449  19.689  0.00  0.00    +0.000 HD
BRANCH  20  22
ATOM     22  C   UNL     1      10.479  11.528  19.363  0.00  0.00    +0.000 A 
ATOM     23  C   UNL     1      11.422  11.950  18.415  0.00  0.00    +0.000 A 
ATOM     24  C   UNL     1      12.048  13.185  18.506  0.00  0.00    +0.000 A 
ATOM     25  C   UNL     1      11.700  14.055  19.524  0.00  0.00    +0.000 A 
ATOM     26  C   UNL     1      10.730  13.733  20.448  0.00  0.00    +0.000 A 
ATOM     27  N   UNL     1      10.458  14.695  21.342  0.00  0.00    +0.000 NA
ATOM     28  C   UNL     1       9.534  14.456  22.283  0.00  0.00    +0.000 A 
ATOM     29  C   UNL     1       8.862  13.257  22.381  0.00  0.00    +0.000 A 
ATOM     30  C   UNL     1       9.142  12.254  21.441  0.00  0.00    +0.000 A 
ATOM     31  C   UNL     1      10.093  12.457  20.404  0.00  0.00    +0.000 A 
ENDBRANCH  20  22
ENDBRANCH  17  19
ENDBRANCH   1  17
TORSDOF 6
ENDMDL
MODEL 3
REMARK VINA RESULT:      -8.5      6.154      8.167
REMARK  Name = 
REMARK  6 active torsions:
REMARK  status: ('A' for Active; 'I' for Inactive)
REMARK    1  A    between atoms: C_2  and  C_3
REMARK    2  A    between atoms: C_3  and  C_4
REMARK    3  A    between atoms: C_4  and  C_5
REMARK    4  A    between atoms: C_8  and  S_9
REMARK    5  A    between atoms: S_9  and  N_12
REMARK    6  A    between atoms: N_20  and  C_21
REMARK                            x       y       z     vdW  Elec       q    Type
REMARK                         _______ _______ _______ _____ _____    ______ ____
ROOT
ATOM      1  C   UNL     1       3.229   2.827  20.294  0.00  0.00    +0.000 C 
ENDROOT
BRANCH   1   2
ATOM      2  C   UNL     1       3.979   3.488  19.150  0.00  0.00    +0.000 A 
ATOM      3  C   UNL     1       5.220   4.103  19.371  0.00  0.00    +0.000 A 
ATOM      4  C   UNL     1       5.899   4.750  18.333  0.00  0.00    +0.000 A 
ATOM      5  C   UNL     1       5.357   4.757  17.045  0.00  0.00    +0.000 A 
ATOM      6  C   UNL     1       4.134   4.129  16.798  0.00  0.00    +0.000 A 
ATOM      7  C   UNL     1       3.459   3.486  17.845  0.00  0.00    +0.000 A 
BRANCH   5   8
ATOM      8  S   UNL     1       6.160   5.710  15.760  0.00  0.00    +0.000 S 
ATOM      9  O   UNL     1       5.241   6.773  15.386  0.00  0.00    +0.000 OA
ATOM     10  O   UNL     1       7.489   6.029  16.235  0.00  0.00    +0.000 OA
BRANCH   8  11
ATOM     11  N   UNL     1       6.309   4.646  14.430  0.00  0.00    +0.000 NA
ATOM     12  C   UNL     1       5.028   4.220  13.814  0.00  0.00    +0.000 C 
ATOM     13  C   UNL     1       5.240   3.126  12.773  0.00  0.00    +0.000 C 
ATOM     14  C   UNL     1       6.267   3.553  11.734  0.00  0.00    +0.000 C 
ATOM     15  C   UNL     1       7.580   3.878  12.430  0.00  0.00    +0.000 C 
ATOM     16  C   UNL     1       7.396   4.975  13.475  0.00  0.00    +0.000 C 
ENDBRANCH   8  11
ENDBRANCH   5   8
ENDBRANCH   1   2
BRANCH   1  17
ATOM     17  C   UNL     1       2.553   3.820  21.273  0.00  0.00    +0.000 C 
BRANCH  17  19
ATOM     18  O   UNL     1       0.677   4.803  20.174  0.00  0.00    +0.000 OA
ATOM     19  C   UNL     1       1.841   4.954  20.537  0.00  0.00    +0.000 C 
ATOM     20  N   UNL     1       2.621   6.099  20.311  0.00  0.00    +0.000 N 
ATOM     21  H   UNL     1       3.618   6.027  20.467  0.00  0.00    +0.000 HD
BRANCH  20  22
ATOM     22  C   UNL     1       2.134   7.330  19.740  0.00  0.00    +0.000 A 
ATOM     23  C   UNL     1       2.381   7.590  18.384  0.00  0.00    +0.000 A 
ATOM     24  C   UNL     1       1.999   8.782  17.787  0.00  0.00    +0.000 A 
ATOM     25  C   UNL     1       1.306   9.726  18.524  0.00  0.00    +0.000 A 
ATOM     26  C   UNL     1       0.967   9.505  19.842  0.00  0.00    +0.000 A 
ATOM     27  N   UNL     1       0.248  10.483  20.413  0.00  0.00    +0.000 NA
ATOM     28  C   UNL     1      -0.112  10.350  21.697  0.00  0.00    +0.000 A 
ATOM     29  C   UNL     1       0.240   9.259  22.462  0.00  0.00    +0.000 A 
ATOM     30  C   UNL     1       0.986   8.234  21.861  0.00  0.00    +0.000 A 
ATOM     31  C   UNL     1       1.376   8.305  20.496  0.00  0.00    +0.000 A 
ENDBRANCH  20  22
ENDBRANCH  17  19
ENDBRANCH   1  17
TORSDOF 6
ENDMDL
MODEL 4
REMARK VINA RESULT:      -8.4      6.776      9.058
REMARK  Name = 
REMARK  6 active torsions:
REMARK  status: ('A' for Active; 'I' for Inactive)
REMARK    1  A    between atoms: C_2  and  C_3
REMARK    2  A    between atoms: C_3  and  C_4
REMARK    3  A    between atoms: C_4  and  C_5
REMARK    4  A    between atoms: C_8  and  S_9
REMARK    5  A    between atoms: S_9  and  N_12
REMARK    6  A    between atoms: N_20  and  C_21
REMARK                            x       y       z     vdW  Elec       q    Type
REMARK                         _______ _______ _______ _____ _____    ______ ____
ROOT
ATOM      1  C   UNL     1       1.095   8.960  20.373  0.00  0.00    +0.000 C 
ENDROOT
BRANCH   1   2
ATOM      2  C   UNL     1       1.795   7.714  19.857  0.00  0.00    +0.000 A 
ATOM      3  C   UNL     1       1.811   6.537  20.621  0.00  0.00    +0.000 A 
ATOM      4  C   UNL     1       2.488   5.398  20.173  0.00  0.00    +0.000 A 
ATOM      5  C   UNL     1       3.129   5.411  18.932  0.00  0.00    +0.000 A 
ATOM      6  C   UNL     1       3.103   6.564  18.145  0.00  0.00    +0.000 A 
ATOM      7  C   UNL     1       2.426   7.703  18.602  0.00  0.00    +0.000 A 
BRANCH   5   8
ATOM      8  S   UNL     1       4.112   3.999  18.437  0.00  0.00    +0.000 S 
ATOM      9  O   UNL     1       4.995   3.689  19.549  0.00  0.00    +0.000 OA
ATOM     10  O   UNL     1       3.195   2.999  17.932  0.00  0.00    +0.000 OA
BRANCH   8  11
ATOM     11  N   UNL     1       5.074   4.549  17.134  0.00  0.00    +0.000 NA
ATOM     12  C   UNL     1       6.429   5.025  17.506  0.00  0.00    +0.000 C 
ATOM     13  C   UNL     1       7.139   5.678  16.324  0.00  0.00    +0.000 C 
ATOM     14  C   UNL     1       7.163   4.748  15.120  0.00  0.00    +0.000 C 
ATOM     15  C   UNL     1       5.736   4.383  14.739  0.00  0.00    +0.000 C 
ATOM     16  C   UNL     1       5.003   3.723  15.903  0.00  0.00    +0.000 C 
ENDBRANCH   8  11
ENDBRANCH   5   8
ENDBRANCH   1   2
BRANCH   1  17
ATOM     17  C   UNL     1       0.175   8.716  21.595  0.00  0.00    +0.000 C 
BRANCH  17  19
ATOM     18  O   UNL     1       0.060   9.990  23.610  0.00  0.00    +0.000 OA
ATOM     19  C   UNL     1      -0.074   9.998  22.389  0.00  0.00    +0.000 C 
ATOM     20  N   UNL     1      -0.477  11.104  21.622  0.00  0.00    +0.000 N 
ATOM     21  H   UNL     1      -0.755  10.935  20.665  0.00  0.00    +0.000 HD
BRANCH  20  22
ATOM     22  C   UNL     1      -0.659  12.439  22.134  0.00  0.00    +0.000 A 
ATOM     23  C   UNL     1       0.278  13.427  21.793  0.00  0.00    +0.000 A 
ATOM     24  C   UNL     1       0.200  14.714  22.303  0.00  0.00    +0.000 A 
ATOM     25  C   UNL     1      -0.856  15.062  23.127  0.00  0.00    +0.000 A 
ATOM     26  C   UNL     1      -1.850  14.162  23.444  0.00  0.00    +0.000 A 
ATOM     27  N   UNL     1      -2.838  14.655  24.205  0.00  0.00    +0.000 NA
ATOM     28  C   UNL     1      -3.838  13.840  24.568  0.00  0.00    +0.000 A 
ATOM     29  C   UNL     1      -3.886  12.512  24.206  0.00  0.00    +0.000 A 
ATOM     30  C   UNL     1      -2.856  11.998  23.404  0.00  0.00    +0.000 A 
ATOM     31  C   UNL     1      -1.781  12.819  22.966  0.00  0.00    +0.000 A 
ENDBRANCH  20  22
ENDBRANCH  17  19
ENDBRANCH   1  17
TORSDOF 6
ENDMDL
MODEL 5
REMARK VINA RESULT:      -8.4      1.336      1.852
REMARK  Name = 
REMARK  6 active torsions:
REMARK  status: ('A' for Active; 'I' for Inactive)
REMARK    1  A    between atoms: C_2  and  C_3
REMARK    2  A    between atoms: C_3  and  C_4
REMARK    3  A    between atoms: C_4  and  C_5
REMARK    4  A    between atoms: C_8  and  S_9
REMARK    5  A    between atoms: S_9  and  N_12
REMARK    6  A    between atoms: N_20  and  C_21
REMARK                            x       y       z     vdW  Elec       q    Type
REMARK                         _______ _______ _______ _____ _____    ______ ____
ROOT
ATOM      1  C   UNL     1       8.286   9.394  17.851  0.00  0.00    +0.000 C 
ENDROOT
BRANCH   1   2
ATOM      2  C   UNL     1       7.558   8.060  17.843  0.00  0.00    +0.000 A 
ATOM      3  C   UNL     1       6.397   7.885  17.076  0.00  0.00    +0.000 A 
ATOM      4  C   UNL     1       5.697   6.674  17.093  0.00  0.00    +0.000 A 
ATOM      5  C   UNL     1       6.175   5.604  17.855  0.00  0.00    +0.000 A 
ATOM      6  C   UNL     1       7.344   5.750  18.606  0.00  0.00    +0.000 A 
ATOM      7  C   UNL     1       8.037   6.968  18.586  0.00  0.00    +0.000 A 
BRANCH   5   8
ATOM      8  S   UNL     1       5.196   4.112  17.985  0.00  0.00    +0.000 S 
ATOM      9  O   UNL     1       5.018   3.605  16.634  0.00  0.00    +0.000 OA
ATOM     10  O   UNL     1       5.814   3.284  18.999  0.00  0.00    +0.000 OA
BRANCH   8  11
ATOM     11  N   UNL     1       3.669   4.619  18.567  0.00  0.00    +0.000 NA
ATOM     12  C   UNL     1       2.618   3.572  18.579  0.00  0.00    +0.000 C 
ATOM     13  C   UNL     1       1.249   4.153  18.919  0.00  0.00    +0.000 C 
ATOM     14  C   UNL     1       1.298   4.938  20.221  0.00  0.00    +0.000 C 
ATOM     15  C   UNL     1       2.327   6.053  20.098  0.00  0.00    +0.000 C 
ATOM     16  C   UNL     1       3.708   5.498  19.762  0.00  0.00    +0.000 C 
ENDBRANCH   8  11
ENDBRANCH   5   8
ENDBRANCH   1   2
BRANCH   1  17
ATOM     17  C   UNL     1       9.089   9.675  19.146  0.00  0.00    +0.000 C 
BRANCH  17  19
ATOM     18  O   UNL     1      10.295  11.473  20.149  0.00  0.00    +0.000 OA
ATOM     19  C   UNL     1       9.664  11.090  19.167  0.00  0.00    +0.000 C 
ATOM     20  N   UNL     1       9.383  11.863  18.028  0.00  0.00    +0.000 N 
ATOM     21  H   UNL     1       8.683  11.516  17.386  0.00  0.00    +0.000 HD
BRANCH  20  22
ATOM     22  C   UNL     1       9.912  13.180  17.775  0.00  0.00    +0.000 A 
ATOM     23  C   UNL     1      11.212  13.299  17.261  0.00  0.00    +0.000 A 
ATOM     24  C   UNL     1      11.807  14.535  17.056  0.00  0.00    +0.000 A 
ATOM     25  C   UNL     1      11.089  15.690  17.309  0.00  0.00    +0.000 A 
ATOM     26  C   UNL     1       9.783  15.647  17.747  0.00  0.00    +0.000 A 
ATOM     27  N   UNL     1       9.196  16.844  17.896  0.00  0.00    +0.000 NA
ATOM     28  C   UNL     1       7.929  16.889  18.330  0.00  0.00    +0.000 A 
ATOM     29  C   UNL     1       7.208  15.758  18.645  0.00  0.00    +0.000 A 
ATOM     30  C   UNL     1       7.821  14.506  18.483  0.00  0.00    +0.000 A 
ATOM     31  C   UNL     1       9.154  14.392  18.002  0.00  0.00    +0.000 A 
ENDBRANCH  20  22
ENDBRANCH  17  19
ENDBRANCH   1  17
TORSDOF 6
ENDMDL
MODEL 6
REMARK VINA RESULT:      -8.3      6.471      9.440
REMARK  Name = 
REMARK  6 active torsions:
REMARK  status: ('A' for Active; 'I' for Inactive)
REMARK    1  A    between atoms: C_2  and  C_3
REMARK    2  A    between atoms: C_3  and  C_4
REMARK    3  A    between atoms: C_4  and  C_5
REMARK    4  A    between atoms: C_8  and  S_9
REMARK    5  A    between atoms: S_9  and  N_12
REMARK    6  A    between atoms: N_20  and  C_21
REMARK                            x       y       z     vdW  Elec       q    Type
REMARK                         _______ _______ _______ _____ _____    ______ ____
ROOT
ATOM      1  C   UNL     1       1.107   9.590  20.245  0.00  0.00    +0.000 C 
ENDROOT
BRANCH   1   2
ATOM      2  C   UNL     1       1.614   8.225  19.813  0.00  0.00    +0.000 A 
ATOM      3  C   UNL     1       2.098   8.022  18.512  0.00  0.00    +0.000 A 
ATOM      4  C   UNL     1       2.529   6.759  18.093  0.00  0.00    +0.000 A 
ATOM      5  C   UNL     1       2.514   5.685  18.987  0.00  0.00    +0.000 A 
ATOM      6  C   UNL     1       2.059   5.872  20.294  0.00  0.00    +0.000 A 
ATOM      7  C   UNL     1       1.626   7.140  20.706  0.00  0.00    +0.000 A 
BRANCH   5   8
ATOM      8  S   UNL     1       2.927   4.046  18.398  0.00  0.00    +0.000 S 
ATOM      9  O   UNL     1       2.882   3.160  19.550  0.00  0.00    +0.000 OA
ATOM     10  O   UNL     1       2.094   3.786  17.244  0.00  0.00    +0.000 OA
BRANCH   8  11
ATOM     11  N   UNL     1       4.552   4.149  17.871  0.00  0.00    +0.000 NA
ATOM     12  C   UNL     1       4.732   4.300  16.407  0.00  0.00    +0.000 C 
ATOM     13  C   UNL     1       6.200   4.183  16.006  0.00  0.00    +0.000 C 
ATOM     14  C   UNL     1       7.061   5.156  16.798  0.00  0.00    +0.000 C 
ATOM     15  C   UNL     1       6.898   4.875  18.285  0.00  0.00    +0.000 C 
ATOM     16  C   UNL     1       5.438   4.990  18.714  0.00  0.00    +0.000 C 
ENDBRANCH   8  11
ENDBRANCH   5   8
ENDBRANCH   1   2
BRANCH   1  17
ATOM     17  C   UNL     1       1.406  10.730  19.238  0.00  0.00    +0.000 C 
BRANCH  17  19
ATOM     18  O   UNL     1       0.064  12.512  18.392  0.00  0.00    +0.000 OA
ATOM     19  C   UNL     1       0.128  11.309  18.633  0.00  0.00    +0.000 C 
ATOM     20  N   UNL     1      -0.905  10.381  18.425  0.00  0.00    +0.000 N 
ATOM     21  H   UNL     1      -0.812   9.470  18.854  0.00  0.00    +0.000 HD
BRANCH  20  22
ATOM     22  C   UNL     1      -2.154  10.672  17.766  0.00  0.00    +0.000 A 
ATOM     23  C   UNL     1      -2.368  10.171  16.473  0.00  0.00    +0.000 A 
ATOM     24  C   UNL     1      -3.517  10.467  15.756  0.00  0.00    +0.000 A 
ATOM     25  C   UNL     1      -4.512  11.230  16.341  0.00  0.00    +0.000 A 
ATOM     26  C   UNL     1      -4.399  11.694  17.633  0.00  0.00    +0.000 A 
ATOM     27  N   UNL     1      -5.464  12.372  18.087  0.00  0.00    +0.000 NA
ATOM     28  C   UNL     1      -5.428  12.867  19.332  0.00  0.00    +0.000 A 
ATOM     29  C   UNL     1      -4.337  12.724  20.161  0.00  0.00    +0.000 A 
ATOM     30  C   UNL     1      -3.227  12.009  19.688  0.00  0.00    +0.000 A 
ATOM     31  C   UNL     1      -3.214  11.438  18.386  0.00  0.00    +0.000 A 
ENDBRANCH  20  22
ENDBRANCH  17  19
ENDBRANCH   1  17
TORSDOF 6
ENDMDL
MODEL 7
REMARK VINA RESULT:      -8.2      7.607     10.694
REMARK  Name = 
REMARK  6 active torsions:
REMARK  status: ('A' for Active; 'I' for Inactive)
REMARK    1  A    between atoms: C_2  and  C_3
REMARK    2  A    between atoms: C_3  and  C_4
REMARK    3  A    between atoms: C_4  and  C_5
REMARK    4  A    between atoms: C_8  and  S_9
REMARK    5  A    between atoms: S_9  and  N_12
REMARK    6  A    between atoms: N_20  and  C_21
REMARK                            x       y       z     vdW  Elec       q    Type
REMARK                         _______ _______ _______ _____ _____    ______ ____
ROOT
ATOM      1  C   UNL     1       0.077  10.810  19.885  0.00  0.00    +0.000 C 
ENDROOT
BRANCH   1   2
ATOM      2  C   UNL     1       0.900   9.589  19.509  0.00  0.00    +0.000 A 
ATOM      3  C   UNL     1       1.214   8.617  20.470  0.00  0.00    +0.000 A 
ATOM      4  C   UNL     1       2.005   7.510  20.144  0.00  0.00    +0.000 A 
ATOM      5  C   UNL     1       2.465   7.345  18.835  0.00  0.00    +0.000 A 
ATOM      6  C   UNL     1       2.143   8.288  17.857  0.00  0.00    +0.000 A 
ATOM      7  C   UNL     1       1.351   9.396  18.193  0.00  0.00    +0.000 A 
BRANCH   5   8
ATOM      8  S   UNL     1       3.595   6.007  18.464  0.00  0.00    +0.000 S 
ATOM      9  O   UNL     1       4.066   6.217  17.105  0.00  0.00    +0.000 OA
ATOM     10  O   UNL     1       4.538   5.931  19.559  0.00  0.00    +0.000 OA
BRANCH   8  11
ATOM     11  N   UNL     1       2.641   4.587  18.481  0.00  0.00    +0.000 NA
ATOM     12  C   UNL     1       3.280   3.389  17.884  0.00  0.00    +0.000 C 
ATOM     13  C   UNL     1       2.296   2.230  17.759  0.00  0.00    +0.000 C 
ATOM     14  C   UNL     1       1.638   1.927  19.097  0.00  0.00    +0.000 C 
ATOM     15  C   UNL     1       0.921   3.173  19.597  0.00  0.00    +0.000 C 
ATOM     16  C   UNL     1       1.885   4.348  19.735  0.00  0.00    +0.000 C 
ENDBRANCH   8  11
ENDBRANCH   5   8
ENDBRANCH   1   2
BRANCH   1  17
ATOM     17  C   UNL     1      -0.590  11.524  18.683  0.00  0.00    +0.000 C 
BRANCH  17  19
ATOM     18  O   UNL     1      -2.423  10.063  18.236  0.00  0.00    +0.000 OA
ATOM     19  C   UNL     1      -2.078  11.193  18.574  0.00  0.00    +0.000 C 
ATOM     20  N   UNL     1      -2.947  12.260  18.854  0.00  0.00    +0.000 N 
ATOM     21  H   UNL     1      -2.549  13.187  18.913  0.00  0.00    +0.000 HD
BRANCH  20  22
ATOM     22  C   UNL     1      -4.383  12.156  18.925  0.00  0.00    +0.000 A 
ATOM     23  C   UNL     1      -5.092  11.790  17.771  0.00  0.00    +0.000 A 
ATOM     24  C   UNL     1      -6.478  11.736  17.751  0.00  0.00    +0.000 A 
ATOM     25  C   UNL     1      -7.190  11.994  18.909  0.00  0.00    +0.000 A 
ATOM     26  C   UNL     1      -6.555  12.289  20.096  0.00  0.00    +0.000 A 
ATOM     27  N   UNL     1      -7.370  12.461  21.147  0.00  0.00    +0.000 NA
ATOM     28  C   UNL     1      -6.830  12.762  22.336  0.00  0.00    +0.000 A 
ATOM     29  C   UNL     1      -5.475  12.921  22.522  0.00  0.00    +0.000 A 
ATOM     30  C   UNL     1      -4.622  12.734  21.423  0.00  0.00    +0.000 A 
ATOM     31  C   UNL     1      -5.132  12.388  20.142  0.00  0.00    +0.000 A 
ENDBRANCH  20  22
ENDBRANCH  17  19
ENDBRANCH   1  17
TORSDOF 6
ENDMDL
MODEL 8
REMARK VINA RESULT:      -8.2      6.545      8.844
REMARK  Name = 
REMARK  6 active torsions:
REMARK  status: ('A' for Active; 'I' for Inactive)
REMARK    1  A    between atoms: C_2  and  C_3
REMARK    2  A    between atoms: C_3  and  C_4
REMARK    3  A    between atoms: C_4  and  C_5
REMARK    4  A    between atoms: C_8  and  S_9
REMARK    5  A    between atoms: S_9  and  N_12
REMARK    6  A    between atoms: N_20  and  C_21
REMARK                            x       y       z     vdW  Elec       q    Type
REMARK                         _______ _______ _______ _____ _____    ______ ____
ROOT
ATOM      1  C   UNL     1       1.170   8.522  20.401  0.00  0.00    +0.000 C 
ENDROOT
BRANCH   1   2
ATOM      2  C   UNL     1       1.904   7.244  20.032  0.00  0.00    +0.000 A 
ATOM      3  C   UNL     1       2.685   7.179  18.868  0.00  0.00    +0.000 A 
ATOM      4  C   UNL     1       3.331   5.995  18.499  0.00  0.00    +0.000 A 
ATOM      5  C   UNL     1       3.234   4.865  19.316  0.00  0.00    +0.000 A 
ATOM      6  C   UNL     1       2.483   4.916  20.492  0.00  0.00    +0.000 A 
ATOM      7  C   UNL     1       1.836   6.106  20.853  0.00  0.00    +0.000 A 
BRANCH   5   8
ATOM      8  S   UNL     1       3.943   3.318  18.761  0.00  0.00    +0.000 S 
ATOM      9  O   UNL     1       4.566   2.700  19.920  0.00  0.00    +0.000 OA
ATOM     10  O   UNL     1       2.912   2.617  18.026  0.00  0.00    +0.000 OA
BRANCH   8  11
ATOM     11  N   UNL     1       5.181   3.753  17.662  0.00  0.00    +0.000 NA
ATOM     12  C   UNL     1       4.717   4.117  16.301  0.00  0.00    +0.000 C 
ATOM     13  C   UNL     1       5.887   4.295  15.338  0.00  0.00    +0.000 C 
ATOM     14  C   UNL     1       6.900   5.287  15.888  0.00  0.00    +0.000 C 
ATOM     15  C   UNL     1       7.402   4.796  17.239  0.00  0.00    +0.000 C 
ATOM     16  C   UNL     1       6.251   4.613  18.224  0.00  0.00    +0.000 C 
ENDBRANCH   8  11
ENDBRANCH   5   8
ENDBRANCH   1   2
BRANCH   1  17
ATOM     17  C   UNL     1       0.281   8.406  21.664  0.00  0.00    +0.000 C 
BRANCH  17  19
ATOM     18  O   UNL     1       0.422   9.836  23.569  0.00  0.00    +0.000 OA
ATOM     19  C   UNL     1       0.126   9.747  22.380  0.00  0.00    +0.000 C 
ATOM     20  N   UNL     1      -0.387  10.788  21.589  0.00  0.00    +0.000 N 
ATOM     21  H   UNL     1      -0.788  10.544  20.693  0.00  0.00    +0.000 HD
BRANCH  20  22
ATOM     22  C   UNL     1      -0.513  12.160  22.012  0.00  0.00    +0.000 A 
ATOM     23  C   UNL     1       0.451  13.089  21.592  0.00  0.00    +0.000 A 
ATOM     24  C   UNL     1       0.428  14.409  22.016  0.00  0.00    +0.000 A 
ATOM     25  C   UNL     1      -0.601  14.848  22.831  0.00  0.00    +0.000 A 
ATOM     26  C   UNL     1      -1.620  14.008  23.223  0.00  0.00    +0.000 A 
ATOM     27  N   UNL     1      -2.576  14.585  23.965  0.00  0.00    +0.000 NA
ATOM     28  C   UNL     1      -3.598  13.832  24.397  0.00  0.00    +0.000 A 
ATOM     29  C   UNL     1      -3.698  12.485  24.125  0.00  0.00    +0.000 A 
ATOM     30  C   UNL     1      -2.701  11.884  23.343  0.00  0.00    +0.000 A 
ATOM     31  C   UNL     1      -1.606  12.635  22.834  0.00  0.00    +0.000 A 
ENDBRANCH  20  22
ENDBRANCH  17  19
ENDBRANCH   1  17
TORSDOF 6
ENDMDL
MODEL 9
REMARK VINA RESULT:      -8.2      6.211      9.451
REMARK  Name = 
REMARK  6 active torsions:
REMARK  status: ('A' for Active; 'I' for Inactive)
REMARK    1  A    between atoms: C_2  and  C_3
REMARK    2  A    between atoms: C_3  and  C_4
REMARK    3  A    between atoms: C_4  and  C_5
REMARK    4  A    between atoms: C_8  and  S_9
REMARK    5  A    between atoms: S_9  and  N_12
REMARK    6  A    between atoms: N_20  and  C_21
REMARK                            x       y       z     vdW  Elec       q    Type
REMARK                         _______ _______ _______ _____ _____    ______ ____
ROOT
ATOM      1  C   UNL     1       0.752   8.497  20.868  0.00  0.00    +0.000 C 
ENDROOT
BRANCH   1   2
ATOM      2  C   UNL     1       1.562   7.407  20.188  0.00  0.00    +0.000 A 
ATOM      3  C   UNL     1       1.623   6.116  20.735  0.00  0.00    +0.000 A 
ATOM      4  C   UNL     1       2.399   5.117  20.138  0.00  0.00    +0.000 A 
ATOM      5  C   UNL     1       3.098   5.388  18.960  0.00  0.00    +0.000 A 
ATOM      6  C   UNL     1       3.031   6.659  18.385  0.00  0.00    +0.000 A 
ATOM      7  C   UNL     1       2.254   7.657  18.991  0.00  0.00    +0.000 A 
BRANCH   5   8
ATOM      8  S   UNL     1       4.201   4.148  18.288  0.00  0.00    +0.000 S 
ATOM      9  O   UNL     1       4.346   3.118  19.303  0.00  0.00    +0.000 OA
ATOM     10  O   UNL     1       3.707   3.810  16.970  0.00  0.00    +0.000 OA
BRANCH   8  11
ATOM     11  N   UNL     1       5.711   4.932  18.108  0.00  0.00    +0.000 NA
ATOM     12  C   UNL     1       5.782   5.921  17.004  0.00  0.00    +0.000 C 
ATOM     13  C   UNL     1       7.207   6.421  16.789  0.00  0.00    +0.000 C 
ATOM     14  C   UNL     1       7.798   6.957  18.084  0.00  0.00    +0.000 C 
ATOM     15  C   UNL     1       7.781   5.858  19.137  0.00  0.00    +0.000 C 
ATOM     16  C   UNL     1       6.365   5.342  19.375  0.00  0.00    +0.000 C 
ENDBRANCH   8  11
ENDBRANCH   5   8
ENDBRANCH   1   2
BRANCH   1  17
ATOM     17  C   UNL     1       1.022   9.924  20.328  0.00  0.00    +0.000 C 
BRANCH  17  19
ATOM     18  O   UNL     1       0.805  10.339  17.988  0.00  0.00    +0.000 OA
ATOM     19  C   UNL     1       0.219  10.217  19.061  0.00  0.00    +0.000 C 
ATOM     20  N   UNL     1      -1.165  10.353  19.252  0.00  0.00    +0.000 N 
ATOM     21  H   UNL     1      -1.502  10.441  20.202  0.00  0.00    +0.000 HD
BRANCH  20  22
ATOM     22  C   UNL     1      -2.131  10.518  18.195  0.00  0.00    +0.000 A 
ATOM     23  C   UNL     1      -1.912   9.866  16.972  0.00  0.00    +0.000 A 
ATOM     24  C   UNL     1      -2.765  10.034  15.891  0.00  0.00    +0.000 A 
ATOM     25  C   UNL     1      -3.897  10.818  16.028  0.00  0.00    +0.000 A 
ATOM     26  C   UNL     1      -4.211  11.430  17.222  0.00  0.00    +0.000 A 
ATOM     27  N   UNL     1      -5.366  12.112  17.222  0.00  0.00    +0.000 NA
ATOM     28  C   UNL     1      -5.738  12.746  18.343  0.00  0.00    +0.000 A 
ATOM     29  C   UNL     1      -4.976  12.740  19.491  0.00  0.00    +0.000 A 
ATOM     30  C   UNL     1      -3.772  12.021  19.492  0.00  0.00    +0.000 A 
ATOM     31  C   UNL     1      -3.336  11.307  18.342  0.00  0.00    +0.000 A 
ENDBRANCH  20  22
ENDBRANCH  17  19
ENDBRANCH   1  17
TORSDOF 6
ENDMDL
