MODEL 1
REMARK VINA RESULT:      -8.4      0.000      0.000
REMARK  Name = 
REMARK  4 active torsions:
REMARK  status: ('A' for Active; 'I' for Inactive)
REMARK    1  A    between atoms: C_1  and  N_2
REMARK    2  A    between atoms: C_8  and  C_9
REMARK    3  A    between atoms: C_9  and  N_10
REMARK    4  A    between atoms: C_11  and  C_13
REMARK                            x       y       z     vdW  Elec       q    Type
REMARK                         _______ _______ _______ _____ _____    ______ ____
ROOT
ATOM      1  N   UNL     1       1.539   9.024  18.401  0.00  0.00    +0.000 N 
ATOM      2  C   UNL     1       1.594  10.397  18.551  0.00  0.00    +0.000 C 
ATOM      3  O   UNL     1       2.475  11.088  18.053  0.00  0.00    +0.000 OA
ATOM      4  H   UNL     1       0.730   8.518  18.732  0.00  0.00    +0.000 HD
ENDROOT
BRANCH   2   5
ATOM      5  C   UNL     1       0.493  11.006  19.375  0.00  0.00    +0.000 A 
ATOM      6  C   UNL     1      -0.322  11.976  18.762  0.00  0.00    +0.000 A 
ATOM      7  C   UNL     1      -1.357  12.587  19.463  0.00  0.00    +0.000 A 
ATOM      8  C   UNL     1      -1.609  12.220  20.779  0.00  0.00    +0.000 A 
ATOM      9  C   UNL     1      -0.839  11.229  21.408  0.00  0.00    +0.000 A 
ATOM     10  C   UNL     1       0.237  10.621  20.716  0.00  0.00    +0.000 A 
ATOM     11  C   UNL     1       1.054   9.542  21.400  0.00  0.00    +0.000 C 
ATOM     12  C   UNL     1       0.899   9.506  22.922  0.00  0.00    +0.000 C 
ATOM     13  C   UNL     1      -0.569   9.572  23.310  0.00  0.00    +0.000 C 
ATOM     14  C   UNL     1      -1.165  10.895  22.847  0.00  0.00    +0.000 C 
ENDBRANCH   2   5
BRANCH   1  15
ATOM     15  C   UNL     1       2.505   8.279  17.625  0.00  0.00    +0.000 C 
BRANCH  15  23
ATOM     16  C   UNL     1       4.377   2.171  19.746  0.00  0.00    +0.000 C 
ATOM     17  N   UNL     1       3.494   3.257  20.080  0.00  0.00    +0.000 N 
ATOM     18  C   UNL     1       2.685   3.296  21.218  0.00  0.00    +0.000 C 
ATOM     19  O   UNL     1       2.582   2.440  22.084  0.00  0.00    +0.000 OA
ATOM     20  C   UNL     1       1.932   4.633  21.194  0.00  0.00    +0.000 C 
ATOM     21  C   UNL     1       2.438   5.270  19.936  0.00  0.00    +0.000 A 
ATOM     22  C   UNL     1       2.129   6.508  19.394  0.00  0.00    +0.000 A 
ATOM     23  C   UNL     1       2.759   6.901  18.199  0.00  0.00    +0.000 A 
ATOM     24  C   UNL     1       3.679   6.020  17.581  0.00  0.00    +0.000 A 
ATOM     25  C   UNL     1       3.984   4.771  18.140  0.00  0.00    +0.000 A 
ATOM     26  C   UNL     1       3.351   4.421  19.319  0.00  0.00    +0.000 A 
ENDBRANCH  15  23
ENDBRANCH   1  15
TORSDOF 3
ENDMDL
MODEL 2
REMARK VINA RESULT:      -8.4      1.451      1.938
REMARK  Name = 
REMARK  4 active torsions:
REMARK  status: ('A' for Active; 'I' for Inactive)
REMARK    1  A    between atoms: C_1  and  N_2
REMARK    2  A    between atoms: C_8  and  C_9
REMARK    3  A    between atoms: C_9  and  N_10
REMARK    4  A    between atoms: C_11  and  C_13
REMARK                            x       y       z     vdW  Elec       q    Type
REMARK                         _______ _______ _______ _____ _____    ______ ____
ROOT
ATOM      1  N   UNL     1       1.842   9.661  18.521  0.00  0.00    +0.000 N 
ATOM      2  C   UNL     1       0.521  10.023  18.341  0.00  0.00    +0.000 C 
ATOM      3  O   UNL     1      -0.215   9.480  17.526  0.00  0.00    +0.000 OA
ATOM      4  H   UNL     1       2.370  10.059  19.285  0.00  0.00    +0.000 HD
ENDROOT
BRANCH   2   5
ATOM      5  C   UNL     1       0.028  11.142  19.218  0.00  0.00    +0.000 A 
ATOM      6  C   UNL     1      -0.170  12.400  18.621  0.00  0.00    +0.000 A 
ATOM      7  C   UNL     1      -0.620  13.484  19.370  0.00  0.00    +0.000 A 
ATOM      8  C   UNL     1      -0.902  13.319  20.720  0.00  0.00    +0.000 A 
ATOM      9  C   UNL     1      -0.751  12.067  21.337  0.00  0.00    +0.000 A 
ATOM     10  C   UNL     1      -0.265  10.964  20.595  0.00  0.00    +0.000 A 
ATOM     11  C   UNL     1      -0.119   9.613  21.268  0.00  0.00    +0.000 C 
ATOM     12  C   UNL     1      -0.117   9.671  22.798  0.00  0.00    +0.000 C 
ATOM     13  C   UNL     1      -1.257  10.541  23.299  0.00  0.00    +0.000 C 
ATOM     14  C   UNL     1      -1.064  11.972  22.814  0.00  0.00    +0.000 C 
ENDBRANCH   2   5
BRANCH   1  15
ATOM     15  C   UNL     1       2.473   8.593  17.778  0.00  0.00    +0.000 C 
BRANCH  15  23
ATOM     16  C   UNL     1       1.575   3.090  21.548  0.00  0.00    +0.000 C 
ATOM     17  N   UNL     1       1.795   3.498  20.186  0.00  0.00    +0.000 N 
ATOM     18  C   UNL     1       1.823   2.626  19.095  0.00  0.00    +0.000 C 
ATOM     19  O   UNL     1       1.686   1.412  19.113  0.00  0.00    +0.000 OA
ATOM     20  C   UNL     1       2.058   3.477  17.840  0.00  0.00    +0.000 C 
ATOM     21  C   UNL     1       2.146   4.865  18.397  0.00  0.00    +0.000 A 
ATOM     22  C   UNL     1       2.331   6.067  17.733  0.00  0.00    +0.000 A 
ATOM     23  C   UNL     1       2.354   7.258  18.481  0.00  0.00    +0.000 A 
ATOM     24  C   UNL     1       2.198   7.194  19.887  0.00  0.00    +0.000 A 
ATOM     25  C   UNL     1       2.010   5.971  20.547  0.00  0.00    +0.000 A 
ATOM     26  C   UNL     1       1.985   4.822  19.779  0.00  0.00    +0.000 A 
ENDBRANCH  15  23
ENDBRANCH   1  15
TORSDOF 3
ENDMDL
MODEL 3
REMARK VINA RESULT:      -8.3      2.149      3.478
REMARK  Name = 
REMARK  4 active torsions:
REMARK  status: ('A' for Active; 'I' for Inactive)
REMARK    1  A    between atoms: C_1  and  N_2
REMARK    2  A    between atoms: C_8  and  C_9
REMARK    3  A    between atoms: C_9  and  N_10
REMARK    4  A    between atoms: C_11  and  C_13
REMARK                            x       y       z     vdW  Elec       q    Type
REMARK                         _______ _______ _______ _____ _____    ______ ____
ROOT
ATOM      1  N   UNL     1       0.254   9.514  20.825  0.00  0.00    +0.000 N 
ATOM      2  C   UNL     1       0.216  10.655  20.047  0.00  0.00    +0.000 C 
ATOM      3  O   UNL     1       1.221  11.192  19.599  0.00  0.00    +0.000 OA
ATOM      4  H   UNL     1      -0.607   9.047  21.069  0.00  0.00    +0.000 HD
ENDROOT
BRANCH   2   5
ATOM      5  C   UNL     1      -1.155  11.213  19.778  0.00  0.00    +0.000 A 
ATOM      6  C   UNL     1      -1.720  12.057  20.751  0.00  0.00    +0.000 A 
ATOM      7  C   UNL     1      -2.987  12.606  20.575  0.00  0.00    +0.000 A 
ATOM      8  C   UNL     1      -3.696  12.341  19.410  0.00  0.00    +0.000 A 
ATOM      9  C   UNL     1      -3.145  11.534  18.402  0.00  0.00    +0.000 A 
ATOM     10  C   UNL     1      -1.871  10.943  18.583  0.00  0.00    +0.000 A 
ATOM     11  C   UNL     1      -1.279  10.085  17.481  0.00  0.00    +0.000 C 
ATOM     12  C   UNL     1      -2.298   9.599  16.448  0.00  0.00    +0.000 C 
ATOM     13  C   UNL     1      -3.182  10.747  15.990  0.00  0.00    +0.000 C 
ATOM     14  C   UNL     1      -3.985  11.279  17.170  0.00  0.00    +0.000 C 
ENDBRANCH   2   5
BRANCH   1  15
ATOM     15  C   UNL     1       1.485   8.834  21.164  0.00  0.00    +0.000 C 
BRANCH  15  23
ATOM     16  C   UNL     1       2.957   3.656  17.123  0.00  0.00    +0.000 C 
ATOM     17  N   UNL     1       2.366   3.955  18.401  0.00  0.00    +0.000 N 
ATOM     18  C   UNL     1       1.915   2.992  19.307  0.00  0.00    +0.000 C 
ATOM     19  O   UNL     1       1.929   1.778  19.167  0.00  0.00    +0.000 OA
ATOM     20  C   UNL     1       1.387   3.740  20.539  0.00  0.00    +0.000 C 
ATOM     21  C   UNL     1       1.616   5.175  20.173  0.00  0.00    +0.000 A 
ATOM     22  C   UNL     1       1.354   6.320  20.908  0.00  0.00    +0.000 A 
ATOM     23  C   UNL     1       1.683   7.571  20.354  0.00  0.00    +0.000 A 
ATOM     24  C   UNL     1       2.261   7.624  19.062  0.00  0.00    +0.000 A 
ATOM     25  C   UNL     1       2.521   6.458  18.329  0.00  0.00    +0.000 A 
ATOM     26  C   UNL     1       2.192   5.246  18.908  0.00  0.00    +0.000 A 
ENDBRANCH  15  23
ENDBRANCH   1  15
TORSDOF 3
ENDMDL
MODEL 4
REMARK VINA RESULT:      -8.3      1.283      2.470
REMARK  Name = 
REMARK  4 active torsions:
REMARK  status: ('A' for Active; 'I' for Inactive)
REMARK    1  A    between atoms: C_1  and  N_2
REMARK    2  A    between atoms: C_8  and  C_9
REMARK    3  A    between atoms: C_9  and  N_10
REMARK    4  A    between atoms: C_11  and  C_13
REMARK                            x       y       z     vdW  Elec       q    Type
REMARK                         _______ _______ _______ _____ _____    ______ ____
ROOT
ATOM      1  N   UNL     1       1.801   8.952  18.394  0.00  0.00    +0.000 N 
ATOM      2  C   UNL     1       1.644  10.317  18.250  0.00  0.00    +0.000 C 
ATOM      3  O   UNL     1       2.354  10.999  17.521  0.00  0.00    +0.000 OA
ATOM      4  H   UNL     1       1.117   8.423  18.914  0.00  0.00    +0.000 HD
ENDROOT
BRANCH   2   5
ATOM      5  C   UNL     1       0.531  10.932  19.055  0.00  0.00    +0.000 A 
ATOM      6  C   UNL     1       0.872  11.562  20.266  0.00  0.00    +0.000 A 
ATOM      7  C   UNL     1      -0.104  12.148  21.067  0.00  0.00    +0.000 A 
ATOM      8  C   UNL     1      -1.431  12.136  20.656  0.00  0.00    +0.000 A 
ATOM      9  C   UNL     1      -1.799  11.549  19.435  0.00  0.00    +0.000 A 
ATOM     10  C   UNL     1      -0.821  10.922  18.626  0.00  0.00    +0.000 A 
ATOM     11  C   UNL     1      -1.227  10.304  17.301  0.00  0.00    +0.000 C 
ATOM     12  C   UNL     1      -2.730  10.051  17.162  0.00  0.00    +0.000 C 
ATOM     13  C   UNL     1      -3.519  11.278  17.589  0.00  0.00    +0.000 C 
ATOM     14  C   UNL     1      -3.266  11.563  19.064  0.00  0.00    +0.000 C 
ENDBRANCH   2   5
BRANCH   1  15
ATOM     15  C   UNL     1       2.807   8.197  17.680  0.00  0.00    +0.000 C 
BRANCH  15  23
ATOM     16  C   UNL     1       4.327   1.974  19.746  0.00  0.00    +0.000 C 
ATOM     17  N   UNL     1       3.512   3.108  20.093  0.00  0.00    +0.000 N 
ATOM     18  C   UNL     1       2.715   3.187  21.237  0.00  0.00    +0.000 C 
ATOM     19  O   UNL     1       2.567   2.332  22.098  0.00  0.00    +0.000 OA
ATOM     20  C   UNL     1       2.042   4.567  21.228  0.00  0.00    +0.000 C 
ATOM     21  C   UNL     1       2.577   5.182  19.970  0.00  0.00    +0.000 A 
ATOM     22  C   UNL     1       2.338   6.440  19.439  0.00  0.00    +0.000 A 
ATOM     23  C   UNL     1       2.982   6.803  18.242  0.00  0.00    +0.000 A 
ATOM     24  C   UNL     1       3.845   5.873  17.612  0.00  0.00    +0.000 A 
ATOM     25  C   UNL     1       4.078   4.604  18.160  0.00  0.00    +0.000 A 
ATOM     26  C   UNL     1       3.434   4.284  19.341  0.00  0.00    +0.000 A 
ENDBRANCH  15  23
ENDBRANCH   1  15
TORSDOF 3
ENDMDL
MODEL 5
REMARK VINA RESULT:      -8.2      3.009      8.067
REMARK  Name = 
REMARK  4 active torsions:
REMARK  status: ('A' for Active; 'I' for Inactive)
REMARK    1  A    between atoms: C_1  and  N_2
REMARK    2  A    between atoms: C_8  and  C_9
REMARK    3  A    between atoms: C_9  and  N_10
REMARK    4  A    between atoms: C_11  and  C_13
REMARK                            x       y       z     vdW  Elec       q    Type
REMARK                         _______ _______ _______ _____ _____    ______ ____
ROOT
ATOM      1  N   UNL     1       1.465   8.913  19.215  0.00  0.00    +0.000 N 
ATOM      2  C   UNL     1       1.785   7.776  19.930  0.00  0.00    +0.000 C 
ATOM      3  O   UNL     1       1.496   7.625  21.111  0.00  0.00    +0.000 OA
ATOM      4  H   UNL     1       1.622   8.937  18.218  0.00  0.00    +0.000 HD
ENDROOT
BRANCH   2   5
ATOM      5  C   UNL     1       2.525   6.712  19.164  0.00  0.00    +0.000 A 
ATOM      6  C   UNL     1       3.452   7.132  18.193  0.00  0.00    +0.000 A 
ATOM      7  C   UNL     1       4.170   6.206  17.442  0.00  0.00    +0.000 A 
ATOM      8  C   UNL     1       3.989   4.848  17.667  0.00  0.00    +0.000 A 
ATOM      9  C   UNL     1       3.099   4.396  18.655  0.00  0.00    +0.000 A 
ATOM     10  C   UNL     1       2.340   5.326  19.405  0.00  0.00    +0.000 A 
ATOM     11  C   UNL     1       1.392   4.828  20.479  0.00  0.00    +0.000 C 
ATOM     12  C   UNL     1       1.037   3.344  20.364  0.00  0.00    +0.000 C 
ATOM     13  C   UNL     1       2.291   2.512  20.149  0.00  0.00    +0.000 C 
ATOM     14  C   UNL     1       2.946   2.901  18.830  0.00  0.00    +0.000 C 
ENDBRANCH   2   5
BRANCH   1  15
ATOM     15  C   UNL     1       0.738  10.024  19.789  0.00  0.00    +0.000 C 
BRANCH  15  23
ATOM     16  C   UNL     1      -5.002  12.054  16.919  0.00  0.00    +0.000 C 
ATOM     17  N   UNL     1      -3.881  11.179  16.699  0.00  0.00    +0.000 N 
ATOM     18  C   UNL     1      -3.681  10.429  15.538  0.00  0.00    +0.000 C 
ATOM     19  O   UNL     1      -4.405  10.377  14.555  0.00  0.00    +0.000 OA
ATOM     20  C   UNL     1      -2.362   9.664  15.713  0.00  0.00    +0.000 C 
ATOM     21  C   UNL     1      -1.910  10.100  17.073  0.00  0.00    +0.000 A 
ATOM     22  C   UNL     1      -0.763   9.753  17.769  0.00  0.00    +0.000 A 
ATOM     23  C   UNL     1      -0.543  10.319  19.038  0.00  0.00    +0.000 A 
ATOM     24  C   UNL     1      -1.502  11.214  19.571  0.00  0.00    +0.000 A 
ATOM     25  C   UNL     1      -2.659  11.557  18.856  0.00  0.00    +0.000 A 
ATOM     26  C   UNL     1      -2.838  10.988  17.609  0.00  0.00    +0.000 A 
ENDBRANCH  15  23
ENDBRANCH   1  15
TORSDOF 3
ENDMDL
MODEL 6
REMARK VINA RESULT:      -8.2      1.675      3.090
REMARK  Name = 
REMARK  4 active torsions:
REMARK  status: ('A' for Active; 'I' for Inactive)
REMARK    1  A    between atoms: C_1  and  N_2
REMARK    2  A    between atoms: C_8  and  C_9
REMARK    3  A    between atoms: C_9  and  N_10
REMARK    4  A    between atoms: C_11  and  C_13
REMARK                            x       y       z     vdW  Elec       q    Type
REMARK                         _______ _______ _______ _____ _____    ______ ____
ROOT
ATOM      1  N   UNL     1       1.349   9.239  18.452  0.00  0.00    +0.000 N 
ATOM      2  C   UNL     1       1.304  10.620  18.491  0.00  0.00    +0.000 C 
ATOM      3  O   UNL     1       2.206  11.330  18.066  0.00  0.00    +0.000 OA
ATOM      4  H   UNL     1       0.531   8.705  18.708  0.00  0.00    +0.000 HD
ENDROOT
BRANCH   2   5
ATOM      5  C   UNL     1       0.061  11.212  19.098  0.00  0.00    +0.000 A 
ATOM      6  C   UNL     1       0.205  11.967  20.277  0.00  0.00    +0.000 A 
ATOM      7  C   UNL     1      -0.900  12.542  20.899  0.00  0.00    +0.000 A 
ATOM      8  C   UNL     1      -2.161  12.391  20.337  0.00  0.00    +0.000 A 
ATOM      9  C   UNL     1      -2.335  11.676  19.141  0.00  0.00    +0.000 A 
ATOM     10  C   UNL     1      -1.224  11.060  18.515  0.00  0.00    +0.000 A 
ATOM     11  C   UNL     1      -1.420  10.303  17.216  0.00  0.00    +0.000 C 
ATOM     12  C   UNL     1      -2.874   9.923  16.924  0.00  0.00    +0.000 C 
ATOM     13  C   UNL     1      -3.789  11.116  17.140  0.00  0.00    +0.000 C 
ATOM     14  C   UNL     1      -3.741  11.544  18.601  0.00  0.00    +0.000 C 
ENDBRANCH   2   5
BRANCH   1  15
ATOM     15  C   UNL     1       2.458   8.505  17.885  0.00  0.00    +0.000 C 
BRANCH  15  23
ATOM     16  C   UNL     1       2.525   2.639  21.185  0.00  0.00    +0.000 C 
ATOM     17  N   UNL     1       2.905   3.228  19.928  0.00  0.00    +0.000 N 
ATOM     18  C   UNL     1       3.450   2.519  18.856  0.00  0.00    +0.000 C 
ATOM     19  O   UNL     1       3.704   1.324  18.810  0.00  0.00    +0.000 OA
ATOM     20  C   UNL     1       3.680   3.522  17.717  0.00  0.00    +0.000 C 
ATOM     21  C   UNL     1       3.196   4.809  18.314  0.00  0.00    +0.000 A 
ATOM     22  C   UNL     1       3.136   6.071  17.745  0.00  0.00    +0.000 A 
ATOM     23  C   UNL     1       2.613   7.133  18.505  0.00  0.00    +0.000 A 
ATOM     24  C   UNL     1       2.174   6.884  19.828  0.00  0.00    +0.000 A 
ATOM     25  C   UNL     1       2.240   5.602  20.392  0.00  0.00    +0.000 A 
ATOM     26  C   UNL     1       2.753   4.582  19.613  0.00  0.00    +0.000 A 
ENDBRANCH  15  23
ENDBRANCH   1  15
TORSDOF 3
ENDMDL
MODEL 7
REMARK VINA RESULT:      -8.1      2.149      7.602
REMARK  Name = 
REMARK  4 active torsions:
REMARK  status: ('A' for Active; 'I' for Inactive)
REMARK    1  A    between atoms: C_1  and  N_2
REMARK    2  A    between atoms: C_8  and  C_9
REMARK    3  A    between atoms: C_9  and  N_10
REMARK    4  A    between atoms: C_11  and  C_13
REMARK                            x       y       z     vdW  Elec       q    Type
REMARK                         _______ _______ _______ _____ _____    ______ ____
ROOT
ATOM      1  N   UNL     1       2.411   7.216  17.778  0.00  0.00    +0.000 N 
ATOM      2  C   UNL     1       3.617   6.541  17.765  0.00  0.00    +0.000 C 
ATOM      3  O   UNL     1       4.700   7.110  17.700  0.00  0.00    +0.000 OA
ATOM      4  H   UNL     1       1.557   6.706  17.950  0.00  0.00    +0.000 HD
ENDROOT
BRANCH   2   5
ATOM      5  C   UNL     1       3.525   5.041  17.836  0.00  0.00    +0.000 A 
ATOM      6  C   UNL     1       4.264   4.296  16.900  0.00  0.00    +0.000 A 
ATOM      7  C   UNL     1       4.224   2.904  16.900  0.00  0.00    +0.000 A 
ATOM      8  C   UNL     1       3.464   2.238  17.853  0.00  0.00    +0.000 A 
ATOM      9  C   UNL     1       2.745   2.951  18.825  0.00  0.00    +0.000 A 
ATOM     10  C   UNL     1       2.752   4.367  18.816  0.00  0.00    +0.000 A 
ATOM     11  C   UNL     1       1.983   5.127  19.880  0.00  0.00    +0.000 C 
ATOM     12  C   UNL     1       0.931   4.291  20.613  0.00  0.00    +0.000 C 
ATOM     13  C   UNL     1       1.518   2.958  21.046  0.00  0.00    +0.000 C 
ATOM     14  C   UNL     1       1.929   2.154  19.819  0.00  0.00    +0.000 C 
ENDBRANCH   2   5
BRANCH   1  15
ATOM     15  C   UNL     1       2.317   8.658  17.736  0.00  0.00    +0.000 C 
BRANCH  15  23
ATOM     16  C   UNL     1      -1.126  10.749  23.129  0.00  0.00    +0.000 C 
ATOM     17  N   UNL     1      -0.964  11.015  21.724  0.00  0.00    +0.000 N 
ATOM     18  C   UNL     1      -1.605  12.048  21.036  0.00  0.00    +0.000 C 
ATOM     19  O   UNL     1      -2.397  12.861  21.490  0.00  0.00    +0.000 OA
ATOM     20  C   UNL     1      -1.131  11.986  19.578  0.00  0.00    +0.000 C 
ATOM     21  C   UNL     1      -0.185  10.823  19.592  0.00  0.00    +0.000 A 
ATOM     22  C   UNL     1       0.572  10.297  18.557  0.00  0.00    +0.000 A 
ATOM     23  C   UNL     1       1.416   9.204  18.824  0.00  0.00    +0.000 A 
ATOM     24  C   UNL     1       1.460   8.668  20.134  0.00  0.00    +0.000 A 
ATOM     25  C   UNL     1       0.689   9.210  21.172  0.00  0.00    +0.000 A 
ATOM     26  C   UNL     1      -0.123  10.289  20.875  0.00  0.00    +0.000 A 
ENDBRANCH  15  23
ENDBRANCH   1  15
TORSDOF 3
ENDMDL
MODEL 8
REMARK VINA RESULT:      -8.1      1.958      2.918
REMARK  Name = 
REMARK  4 active torsions:
REMARK  status: ('A' for Active; 'I' for Inactive)
REMARK    1  A    between atoms: C_1  and  N_2
REMARK    2  A    between atoms: C_8  and  C_9
REMARK    3  A    between atoms: C_9  and  N_10
REMARK    4  A    between atoms: C_11  and  C_13
REMARK                            x       y       z     vdW  Elec       q    Type
REMARK                         _______ _______ _______ _____ _____    ______ ____
ROOT
ATOM      1  N   UNL     1       0.902   9.730  17.724  0.00  0.00    +0.000 N 
ATOM      2  C   UNL     1       0.080  10.361  18.637  0.00  0.00    +0.000 C 
ATOM      3  O   UNL     1       0.472  10.756  19.729  0.00  0.00    +0.000 OA
ATOM      4  H   UNL     1       0.557   9.531  16.796  0.00  0.00    +0.000 HD
ENDROOT
BRANCH   2   5
ATOM      5  C   UNL     1      -1.352  10.539  18.210  0.00  0.00    +0.000 A 
ATOM      6  C   UNL     1      -1.792   9.819  17.085  0.00  0.00    +0.000 A 
ATOM      7  C   UNL     1      -3.102   9.936  16.627  0.00  0.00    +0.000 A 
ATOM      8  C   UNL     1      -3.997  10.755  17.304  0.00  0.00    +0.000 A 
ATOM      9  C   UNL     1      -3.600  11.458  18.453  0.00  0.00    +0.000 A 
ATOM     10  C   UNL     1      -2.262  11.372  18.911  0.00  0.00    +0.000 A 
ATOM     11  C   UNL     1      -1.848  12.123  20.161  0.00  0.00    +0.000 C 
ATOM     12  C   UNL     1      -2.814  13.237  20.573  0.00  0.00    +0.000 C 
ATOM     13  C   UNL     1      -4.248  12.736  20.546  0.00  0.00    +0.000 C 
ATOM     14  C   UNL     1      -4.628  12.340  19.125  0.00  0.00    +0.000 C 
ENDBRANCH   2   5
BRANCH   1  15
ATOM     15  C   UNL     1       2.309   9.496  17.962  0.00  0.00    +0.000 C 
BRANCH  15  23
ATOM     16  C   UNL     1       4.357   3.158  18.931  0.00  0.00    +0.000 C 
ATOM     17  N   UNL     1       3.441   4.137  19.453  0.00  0.00    +0.000 N 
ATOM     18  C   UNL     1       2.630   3.942  20.573  0.00  0.00    +0.000 C 
ATOM     19  O   UNL     1       2.551   2.938  21.265  0.00  0.00    +0.000 OA
ATOM     20  C   UNL     1       1.838   5.238  20.792  0.00  0.00    +0.000 C 
ATOM     21  C   UNL     1       2.327   6.112  19.676  0.00  0.00    +0.000 A 
ATOM     22  C   UNL     1       1.982   7.419  19.370  0.00  0.00    +0.000 A 
ATOM     23  C   UNL     1       2.602   8.044  18.273  0.00  0.00    +0.000 A 
ATOM     24  C   UNL     1       3.549   7.319  17.510  0.00  0.00    +0.000 A 
ATOM     25  C   UNL     1       3.890   5.997  17.830  0.00  0.00    +0.000 A 
ATOM     26  C   UNL     1       3.266   5.417  18.919  0.00  0.00    +0.000 A 
ENDBRANCH  15  23
ENDBRANCH   1  15
TORSDOF 3
ENDMDL
MODEL 9
REMARK VINA RESULT:      -8.0      2.074      3.299
REMARK  Name = 
REMARK  4 active torsions:
REMARK  status: ('A' for Active; 'I' for Inactive)
REMARK    1  A    between atoms: C_1  and  N_2
REMARK    2  A    between atoms: C_8  and  C_9
REMARK    3  A    between atoms: C_9  and  N_10
REMARK    4  A    between atoms: C_11  and  C_13
REMARK                            x       y       z     vdW  Elec       q    Type
REMARK                         _______ _______ _______ _____ _____    ______ ____
ROOT
ATOM      1  N   UNL     1       0.779   9.426  17.722  0.00  0.00    +0.000 N 
ATOM      2  C   UNL     1       0.055  10.314  18.495  0.00  0.00    +0.000 C 
ATOM      3  O   UNL     1       0.526  10.892  19.467  0.00  0.00    +0.000 OA
ATOM      4  H   UNL     1       0.380   9.068  16.866  0.00  0.00    +0.000 HD
ENDROOT
BRANCH   2   5
ATOM      5  C   UNL     1      -1.371  10.536  18.068  0.00  0.00    +0.000 A 
ATOM      6  C   UNL     1      -1.820   9.864  16.917  0.00  0.00    +0.000 A 
ATOM      7  C   UNL     1      -3.125  10.023  16.458  0.00  0.00    +0.000 A 
ATOM      8  C   UNL     1      -4.006  10.838  17.158  0.00  0.00    +0.000 A 
ATOM      9  C   UNL     1      -3.600  11.493  18.332  0.00  0.00    +0.000 A 
ATOM     10  C   UNL     1      -2.267  11.364  18.792  0.00  0.00    +0.000 A 
ATOM     11  C   UNL     1      -1.844  12.064  20.069  0.00  0.00    +0.000 C 
ATOM     12  C   UNL     1      -2.788  13.183  20.514  0.00  0.00    +0.000 C 
ATOM     13  C   UNL     1      -4.232  12.713  20.464  0.00  0.00    +0.000 C 
ATOM     14  C   UNL     1      -4.613  12.373  19.029  0.00  0.00    +0.000 C 
ENDBRANCH   2   5
BRANCH   1  15
ATOM     15  C   UNL     1       2.167   9.112  17.978  0.00  0.00    +0.000 C 
BRANCH  15  23
ATOM     16  C   UNL     1       2.334   3.263  21.306  0.00  0.00    +0.000 C 
ATOM     17  N   UNL     1       2.664   3.843  20.031  0.00  0.00    +0.000 N 
ATOM     18  C   UNL     1       3.160   3.124  18.941  0.00  0.00    +0.000 C 
ATOM     19  O   UNL     1       3.404   1.928  18.891  0.00  0.00    +0.000 OA
ATOM     20  C   UNL     1       3.348   4.120  17.788  0.00  0.00    +0.000 C 
ATOM     21  C   UNL     1       2.898   5.413  18.397  0.00  0.00    +0.000 A 
ATOM     22  C   UNL     1       2.822   6.673  17.823  0.00  0.00    +0.000 A 
ATOM     23  C   UNL     1       2.338   7.742  18.599  0.00  0.00    +0.000 A 
ATOM     24  C   UNL     1       1.954   7.503  19.941  0.00  0.00    +0.000 A 
ATOM     25  C   UNL     1       2.035   6.224  20.508  0.00  0.00    +0.000 A 
ATOM     26  C   UNL     1       2.508   5.196  19.715  0.00  0.00    +0.000 A 
ENDBRANCH  15  23
ENDBRANCH   1  15
TORSDOF 3
ENDMDL
