MODEL 1
REMARK VINA RESULT:      -8.3      0.000      0.000
REMARK  Name = 
REMARK  8 active torsions:
REMARK  status: ('A' for Active; 'I' for Inactive)
REMARK    1  A    between atoms: C_1  and  N_2
REMARK    2  A    between atoms: C_6  and  C_7
REMARK    3  A    between atoms: C_7  and  C_8
REMARK    4  A    between atoms: C_9  and  C_10
REMARK    5  A    between atoms: C_9  and  C_12
REMARK    6  A    between atoms: C_10  and  O_11
REMARK    7  A    between atoms: C_16  and  N_17
REMARK    8  A    between atoms: C_24  and  C_25
REMARK                            x       y       z     vdW  Elec       q    Type
REMARK                         _______ _______ _______ _____ _____    ______ ____
ROOT
ATOM      1  C   UNL     1       2.098   5.891  20.094  0.00  0.00    +0.000 A 
ATOM      2  C   UNL     1       1.030   5.086  20.518  0.00  0.00    +0.000 A 
ATOM      3  C   UNL     1       1.226   3.740  20.828  0.00  0.00    +0.000 A 
ATOM      4  C   UNL     1       2.461   3.151  20.605  0.00  0.00    +0.000 A 
ATOM      5  C   UNL     1       3.413   3.860  19.865  0.00  0.00    +0.000 A 
ATOM      6  C   UNL     1       3.312   5.253  19.795  0.00  0.00    +0.000 A 
ENDROOT
BRANCH   5   7
ATOM      7  N   UNL     1       4.057   3.196  18.748  0.00  0.00    +0.000 N 
ATOM      8  C   UNL     1       5.529   3.434  18.782  0.00  0.00    +0.000 C 
ATOM      9  C   UNL     1       5.685   4.626  17.895  0.00  0.00    +0.000 A 
ATOM     10  C   UNL     1       4.602   4.636  17.010  0.00  0.00    +0.000 A 
ATOM     11  C   UNL     1       4.360   5.685  16.142  0.00  0.00    +0.000 A 
ATOM     12  C   UNL     1       5.240   6.766  16.184  0.00  0.00    +0.000 A 
ATOM     13  C   UNL     1       6.325   6.775  17.082  0.00  0.00    +0.000 A 
ATOM     14  C   UNL     1       6.573   5.697  17.957  0.00  0.00    +0.000 A 
ATOM     15  C   UNL     1       3.628   3.616  17.447  0.00  0.00    +0.000 C 
ATOM     16  O   UNL     1       2.576   3.382  16.899  0.00  0.00    +0.000 OA
BRANCH  14  17
ATOM     17  C   UNL     1       7.703   5.793  18.953  0.00  0.00    +0.000 C 
ATOM     18  F   UNL     1       7.308   5.725  20.253  0.00  0.00    +0.000 F 
ATOM     19  F   UNL     1       8.611   4.791  18.794  0.00  0.00    +0.000 F 
ATOM     20  F   UNL     1       8.404   6.956  18.835  0.00  0.00    +0.000 F 
ENDBRANCH  14  17
ENDBRANCH   5   7
BRANCH   1  22
ATOM     21  C   UNL     1       2.168   7.824  18.633  0.00  0.00    +0.000 C 
ATOM     22  C   UNL     1       1.943   7.358  19.884  0.00  0.00    +0.000 C 
BRANCH  21  23
ATOM     23  C   UNL     1       2.262   9.241  18.149  0.00  0.00    +0.000 C 
BRANCH  23  29
ATOM     24  C   UNL     1       2.232  12.432  18.665  0.00  0.00    +0.000 C 
ATOM     25  N   UNL     1       1.120  11.525  18.577  0.00  0.00    +0.000 N 
ATOM     26  C   UNL     1      -0.188  11.901  18.691  0.00  0.00    +0.000 A 
ATOM     27  N   UNL     1      -0.962  10.853  18.563  0.00  0.00    +0.000 NA
ATOM     28  N   UNL     1      -0.151   9.767  18.359  0.00  0.00    +0.000 NA
ATOM     29  C   UNL     1       1.108  10.167  18.368  0.00  0.00    +0.000 A 
ENDBRANCH  23  29
ENDBRANCH  21  23
BRANCH  22  30
ATOM     30  C   UNL     1       1.665   8.217  21.097  0.00  0.00    +0.000 C 
BRANCH  30  31
ATOM     31  O   UNL     1       0.268   8.455  21.207  0.00  0.00    +0.000 OA
ATOM     32  H   UNL     1       0.139   9.066  21.949  0.00  0.00    +0.000 HD
ENDBRANCH  30  31
ENDBRANCH  22  30
ENDBRANCH   1  22
TORSDOF 7
ENDMDL
MODEL 2
REMARK VINA RESULT:      -8.3      1.817      2.118
REMARK  Name = 
REMARK  8 active torsions:
REMARK  status: ('A' for Active; 'I' for Inactive)
REMARK    1  A    between atoms: C_1  and  N_2
REMARK    2  A    between atoms: C_6  and  C_7
REMARK    3  A    between atoms: C_7  and  C_8
REMARK    4  A    between atoms: C_9  and  C_10
REMARK    5  A    between atoms: C_9  and  C_12
REMARK    6  A    between atoms: C_10  and  O_11
REMARK    7  A    between atoms: C_16  and  N_17
REMARK    8  A    between atoms: C_24  and  C_25
REMARK                            x       y       z     vdW  Elec       q    Type
REMARK                         _______ _______ _______ _____ _____    ______ ____
ROOT
ATOM      1  C   UNL     1       2.212   5.940  19.998  0.00  0.00    +0.000 A 
ATOM      2  C   UNL     1       1.100   5.191  20.411  0.00  0.00    +0.000 A 
ATOM      3  C   UNL     1       1.238   3.860  20.804  0.00  0.00    +0.000 A 
ATOM      4  C   UNL     1       2.464   3.224  20.676  0.00  0.00    +0.000 A 
ATOM      5  C   UNL     1       3.472   3.862  19.948  0.00  0.00    +0.000 A 
ATOM      6  C   UNL     1       3.418   5.251  19.796  0.00  0.00    +0.000 A 
ENDROOT
BRANCH   5   7
ATOM      7  N   UNL     1       4.149   3.119  18.902  0.00  0.00    +0.000 N 
ATOM      8  C   UNL     1       5.618   3.376  18.950  0.00  0.00    +0.000 C 
ATOM      9  C   UNL     1       5.781   4.495  17.973  0.00  0.00    +0.000 A 
ATOM     10  C   UNL     1       4.719   4.419  17.066  0.00  0.00    +0.000 A 
ATOM     11  C   UNL     1       4.487   5.392  16.110  0.00  0.00    +0.000 A 
ATOM     12  C   UNL     1       5.354   6.484  16.084  0.00  0.00    +0.000 A 
ATOM     13  C   UNL     1       6.418   6.578  17.003  0.00  0.00    +0.000 A 
ATOM     14  C   UNL     1       6.656   5.578  17.968  0.00  0.00    +0.000 A 
ATOM     15  C   UNL     1       3.746   3.427  17.563  0.00  0.00    +0.000 C 
ATOM     16  O   UNL     1       2.709   3.136  17.012  0.00  0.00    +0.000 OA
BRANCH  14  17
ATOM     17  C   UNL     1       7.762   5.768  18.977  0.00  0.00    +0.000 C 
ATOM     18  F   UNL     1       7.345   5.743  20.272  0.00  0.00    +0.000 F 
ATOM     19  F   UNL     1       8.714   4.800  18.881  0.00  0.00    +0.000 F 
ATOM     20  F   UNL     1       8.415   6.953  18.818  0.00  0.00    +0.000 F 
ENDBRANCH  14  17
ENDBRANCH   5   7
BRANCH   1  22
ATOM     21  C   UNL     1       1.414   8.155  20.576  0.00  0.00    +0.000 C 
ATOM     22  C   UNL     1       2.113   7.396  19.699  0.00  0.00    +0.000 C 
BRANCH  21  23
ATOM     23  C   UNL     1       0.993   9.591  20.467  0.00  0.00    +0.000 C 
BRANCH  23  29
ATOM     24  C   UNL     1      -1.313  11.853  20.340  0.00  0.00    +0.000 C 
ATOM     25  N   UNL     1      -0.798  11.157  21.489  0.00  0.00    +0.000 N 
ATOM     26  C   UNL     1      -1.241  11.350  22.766  0.00  0.00    +0.000 A 
ATOM     27  N   UNL     1      -0.582  10.572  23.586  0.00  0.00    +0.000 NA
ATOM     28  N   UNL     1       0.311   9.851  22.837  0.00  0.00    +0.000 NA
ATOM     29  C   UNL     1       0.187  10.202  21.569  0.00  0.00    +0.000 A 
ENDBRANCH  23  29
ENDBRANCH  21  23
BRANCH  22  30
ATOM     30  C   UNL     1       2.694   7.888  18.392  0.00  0.00    +0.000 C 
BRANCH  30  31
ATOM     31  O   UNL     1       1.649   8.328  17.537  0.00  0.00    +0.000 OA
ATOM     32  H   UNL     1       2.061   8.821  16.811  0.00  0.00    +0.000 HD
ENDBRANCH  30  31
ENDBRANCH  22  30
ENDBRANCH   1  22
TORSDOF 7
ENDMDL
MODEL 3
REMARK VINA RESULT:      -8.2      3.354      4.913
REMARK  Name = 
REMARK  8 active torsions:
REMARK  status: ('A' for Active; 'I' for Inactive)
REMARK    1  A    between atoms: C_1  and  N_2
REMARK    2  A    between atoms: C_6  and  C_7
REMARK    3  A    between atoms: C_7  and  C_8
REMARK    4  A    between atoms: C_9  and  C_10
REMARK    5  A    between atoms: C_9  and  C_12
REMARK    6  A    between atoms: C_10  and  O_11
REMARK    7  A    between atoms: C_16  and  N_17
REMARK    8  A    between atoms: C_24  and  C_25
REMARK                            x       y       z     vdW  Elec       q    Type
REMARK                         _______ _______ _______ _____ _____    ______ ____
ROOT
ATOM      1  C   UNL     1       1.290   9.323  19.334  0.00  0.00    +0.000 A 
ATOM      2  C   UNL     1       0.855   8.635  20.476  0.00  0.00    +0.000 A 
ATOM      3  C   UNL     1       1.481   7.456  20.884  0.00  0.00    +0.000 A 
ATOM      4  C   UNL     1       2.468   6.887  20.094  0.00  0.00    +0.000 A 
ATOM      5  C   UNL     1       2.654   7.383  18.801  0.00  0.00    +0.000 A 
ATOM      6  C   UNL     1       2.229   8.683  18.509  0.00  0.00    +0.000 A 
ENDROOT
BRANCH   5   7
ATOM      7  N   UNL     1       2.683   6.444  17.695  0.00  0.00    +0.000 N 
ATOM      8  C   UNL     1       1.736   5.319  17.946  0.00  0.00    +0.000 C 
ATOM      9  C   UNL     1       2.617   4.288  18.573  0.00  0.00    +0.000 A 
ATOM     10  C   UNL     1       3.924   4.533  18.140  0.00  0.00    +0.000 A 
ATOM     11  C   UNL     1       5.015   3.849  18.644  0.00  0.00    +0.000 A 
ATOM     12  C   UNL     1       4.772   2.893  19.629  0.00  0.00    +0.000 A 
ATOM     13  C   UNL     1       3.461   2.648  20.084  0.00  0.00    +0.000 A 
ATOM     14  C   UNL     1       2.351   3.341  19.560  0.00  0.00    +0.000 A 
ATOM     15  C   UNL     1       3.951   5.831  17.437  0.00  0.00    +0.000 C 
ATOM     16  O   UNL     1       4.936   6.337  16.951  0.00  0.00    +0.000 OA
BRANCH  14  17
ATOM     17  C   UNL     1       0.980   3.096  20.139  0.00  0.00    +0.000 C 
ATOM     18  F   UNL     1       0.308   4.228  20.481  0.00  0.00    +0.000 F 
ATOM     19  F   UNL     1       0.167   2.438  19.267  0.00  0.00    +0.000 F 
ATOM     20  F   UNL     1       1.020   2.330  21.265  0.00  0.00    +0.000 F 
ENDBRANCH  14  17
ENDBRANCH   5   7
BRANCH   1  22
ATOM     21  C   UNL     1      -0.592  10.687  18.646  0.00  0.00    +0.000 C 
ATOM     22  C   UNL     1       0.726  10.648  18.951  0.00  0.00    +0.000 C 
BRANCH  21  23
ATOM     23  C   UNL     1      -1.402  11.810  18.068  0.00  0.00    +0.000 C 
BRANCH  23  29
ATOM     24  C   UNL     1      -4.517  12.011  18.911  0.00  0.00    +0.000 C 
ATOM     25  N   UNL     1      -3.950  11.595  17.656  0.00  0.00    +0.000 N 
ATOM     26  C   UNL     1      -4.685  11.216  16.569  0.00  0.00    +0.000 A 
ATOM     27  N   UNL     1      -3.885  10.898  15.583  0.00  0.00    +0.000 NA
ATOM     28  N   UNL     1      -2.600  11.073  16.026  0.00  0.00    +0.000 NA
ATOM     29  C   UNL     1      -2.632  11.492  17.278  0.00  0.00    +0.000 A 
ENDBRANCH  23  29
ENDBRANCH  21  23
BRANCH  22  30
ATOM     30  C   UNL     1       1.686  11.810  18.820  0.00  0.00    +0.000 C 
BRANCH  30  31
ATOM     31  O   UNL     1       2.220  11.845  17.504  0.00  0.00    +0.000 OA
ATOM     32  H   UNL     1       3.086  12.277  17.557  0.00  0.00    +0.000 HD
ENDBRANCH  30  31
ENDBRANCH  22  30
ENDBRANCH   1  22
TORSDOF 7
ENDMDL
MODEL 4
REMARK VINA RESULT:      -8.1      2.873      4.248
REMARK  Name = 
REMARK  8 active torsions:
REMARK  status: ('A' for Active; 'I' for Inactive)
REMARK    1  A    between atoms: C_1  and  N_2
REMARK    2  A    between atoms: C_6  and  C_7
REMARK    3  A    between atoms: C_7  and  C_8
REMARK    4  A    between atoms: C_9  and  C_10
REMARK    5  A    between atoms: C_9  and  C_12
REMARK    6  A    between atoms: C_10  and  O_11
REMARK    7  A    between atoms: C_16  and  N_17
REMARK    8  A    between atoms: C_24  and  C_25
REMARK                            x       y       z     vdW  Elec       q    Type
REMARK                         _______ _______ _______ _____ _____    ______ ____
ROOT
ATOM      1  C   UNL     1       1.267   8.806  20.269  0.00  0.00    +0.000 A 
ATOM      2  C   UNL     1       1.728   9.238  19.016  0.00  0.00    +0.000 A 
ATOM      3  C   UNL     1       2.170   8.322  18.061  0.00  0.00    +0.000 A 
ATOM      4  C   UNL     1       2.270   6.977  18.384  0.00  0.00    +0.000 A 
ATOM      5  C   UNL     1       2.142   6.605  19.726  0.00  0.00    +0.000 A 
ATOM      6  C   UNL     1       1.459   7.456  20.600  0.00  0.00    +0.000 A 
ENDROOT
BRANCH   5   7
ATOM      7  N   UNL     1       3.161   5.753  20.309  0.00  0.00    +0.000 N 
ATOM      8  C   UNL     1       4.301   5.585  19.361  0.00  0.00    +0.000 C 
ATOM      9  C   UNL     1       3.946   4.319  18.650  0.00  0.00    +0.000 A 
ATOM     10  C   UNL     1       3.119   3.577  19.500  0.00  0.00    +0.000 A 
ATOM     11  C   UNL     1       2.492   2.413  19.097  0.00  0.00    +0.000 A 
ATOM     12  C   UNL     1       2.700   1.995  17.783  0.00  0.00    +0.000 A 
ATOM     13  C   UNL     1       3.518   2.742  16.913  0.00  0.00    +0.000 A 
ATOM     14  C   UNL     1       4.164   3.924  17.333  0.00  0.00    +0.000 A 
ATOM     15  C   UNL     1       2.740   4.427  20.647  0.00  0.00    +0.000 C 
ATOM     16  O   UNL     1       2.022   4.083  21.556  0.00  0.00    +0.000 OA
BRANCH  14  17
ATOM     17  C   UNL     1       4.964   4.727  16.337  0.00  0.00    +0.000 C 
ATOM     18  F   UNL     1       4.533   6.007  16.178  0.00  0.00    +0.000 F 
ATOM     19  F   UNL     1       6.274   4.824  16.694  0.00  0.00    +0.000 F 
ATOM     20  F   UNL     1       4.955   4.173  15.092  0.00  0.00    +0.000 F 
ENDBRANCH  14  17
ENDBRANCH   5   7
BRANCH   1  22
ATOM     21  C   UNL     1       0.321  10.975  20.797  0.00  0.00    +0.000 C 
ATOM     22  C   UNL     1       0.669   9.750  21.255  0.00  0.00    +0.000 C 
BRANCH  21  23
ATOM     23  C   UNL     1      -0.133  12.183  21.561  0.00  0.00    +0.000 C 
BRANCH  23  29
ATOM     24  C   UNL     1      -2.852  13.084  20.060  0.00  0.00    +0.000 C 
ATOM     25  N   UNL     1      -2.682  12.618  21.410  0.00  0.00    +0.000 N 
ATOM     26  C   UNL     1      -3.703  12.465  22.304  0.00  0.00    +0.000 A 
ATOM     27  N   UNL     1      -3.232  12.023  23.442  0.00  0.00    +0.000 NA
ATOM     28  N   UNL     1      -1.877  11.880  23.297  0.00  0.00    +0.000 NA
ATOM     29  C   UNL     1      -1.538  12.240  22.072  0.00  0.00    +0.000 A 
ENDBRANCH  23  29
ENDBRANCH  21  23
BRANCH  22  30
ATOM     30  C   UNL     1       0.608   9.311  22.701  0.00  0.00    +0.000 C 
BRANCH  30  31
ATOM     31  O   UNL     1      -0.737   9.034  23.063  0.00  0.00    +0.000 OA
ATOM     32  H   UNL     1      -0.712   8.449  23.836  0.00  0.00    +0.000 HD
ENDBRANCH  30  31
ENDBRANCH  22  30
ENDBRANCH   1  22
TORSDOF 7
ENDMDL
MODEL 5
REMARK VINA RESULT:      -8.0      3.379      4.894
REMARK  Name = 
REMARK  8 active torsions:
REMARK  status: ('A' for Active; 'I' for Inactive)
REMARK    1  A    between atoms: C_1  and  N_2
REMARK    2  A    between atoms: C_6  and  C_7
REMARK    3  A    between atoms: C_7  and  C_8
REMARK    4  A    between atoms: C_9  and  C_10
REMARK    5  A    between atoms: C_9  and  C_12
REMARK    6  A    between atoms: C_10  and  O_11
REMARK    7  A    between atoms: C_16  and  N_17
REMARK    8  A    between atoms: C_24  and  C_25
REMARK                            x       y       z     vdW  Elec       q    Type
REMARK                         _______ _______ _______ _____ _____    ______ ____
ROOT
ATOM      1  C   UNL     1       1.027   9.281  19.216  0.00  0.00    +0.000 A 
ATOM      2  C   UNL     1       0.754   8.613  20.420  0.00  0.00    +0.000 A 
ATOM      3  C   UNL     1       1.533   7.532  20.832  0.00  0.00    +0.000 A 
ATOM      4  C   UNL     1       2.517   7.027  19.994  0.00  0.00    +0.000 A 
ATOM      5  C   UNL     1       2.552   7.469  18.668  0.00  0.00    +0.000 A 
ATOM      6  C   UNL     1       1.967   8.699  18.351  0.00  0.00    +0.000 A 
ENDROOT
BRANCH   5   7
ATOM      7  N   UNL     1       2.602   6.479  17.609  0.00  0.00    +0.000 N 
ATOM      8  C   UNL     1       1.682   5.345  17.914  0.00  0.00    +0.000 C 
ATOM      9  C   UNL     1       2.587   4.366  18.589  0.00  0.00    +0.000 A 
ATOM     10  C   UNL     1       3.888   4.621  18.143  0.00  0.00    +0.000 A 
ATOM     11  C   UNL     1       4.995   3.987  18.677  0.00  0.00    +0.000 A 
ATOM     12  C   UNL     1       4.775   3.074  19.707  0.00  0.00    +0.000 A 
ATOM     13  C   UNL     1       3.470   2.820  20.175  0.00  0.00    +0.000 A 
ATOM     14  C   UNL     1       2.344   3.462  19.619  0.00  0.00    +0.000 A 
ATOM     15  C   UNL     1       3.884   5.885  17.378  0.00  0.00    +0.000 C 
ATOM     16  O   UNL     1       4.857   6.389  16.867  0.00  0.00    +0.000 OA
BRANCH  14  17
ATOM     17  C   UNL     1       0.979   3.212  20.212  0.00  0.00    +0.000 C 
ATOM     18  F   UNL     1       0.129   2.540  19.390  0.00  0.00    +0.000 F 
ATOM     19  F   UNL     1       1.046   2.472  21.353  0.00  0.00    +0.000 F 
ATOM     20  F   UNL     1       0.338   4.366  20.550  0.00  0.00    +0.000 F 
ENDBRANCH  14  17
ENDBRANCH   5   7
BRANCH   1  22
ATOM     21  C   UNL     1      -0.899  10.348  18.202  0.00  0.00    +0.000 C 
ATOM     22  C   UNL     1       0.295  10.516  18.818  0.00  0.00    +0.000 C 
BRANCH  21  23
ATOM     23  C   UNL     1      -1.778  11.366  17.537  0.00  0.00    +0.000 C 
BRANCH  23  29
ATOM     24  C   UNL     1      -3.129  12.639  20.184  0.00  0.00    +0.000 C 
ATOM     25  N   UNL     1      -3.770  12.013  19.059  0.00  0.00    +0.000 N 
ATOM     26  C   UNL     1      -5.122  11.867  18.929  0.00  0.00    +0.000 A 
ATOM     27  N   UNL     1      -5.395  11.264  17.801  0.00  0.00    +0.000 NA
ATOM     28  N   UNL     1      -4.204  11.008  17.174  0.00  0.00    +0.000 NA
ATOM     29  C   UNL     1      -3.218  11.457  17.930  0.00  0.00    +0.000 A 
ENDBRANCH  23  29
ENDBRANCH  21  23
BRANCH  22  30
ATOM     30  C   UNL     1       0.990  11.843  19.025  0.00  0.00    +0.000 C 
BRANCH  30  31
ATOM     31  O   UNL     1       1.784  12.152  17.889  0.00  0.00    +0.000 OA
ATOM     32  H   UNL     1       2.544  12.667  18.201  0.00  0.00    +0.000 HD
ENDBRANCH  30  31
ENDBRANCH  22  30
ENDBRANCH   1  22
TORSDOF 7
ENDMDL
MODEL 6
REMARK VINA RESULT:      -8.0      0.626      1.061
REMARK  Name = 
REMARK  8 active torsions:
REMARK  status: ('A' for Active; 'I' for Inactive)
REMARK    1  A    between atoms: C_1  and  N_2
REMARK    2  A    between atoms: C_6  and  C_7
REMARK    3  A    between atoms: C_7  and  C_8
REMARK    4  A    between atoms: C_9  and  C_10
REMARK    5  A    between atoms: C_9  and  C_12
REMARK    6  A    between atoms: C_10  and  O_11
REMARK    7  A    between atoms: C_16  and  N_17
REMARK    8  A    between atoms: C_24  and  C_25
REMARK                            x       y       z     vdW  Elec       q    Type
REMARK                         _______ _______ _______ _____ _____    ______ ____
ROOT
ATOM      1  C   UNL     1       2.041   5.889  20.111  0.00  0.00    +0.000 A 
ATOM      2  C   UNL     1       1.010   5.050  20.557  0.00  0.00    +0.000 A 
ATOM      3  C   UNL     1       1.254   3.708  20.852  0.00  0.00    +0.000 A 
ATOM      4  C   UNL     1       2.499   3.157  20.591  0.00  0.00    +0.000 A 
ATOM      5  C   UNL     1       3.409   3.899  19.832  0.00  0.00    +0.000 A 
ATOM      6  C   UNL     1       3.265   5.289  19.774  0.00  0.00    +0.000 A 
ENDROOT
BRANCH   5   7
ATOM      7  N   UNL     1       4.042   3.262  18.692  0.00  0.00    +0.000 N 
ATOM      8  C   UNL     1       5.517   3.483  18.728  0.00  0.00    +0.000 C 
ATOM      9  C   UNL     1       5.682   4.700  17.876  0.00  0.00    +0.000 A 
ATOM     10  C   UNL     1       4.596   4.746  16.995  0.00  0.00    +0.000 A 
ATOM     11  C   UNL     1       4.362   5.823  16.160  0.00  0.00    +0.000 A 
ATOM     12  C   UNL     1       5.253   6.894  16.230  0.00  0.00    +0.000 A 
ATOM     13  C   UNL     1       6.342   6.865  17.124  0.00  0.00    +0.000 A 
ATOM     14  C   UNL     1       6.582   5.759  17.966  0.00  0.00    +0.000 A 
ATOM     15  C   UNL     1       3.613   3.725  17.407  0.00  0.00    +0.000 C 
ATOM     16  O   UNL     1       2.556   3.518  16.856  0.00  0.00    +0.000 OA
BRANCH  14  17
ATOM     17  C   UNL     1       7.716   5.814  18.960  0.00  0.00    +0.000 C 
ATOM     18  F   UNL     1       7.324   5.726  20.259  0.00  0.00    +0.000 F 
ATOM     19  F   UNL     1       8.605   4.799  18.777  0.00  0.00    +0.000 F 
ATOM     20  F   UNL     1       8.437   6.965  18.864  0.00  0.00    +0.000 F 
ENDBRANCH  14  17
ENDBRANCH   5   7
BRANCH   1  22
ATOM     21  C   UNL     1       1.963   7.824  18.652  0.00  0.00    +0.000 C 
ATOM     22  C   UNL     1       1.837   7.351  19.915  0.00  0.00    +0.000 C 
BRANCH  21  23
ATOM     23  C   UNL     1       1.989   9.242  18.165  0.00  0.00    +0.000 C 
BRANCH  23  29
ATOM     24  C   UNL     1      -1.123   9.644  17.384  0.00  0.00    +0.000 C 
ATOM     25  N   UNL     1      -0.339  10.361  18.354  0.00  0.00    +0.000 N 
ATOM     26  C   UNL     1      -0.825  11.365  19.142  0.00  0.00    +0.000 A 
ATOM     27  N   UNL     1       0.126  11.815  19.920  0.00  0.00    +0.000 NA
ATOM     28  N   UNL     1       1.258  11.094  19.643  0.00  0.00    +0.000 NA
ATOM     29  C   UNL     1       0.984  10.215  18.695  0.00  0.00    +0.000 A 
ENDBRANCH  23  29
ENDBRANCH  21  23
BRANCH  22  30
ATOM     30  C   UNL     1       1.624   8.203  21.146  0.00  0.00    +0.000 C 
BRANCH  30  31
ATOM     31  O   UNL     1       0.236   8.444  21.330  0.00  0.00    +0.000 OA
ATOM     32  H   UNL     1      -0.219   7.594  21.224  0.00  0.00    +0.000 HD
ENDBRANCH  30  31
ENDBRANCH  22  30
ENDBRANCH   1  22
TORSDOF 7
ENDMDL
MODEL 7
REMARK VINA RESULT:      -7.9      1.191      1.523
REMARK  Name = 
REMARK  8 active torsions:
REMARK  status: ('A' for Active; 'I' for Inactive)
REMARK    1  A    between atoms: C_1  and  N_2
REMARK    2  A    between atoms: C_6  and  C_7
REMARK    3  A    between atoms: C_7  and  C_8
REMARK    4  A    between atoms: C_9  and  C_10
REMARK    5  A    between atoms: C_9  and  C_12
REMARK    6  A    between atoms: C_10  and  O_11
REMARK    7  A    between atoms: C_16  and  N_17
REMARK    8  A    between atoms: C_24  and  C_25
REMARK                            x       y       z     vdW  Elec       q    Type
REMARK                         _______ _______ _______ _____ _____    ______ ____
ROOT
ATOM      1  C   UNL     1       2.161   6.047  19.984  0.00  0.00    +0.000 A 
ATOM      2  C   UNL     1       1.004   5.344  20.352  0.00  0.00    +0.000 A 
ATOM      3  C   UNL     1       1.063   3.993  20.692  0.00  0.00    +0.000 A 
ATOM      4  C   UNL     1       2.255   3.296  20.556  0.00  0.00    +0.000 A 
ATOM      5  C   UNL     1       3.307   3.907  19.867  0.00  0.00    +0.000 A 
ATOM      6  C   UNL     1       3.331   5.301  19.771  0.00  0.00    +0.000 A 
ENDROOT
BRANCH   5   7
ATOM      7  N   UNL     1       3.959   3.169  18.802  0.00  0.00    +0.000 N 
ATOM      8  C   UNL     1       5.435   3.379  18.852  0.00  0.00    +0.000 C 
ATOM      9  C   UNL     1       5.632   4.516  17.903  0.00  0.00    +0.000 A 
ATOM     10  C   UNL     1       4.567   4.497  16.997  0.00  0.00    +0.000 A 
ATOM     11  C   UNL     1       4.363   5.500  16.067  0.00  0.00    +0.000 A 
ATOM     12  C   UNL     1       5.263   6.564  16.065  0.00  0.00    +0.000 A 
ATOM     13  C   UNL     1       6.331   6.603  16.984  0.00  0.00    +0.000 A 
ATOM     14  C   UNL     1       6.540   5.571  17.923  0.00  0.00    +0.000 A 
ATOM     15  C   UNL     1       3.563   3.523  17.472  0.00  0.00    +0.000 C 
ATOM     16  O   UNL     1       2.517   3.278  16.916  0.00  0.00    +0.000 OA
BRANCH  14  17
ATOM     17  C   UNL     1       7.653   5.702  18.934  0.00  0.00    +0.000 C 
ATOM     18  F   UNL     1       7.238   5.658  20.229  0.00  0.00    +0.000 F 
ATOM     19  F   UNL     1       8.574   4.707  18.811  0.00  0.00    +0.000 F 
ATOM     20  F   UNL     1       8.342   6.870  18.803  0.00  0.00    +0.000 F 
ENDBRANCH  14  17
ENDBRANCH   5   7
BRANCH   1  22
ATOM     21  C   UNL     1       1.428   8.272  20.608  0.00  0.00    +0.000 C 
ATOM     22  C   UNL     1       2.145   7.517  19.742  0.00  0.00    +0.000 C 
BRANCH  21  23
ATOM     23  C   UNL     1       1.080   9.729  20.536  0.00  0.00    +0.000 C 
BRANCH  23  29
ATOM     24  C   UNL     1      -1.352  11.748  21.217  0.00  0.00    +0.000 C 
ATOM     25  N   UNL     1      -1.091  11.033  19.997  0.00  0.00    +0.000 N 
ATOM     26  C   UNL     1      -1.869  11.118  18.877  0.00  0.00    +0.000 A 
ATOM     27  N   UNL     1      -1.372  10.357  17.936  0.00  0.00    +0.000 NA
ATOM     28  N   UNL     1      -0.246   9.761  18.441  0.00  0.00    +0.000 NA
ATOM     29  C   UNL     1      -0.073  10.164  19.687  0.00  0.00    +0.000 A 
ENDBRANCH  23  29
ENDBRANCH  21  23
BRANCH  22  30
ATOM     30  C   UNL     1       2.827   8.032  18.495  0.00  0.00    +0.000 C 
BRANCH  30  31
ATOM     31  O   UNL     1       1.869   8.206  17.460  0.00  0.00    +0.000 OA
ATOM     32  H   UNL     1       2.356   8.260  16.624  0.00  0.00    +0.000 HD
ENDBRANCH  30  31
ENDBRANCH  22  30
ENDBRANCH   1  22
TORSDOF 7
ENDMDL
MODEL 8
REMARK VINA RESULT:      -7.9      3.331      4.947
REMARK  Name = 
REMARK  8 active torsions:
REMARK  status: ('A' for Active; 'I' for Inactive)
REMARK    1  A    between atoms: C_1  and  N_2
REMARK    2  A    between atoms: C_6  and  C_7
REMARK    3  A    between atoms: C_7  and  C_8
REMARK    4  A    between atoms: C_9  and  C_10
REMARK    5  A    between atoms: C_9  and  C_12
REMARK    6  A    between atoms: C_10  and  O_11
REMARK    7  A    between atoms: C_16  and  N_17
REMARK    8  A    between atoms: C_24  and  C_25
REMARK                            x       y       z     vdW  Elec       q    Type
REMARK                         _______ _______ _______ _____ _____    ______ ____
ROOT
ATOM      1  C   UNL     1       1.056   9.247  19.315  0.00  0.00    +0.000 A 
ATOM      2  C   UNL     1       0.803   8.553  20.508  0.00  0.00    +0.000 A 
ATOM      3  C   UNL     1       1.590   7.464  20.885  0.00  0.00    +0.000 A 
ATOM      4  C   UNL     1       2.562   6.981  20.022  0.00  0.00    +0.000 A 
ATOM      5  C   UNL     1       2.577   7.451  18.705  0.00  0.00    +0.000 A 
ATOM      6  C   UNL     1       1.985   8.686  18.424  0.00  0.00    +0.000 A 
ENDROOT
BRANCH   5   7
ATOM      7  N   UNL     1       2.613   6.485  17.624  0.00  0.00    +0.000 N 
ATOM      8  C   UNL     1       1.691   5.348  17.913  0.00  0.00    +0.000 C 
ATOM      9  C   UNL     1       2.600   4.351  18.557  0.00  0.00    +0.000 A 
ATOM     10  C   UNL     1       3.897   4.611  18.105  0.00  0.00    +0.000 A 
ATOM     11  C   UNL     1       5.007   3.961  18.614  0.00  0.00    +0.000 A 
ATOM     12  C   UNL     1       4.792   3.026  19.626  0.00  0.00    +0.000 A 
ATOM     13  C   UNL     1       3.491   2.767  20.101  0.00  0.00    +0.000 A 
ATOM     14  C   UNL     1       2.362   3.425  19.570  0.00  0.00    +0.000 A 
ATOM     15  C   UNL     1       3.891   5.891  17.368  0.00  0.00    +0.000 C 
ATOM     16  O   UNL     1       4.861   6.403  16.860  0.00  0.00    +0.000 OA
BRANCH  14  17
ATOM     17  C   UNL     1       1.002   3.167  20.169  0.00  0.00    +0.000 C 
ATOM     18  F   UNL     1       0.149   2.495  19.350  0.00  0.00    +0.000 F 
ATOM     19  F   UNL     1       1.078   2.422  21.307  0.00  0.00    +0.000 F 
ATOM     20  F   UNL     1       0.359   4.317  20.517  0.00  0.00    +0.000 F 
ENDBRANCH  14  17
ENDBRANCH   5   7
BRANCH   1  22
ATOM     21  C   UNL     1      -0.924  10.333  18.434  0.00  0.00    +0.000 C 
ATOM     22  C   UNL     1       0.316  10.488  18.955  0.00  0.00    +0.000 C 
BRANCH  21  23
ATOM     23  C   UNL     1      -1.834  11.356  17.823  0.00  0.00    +0.000 C 
BRANCH  23  29
ATOM     24  C   UNL     1      -4.961  11.494  17.012  0.00  0.00    +0.000 C 
ATOM     25  N   UNL     1      -4.333  11.892  18.243  0.00  0.00    +0.000 N 
ATOM     26  C   UNL     1      -5.004  12.402  19.317  0.00  0.00    +0.000 A 
ATOM     27  N   UNL     1      -4.160  12.662  20.283  0.00  0.00    +0.000 NA
ATOM     28  N   UNL     1      -2.910  12.316  19.839  0.00  0.00    +0.000 NA
ATOM     29  C   UNL     1      -3.008  11.852  18.606  0.00  0.00    +0.000 A 
ENDBRANCH  23  29
ENDBRANCH  21  23
BRANCH  22  30
ATOM     30  C   UNL     1       1.046  11.807  19.088  0.00  0.00    +0.000 C 
BRANCH  30  31
ATOM     31  O   UNL     1       1.659  12.142  17.851  0.00  0.00    +0.000 OA
ATOM     32  H   UNL     1       1.316  13.009  17.586  0.00  0.00    +0.000 HD
ENDBRANCH  30  31
ENDBRANCH  22  30
ENDBRANCH   1  22
TORSDOF 7
ENDMDL
MODEL 9
REMARK VINA RESULT:      -7.9      3.323      4.945
REMARK  Name = 
REMARK  8 active torsions:
REMARK  status: ('A' for Active; 'I' for Inactive)
REMARK    1  A    between atoms: C_1  and  N_2
REMARK    2  A    between atoms: C_6  and  C_7
REMARK    3  A    between atoms: C_7  and  C_8
REMARK    4  A    between atoms: C_9  and  C_10
REMARK    5  A    between atoms: C_9  and  C_12
REMARK    6  A    between atoms: C_10  and  O_11
REMARK    7  A    between atoms: C_16  and  N_17
REMARK    8  A    between atoms: C_24  and  C_25
REMARK                            x       y       z     vdW  Elec       q    Type
REMARK                         _______ _______ _______ _____ _____    ______ ____
ROOT
ATOM      1  C   UNL     1       1.039   9.411  19.344  0.00  0.00    +0.000 A 
ATOM      2  C   UNL     1       0.685   8.704  20.503  0.00  0.00    +0.000 A 
ATOM      3  C   UNL     1       1.395   7.569  20.895  0.00  0.00    +0.000 A 
ATOM      4  C   UNL     1       2.389   7.056  20.075  0.00  0.00    +0.000 A 
ATOM      5  C   UNL     1       2.501   7.554  18.774  0.00  0.00    +0.000 A 
ATOM      6  C   UNL     1       1.988   8.824  18.491  0.00  0.00    +0.000 A 
ENDROOT
BRANCH   5   7
ATOM      7  N   UNL     1       2.550   6.611  17.672  0.00  0.00    +0.000 N 
ATOM      8  C   UNL     1       1.657   5.448  17.944  0.00  0.00    +0.000 C 
ATOM      9  C   UNL     1       2.594   4.459  18.560  0.00  0.00    +0.000 A 
ATOM     10  C   UNL     1       3.881   4.758  18.102  0.00  0.00    +0.000 A 
ATOM     11  C   UNL     1       5.009   4.124  18.589  0.00  0.00    +0.000 A 
ATOM     12  C   UNL     1       4.825   3.163  19.583  0.00  0.00    +0.000 A 
ATOM     13  C   UNL     1       3.534   2.864  20.063  0.00  0.00    +0.000 A 
ATOM     14  C   UNL     1       2.386   3.507  19.555  0.00  0.00    +0.000 A 
ATOM     15  C   UNL     1       3.839   6.053  17.393  0.00  0.00    +0.000 C 
ATOM     16  O   UNL     1       4.793   6.598  16.888  0.00  0.00    +0.000 OA
BRANCH  14  17
ATOM     17  C   UNL     1       1.037   3.205  20.160  0.00  0.00    +0.000 C 
ATOM     18  F   UNL     1       0.344   4.307  20.554  0.00  0.00    +0.000 F 
ATOM     19  F   UNL     1       0.221   2.552  19.287  0.00  0.00    +0.000 F 
ATOM     20  F   UNL     1       1.126   2.406  21.260  0.00  0.00    +0.000 F 
ENDBRANCH  14  17
ENDBRANCH   5   7
BRANCH   1  22
ATOM     21  C   UNL     1      -0.854  10.618  18.431  0.00  0.00    +0.000 C 
ATOM     22  C   UNL     1       0.383  10.696  18.975  0.00  0.00    +0.000 C 
BRANCH  21  23
ATOM     23  C   UNL     1      -1.689  11.697  17.807  0.00  0.00    +0.000 C 
BRANCH  23  29
ATOM     24  C   UNL     1      -3.811  10.717  15.572  0.00  0.00    +0.000 C 
ATOM     25  N   UNL     1      -4.062  11.170  16.914  0.00  0.00    +0.000 N 
ATOM     26  C   UNL     1      -5.303  11.244  17.480  0.00  0.00    +0.000 A 
ATOM     27  N   UNL     1      -5.204  11.687  18.707  0.00  0.00    +0.000 NA
ATOM     28  N   UNL     1      -3.875  11.909  18.957  0.00  0.00    +0.000 NA
ATOM     29  C   UNL     1      -3.180  11.600  17.876  0.00  0.00    +0.000 A 
ENDBRANCH  23  29
ENDBRANCH  21  23
BRANCH  22  30
ATOM     30  C   UNL     1       1.190  11.967  19.125  0.00  0.00    +0.000 C 
BRANCH  30  31
ATOM     31  O   UNL     1       1.540  12.155  20.489  0.00  0.00    +0.000 OA
ATOM     32  H   UNL     1       1.099  11.458  20.997  0.00  0.00    +0.000 HD
ENDBRANCH  30  31
ENDBRANCH  22  30
ENDBRANCH   1  22
TORSDOF 7
ENDMDL
