MODEL 1
REMARK VINA RESULT:      -8.3      0.000      0.000
REMARK  Name = 
REMARK  5 active torsions:
REMARK  status: ('A' for Active; 'I' for Inactive)
REMARK    1  A    between atoms: S_2  and  N_4
REMARK    2  A    between atoms: S_2  and  C_14
REMARK    3  A    between atoms: N_4  and  C_5
REMARK    4  A    between atoms: C_19  and  O_20
REMARK    5  A    between atoms: O_20  and  C_21
REMARK                            x       y       z     vdW  Elec       q    Type
REMARK                         _______ _______ _______ _____ _____    ______ ____
ROOT
ATOM      1  O   UNL     1       1.090   4.794  17.078  0.00  0.00    +0.000 OA
ATOM      2  S   UNL     1       2.192   3.994  17.550  0.00  0.00    +0.000 S 
ATOM      3  O   UNL     1       2.424   2.668  17.007  0.00  0.00    +0.000 OA
ENDROOT
BRANCH   2   4
ATOM      4  C   UNL     1       2.158   3.807  19.296  0.00  0.00    +0.000 A 
ATOM      5  C   UNL     1       1.691   2.601  19.839  0.00  0.00    +0.000 A 
ATOM      6  C   UNL     1       1.615   2.448  21.222  0.00  0.00    +0.000 A 
ATOM      7  C   UNL     1       1.953   3.523  22.012  0.00  0.00    +0.000 A 
ATOM      8  N   UNL     1       2.398   4.691  21.513  0.00  0.00    +0.000 NA
ATOM      9  C   UNL     1       2.542   4.813  20.160  0.00  0.00    +0.000 A 
BRANCH   9  10
ATOM     10  O   UNL     1       3.111   5.989  19.686  0.00  0.00    +0.000 OA
BRANCH  10  11
ATOM     11  C   UNL     1       2.311   7.111  19.666  0.00  0.00    +0.000 A 
ATOM     12  C   UNL     1       2.186   7.919  18.528  0.00  0.00    +0.000 A 
ATOM     13  C   UNL     1       1.464   9.110  18.595  0.00  0.00    +0.000 A 
ATOM     14  C   UNL     1       0.817   9.448  19.777  0.00  0.00    +0.000 A 
ATOM     15  F   UNL     1       0.148  10.606  19.851  0.00  0.00    +0.000 F 
ATOM     16  C   UNL     1       0.859   8.606  20.884  0.00  0.00    +0.000 A 
ATOM     17  C   UNL     1       1.606   7.427  20.830  0.00  0.00    +0.000 A 
ENDBRANCH  10  11
ENDBRANCH   9  10
ENDBRANCH   2   4
BRANCH   2  18
ATOM     18  N   UNL     1       3.621   4.834  17.254  0.00  0.00    +0.000 NA
ATOM     19  H   UNL     1       3.545   5.825  17.486  0.00  0.00    +0.000 HD
BRANCH  18  20
ATOM     20  C   UNL     1       4.931   4.177  17.376  0.00  0.00    +0.000 C 
ATOM     21  C   UNL     1       5.342   3.327  18.560  0.00  0.00    +0.000 C 
ATOM     22  C   UNL     1       5.860   4.732  18.448  0.00  0.00    +0.000 C 
ATOM     23  C   UNL     1       7.232   5.149  17.999  0.00  0.00    +0.000 C 
ATOM     24  C   UNL     1       7.108   6.431  17.167  0.00  0.00    +0.000 C 
ATOM     25  C   UNL     1       6.959   5.934  15.729  0.00  0.00    +0.000 C 
ATOM     26  C   UNL     1       6.969   4.410  15.841  0.00  0.00    +0.000 C 
ATOM     27  C   UNL     1       5.562   3.815  16.034  0.00  0.00    +0.000 C 
ATOM     28  N   UNL     1       7.777   4.173  17.045  0.00  0.00    +0.000 NA
ATOM     29  H   UNL     1       8.746   4.426  16.843  0.00  0.00    +0.000 HD
ENDBRANCH  18  20
ENDBRANCH   2  18
TORSDOF 5
ENDMDL
MODEL 2
REMARK VINA RESULT:      -7.8      3.681      6.968
REMARK  Name = 
REMARK  5 active torsions:
REMARK  status: ('A' for Active; 'I' for Inactive)
REMARK    1  A    between atoms: S_2  and  N_4
REMARK    2  A    between atoms: S_2  and  C_14
REMARK    3  A    between atoms: N_4  and  C_5
REMARK    4  A    between atoms: C_19  and  O_20
REMARK    5  A    between atoms: O_20  and  C_21
REMARK                            x       y       z     vdW  Elec       q    Type
REMARK                         _______ _______ _______ _____ _____    ______ ____
ROOT
ATOM      1  O   UNL     1       5.270   3.712  19.647  0.00  0.00    +0.000 OA
ATOM      2  S   UNL     1       5.248   4.160  18.277  0.00  0.00    +0.000 S 
ATOM      3  O   UNL     1       5.490   3.226  17.193  0.00  0.00    +0.000 OA
ENDROOT
BRANCH   2   4
ATOM      4  C   UNL     1       6.347   5.505  18.017  0.00  0.00    +0.000 A 
ATOM      5  C   UNL     1       7.307   5.794  18.998  0.00  0.00    +0.000 A 
ATOM      6  C   UNL     1       8.161   6.883  18.832  0.00  0.00    +0.000 A 
ATOM      7  C   UNL     1       7.989   7.678  17.722  0.00  0.00    +0.000 A 
ATOM      8  N   UNL     1       7.072   7.422  16.770  0.00  0.00    +0.000 NA
ATOM      9  C   UNL     1       6.285   6.312  16.899  0.00  0.00    +0.000 A 
BRANCH   9  10
ATOM     10  O   UNL     1       5.429   6.016  15.846  0.00  0.00    +0.000 OA
BRANCH  10  11
ATOM     11  C   UNL     1       5.949   5.286  14.798  0.00  0.00    +0.000 A 
ATOM     12  C   UNL     1       7.257   5.477  14.332  0.00  0.00    +0.000 A 
ATOM     13  C   UNL     1       7.696   4.803  13.192  0.00  0.00    +0.000 A 
ATOM     14  C   UNL     1       6.848   3.895  12.571  0.00  0.00    +0.000 A 
ATOM     15  F   UNL     1       7.258   3.269  11.460  0.00  0.00    +0.000 F 
ATOM     16  C   UNL     1       5.581   3.629  13.081  0.00  0.00    +0.000 A 
ATOM     17  C   UNL     1       5.127   4.325  14.205  0.00  0.00    +0.000 A 
ENDBRANCH  10  11
ENDBRANCH   9  10
ENDBRANCH   2   4
BRANCH   2  18
ATOM     18  N   UNL     1       3.726   4.805  17.956  0.00  0.00    +0.000 NA
ATOM     19  H   UNL     1       3.742   5.475  17.187  0.00  0.00    +0.000 HD
BRANCH  18  20
ATOM     20  C   UNL     1       2.503   4.023  18.190  0.00  0.00    +0.000 C 
ATOM     21  C   UNL     1       1.166   4.335  17.551  0.00  0.00    +0.000 C 
ATOM     22  C   UNL     1       1.405   4.722  18.982  0.00  0.00    +0.000 C 
ATOM     23  C   UNL     1       0.895   4.007  20.201  0.00  0.00    +0.000 C 
ATOM     24  C   UNL     1       1.977   4.054  21.287  0.00  0.00    +0.000 C 
ATOM     25  C   UNL     1       2.788   2.777  21.068  0.00  0.00    +0.000 C 
ATOM     26  C   UNL     1       2.141   2.109  19.855  0.00  0.00    +0.000 C 
ATOM     27  C   UNL     1       2.768   2.557  18.521  0.00  0.00    +0.000 C 
ATOM     28  N   UNL     1       0.748   2.570  19.928  0.00  0.00    +0.000 NA
ATOM     29  H   UNL     1       0.301   2.132  20.736  0.00  0.00    +0.000 HD
ENDBRANCH  18  20
ENDBRANCH   2  18
TORSDOF 5
ENDMDL
MODEL 3
REMARK VINA RESULT:      -7.7      0.925      1.477
REMARK  Name = 
REMARK  5 active torsions:
REMARK  status: ('A' for Active; 'I' for Inactive)
REMARK    1  A    between atoms: S_2  and  N_4
REMARK    2  A    between atoms: S_2  and  C_14
REMARK    3  A    between atoms: N_4  and  C_5
REMARK    4  A    between atoms: C_19  and  O_20
REMARK    5  A    between atoms: O_20  and  C_21
REMARK                            x       y       z     vdW  Elec       q    Type
REMARK                         _______ _______ _______ _____ _____    ______ ____
ROOT
ATOM      1  O   UNL     1       2.129   4.791  17.049  0.00  0.00    +0.000 OA
ATOM      2  S   UNL     1       2.612   3.563  17.628  0.00  0.00    +0.000 S 
ATOM      3  O   UNL     1       2.171   2.281  17.109  0.00  0.00    +0.000 OA
ENDROOT
BRANCH   2   4
ATOM      4  C   UNL     1       2.332   3.509  19.361  0.00  0.00    +0.000 A 
ATOM      5  C   UNL     1       1.800   2.340  19.925  0.00  0.00    +0.000 A 
ATOM      6  C   UNL     1       1.530   2.291  21.292  0.00  0.00    +0.000 A 
ATOM      7  C   UNL     1       1.746   3.428  22.036  0.00  0.00    +0.000 A 
ATOM      8  N   UNL     1       2.251   4.562  21.515  0.00  0.00    +0.000 NA
ATOM      9  C   UNL     1       2.584   4.584  20.190  0.00  0.00    +0.000 A 
BRANCH   9  10
ATOM     10  O   UNL     1       3.207   5.729  19.711  0.00  0.00    +0.000 OA
BRANCH  10  11
ATOM     11  C   UNL     1       2.453   6.882  19.659  0.00  0.00    +0.000 A 
ATOM     12  C   UNL     1       2.377   7.673  18.505  0.00  0.00    +0.000 A 
ATOM     13  C   UNL     1       1.700   8.892  18.539  0.00  0.00    +0.000 A 
ATOM     14  C   UNL     1       1.049   9.276  19.705  0.00  0.00    +0.000 A 
ATOM     15  F   UNL     1       0.425  10.460  19.747  0.00  0.00    +0.000 F 
ATOM     16  C   UNL     1       1.041   8.454  20.827  0.00  0.00    +0.000 A 
ATOM     17  C   UNL     1       1.743   7.246  20.806  0.00  0.00    +0.000 A 
ENDBRANCH  10  11
ENDBRANCH   9  10
ENDBRANCH   2   4
BRANCH   2  18
ATOM     18  N   UNL     1       4.289   3.532  17.482  0.00  0.00    +0.000 NA
ATOM     19  H   UNL     1       4.671   2.592  17.583  0.00  0.00    +0.000 HD
BRANCH  18  20
ATOM     20  C   UNL     1       4.997   4.496  16.625  0.00  0.00    +0.000 C 
ATOM     21  C   UNL     1       5.079   4.384  15.118  0.00  0.00    +0.000 C 
ATOM     22  C   UNL     1       6.263   3.985  15.950  0.00  0.00    +0.000 C 
ATOM     23  C   UNL     1       7.514   4.787  16.172  0.00  0.00    +0.000 C 
ATOM     24  C   UNL     1       7.974   4.589  17.621  0.00  0.00    +0.000 C 
ATOM     25  C   UNL     1       7.298   5.723  18.390  0.00  0.00    +0.000 C 
ATOM     26  C   UNL     1       6.470   6.465  17.341  0.00  0.00    +0.000 C 
ATOM     27  C   UNL     1       5.042   5.908  17.202  0.00  0.00    +0.000 C 
ATOM     28  N   UNL     1       7.220   6.226  16.100  0.00  0.00    +0.000 NA
ATOM     29  H   UNL     1       8.102   6.738  16.147  0.00  0.00    +0.000 HD
ENDBRANCH  18  20
ENDBRANCH   2  18
TORSDOF 5
ENDMDL
MODEL 4
REMARK VINA RESULT:      -7.5      1.426      1.662
REMARK  Name = 
REMARK  5 active torsions:
REMARK  status: ('A' for Active; 'I' for Inactive)
REMARK    1  A    between atoms: S_2  and  N_4
REMARK    2  A    between atoms: S_2  and  C_14
REMARK    3  A    between atoms: N_4  and  C_5
REMARK    4  A    between atoms: C_19  and  O_20
REMARK    5  A    between atoms: O_20  and  C_21
REMARK                            x       y       z     vdW  Elec       q    Type
REMARK                         _______ _______ _______ _____ _____    ______ ____
ROOT
ATOM      1  O   UNL     1       3.908   4.694  16.936  0.00  0.00    +0.000 OA
ATOM      2  S   UNL     1       4.155   3.619  17.864  0.00  0.00    +0.000 S 
ATOM      3  O   UNL     1       4.381   2.268  17.381  0.00  0.00    +0.000 OA
ENDROOT
BRANCH   2   4
ATOM      4  C   UNL     1       2.886   3.500  19.072  0.00  0.00    +0.000 A 
ATOM      5  C   UNL     1       2.196   2.286  19.212  0.00  0.00    +0.000 A 
ATOM      6  C   UNL     1       1.157   2.182  20.134  0.00  0.00    +0.000 A 
ATOM      7  C   UNL     1       0.805   3.309  20.842  0.00  0.00    +0.000 A 
ATOM      8  N   UNL     1       1.449   4.484  20.721  0.00  0.00    +0.000 NA
ATOM      9  C   UNL     1       2.515   4.563  19.870  0.00  0.00    +0.000 A 
BRANCH   9  10
ATOM     10  O   UNL     1       3.227   5.756  19.853  0.00  0.00    +0.000 OA
BRANCH  10  11
ATOM     11  C   UNL     1       2.535   6.896  19.504  0.00  0.00    +0.000 A 
ATOM     12  C   UNL     1       2.480   7.362  18.183  0.00  0.00    +0.000 A 
ATOM     13  C   UNL     1       1.873   8.585  17.900  0.00  0.00    +0.000 A 
ATOM     14  C   UNL     1       1.267   9.297  18.928  0.00  0.00    +0.000 A 
ATOM     15  F   UNL     1       0.709  10.486  18.662  0.00  0.00    +0.000 F 
ATOM     16  C   UNL     1       1.235   8.798  20.227  0.00  0.00    +0.000 A 
ATOM     17  C   UNL     1       1.869   7.588  20.519  0.00  0.00    +0.000 A 
ENDBRANCH  10  11
ENDBRANCH   9  10
ENDBRANCH   2   4
BRANCH   2  18
ATOM     18  N   UNL     1       5.535   3.993  18.753  0.00  0.00    +0.000 NA
ATOM     19  H   UNL     1       5.764   3.274  19.438  0.00  0.00    +0.000 HD
BRANCH  18  20
ATOM     20  C   UNL     1       6.627   4.786  18.167  0.00  0.00    +0.000 C 
ATOM     21  C   UNL     1       7.590   5.626  18.979  0.00  0.00    +0.000 C 
ATOM     22  C   UNL     1       6.468   6.299  18.242  0.00  0.00    +0.000 C 
ATOM     23  C   UNL     1       6.570   7.052  16.946  0.00  0.00    +0.000 C 
ATOM     24  C   UNL     1       5.316   6.767  16.112  0.00  0.00    +0.000 C 
ATOM     25  C   UNL     1       5.697   5.557  15.259  0.00  0.00    +0.000 C 
ATOM     26  C   UNL     1       7.122   5.211  15.689  0.00  0.00    +0.000 C 
ATOM     27  C   UNL     1       7.167   4.212  16.860  0.00  0.00    +0.000 C 
ATOM     28  N   UNL     1       7.660   6.508  16.122  0.00  0.00    +0.000 NA
ATOM     29  H   UNL     1       7.773   7.105  15.301  0.00  0.00    +0.000 HD
ENDBRANCH  18  20
ENDBRANCH   2  18
TORSDOF 5
ENDMDL
MODEL 5
REMARK VINA RESULT:      -7.4      2.525      6.168
REMARK  Name = 
REMARK  5 active torsions:
REMARK  status: ('A' for Active; 'I' for Inactive)
REMARK    1  A    between atoms: S_2  and  N_4
REMARK    2  A    between atoms: S_2  and  C_14
REMARK    3  A    between atoms: N_4  and  C_5
REMARK    4  A    between atoms: C_19  and  O_20
REMARK    5  A    between atoms: O_20  and  C_21
REMARK                            x       y       z     vdW  Elec       q    Type
REMARK                         _______ _______ _______ _____ _____    ______ ____
ROOT
ATOM      1  O   UNL     1       4.498   2.528  17.976  0.00  0.00    +0.000 OA
ATOM      2  S   UNL     1       4.036   3.566  17.088  0.00  0.00    +0.000 S 
ATOM      3  O   UNL     1       2.806   3.397  16.337  0.00  0.00    +0.000 OA
ENDROOT
BRANCH   2   4
ATOM      4  C   UNL     1       5.266   4.013  15.917  0.00  0.00    +0.000 A 
ATOM      5  C   UNL     1       4.999   3.832  14.552  0.00  0.00    +0.000 A 
ATOM      6  C   UNL     1       5.977   4.139  13.608  0.00  0.00    +0.000 A 
ATOM      7  C   UNL     1       7.205   4.561  14.062  0.00  0.00    +0.000 A 
ATOM      8  N   UNL     1       7.486   4.738  15.367  0.00  0.00    +0.000 NA
ATOM      9  C   UNL     1       6.502   4.506  16.286  0.00  0.00    +0.000 A 
BRANCH   9  10
ATOM     10  O   UNL     1       6.788   4.806  17.612  0.00  0.00    +0.000 OA
BRANCH  10  11
ATOM     11  C   UNL     1       7.221   6.085  17.888  0.00  0.00    +0.000 A 
ATOM     12  C   UNL     1       6.823   7.190  17.125  0.00  0.00    +0.000 A 
ATOM     13  C   UNL     1       7.383   8.444  17.367  0.00  0.00    +0.000 A 
ATOM     14  C   UNL     1       8.285   8.594  18.413  0.00  0.00    +0.000 A 
ATOM     15  F   UNL     1       8.846   9.792  18.628  0.00  0.00    +0.000 F 
ATOM     16  C   UNL     1       8.617   7.522  19.236  0.00  0.00    +0.000 A 
ATOM     17  C   UNL     1       8.079   6.259  18.977  0.00  0.00    +0.000 A 
ENDBRANCH  10  11
ENDBRANCH   9  10
ENDBRANCH   2   4
BRANCH   2  18
ATOM     18  N   UNL     1       3.799   4.967  17.990  0.00  0.00    +0.000 NA
ATOM     19  H   UNL     1       4.207   5.790  17.546  0.00  0.00    +0.000 HD
BRANCH  18  20
ATOM     20  C   UNL     1       2.608   5.136  18.837  0.00  0.00    +0.000 C 
ATOM     21  C   UNL     1       2.306   6.390  19.629  0.00  0.00    +0.000 C 
ATOM     22  C   UNL     1       2.857   5.187  20.339  0.00  0.00    +0.000 C 
ATOM     23  C   UNL     1       2.086   4.212  21.182  0.00  0.00    +0.000 C 
ATOM     24  C   UNL     1       2.644   2.805  20.941  0.00  0.00    +0.000 C 
ATOM     25  C   UNL     1       1.792   2.251  19.800  0.00  0.00    +0.000 C 
ATOM     26  C   UNL     1       0.835   3.388  19.442  0.00  0.00    +0.000 C 
ATOM     27  C   UNL     1       1.402   4.329  18.363  0.00  0.00    +0.000 C 
ATOM     28  N   UNL     1       0.696   4.115  20.712  0.00  0.00    +0.000 NA
ATOM     29  H   UNL     1       0.174   3.530  21.367  0.00  0.00    +0.000 HD
ENDBRANCH  18  20
ENDBRANCH   2  18
TORSDOF 5
ENDMDL
MODEL 6
REMARK VINA RESULT:      -7.4      1.524      2.409
REMARK  Name = 
REMARK  5 active torsions:
REMARK  status: ('A' for Active; 'I' for Inactive)
REMARK    1  A    between atoms: S_2  and  N_4
REMARK    2  A    between atoms: S_2  and  C_14
REMARK    3  A    between atoms: N_4  and  C_5
REMARK    4  A    between atoms: C_19  and  O_20
REMARK    5  A    between atoms: O_20  and  C_21
REMARK                            x       y       z     vdW  Elec       q    Type
REMARK                         _______ _______ _______ _____ _____    ______ ____
ROOT
ATOM      1  O   UNL     1       5.583   3.180  19.226  0.00  0.00    +0.000 OA
ATOM      2  S   UNL     1       4.601   4.235  19.175  0.00  0.00    +0.000 S 
ATOM      3  O   UNL     1       4.929   5.569  19.644  0.00  0.00    +0.000 OA
ENDROOT
BRANCH   2   4
ATOM      4  C   UNL     1       3.117   3.780  19.995  0.00  0.00    +0.000 A 
ATOM      5  C   UNL     1       3.177   2.832  21.028  0.00  0.00    +0.000 A 
ATOM      6  C   UNL     1       2.005   2.424  21.664  0.00  0.00    +0.000 A 
ATOM      7  C   UNL     1       0.811   2.933  21.208  0.00  0.00    +0.000 A 
ATOM      8  N   UNL     1       0.729   3.839  20.216  0.00  0.00    +0.000 NA
ATOM      9  C   UNL     1       1.884   4.292  19.644  0.00  0.00    +0.000 A 
BRANCH   9  10
ATOM     10  O   UNL     1       1.771   5.309  18.704  0.00  0.00    +0.000 OA
BRANCH  10  11
ATOM     11  C   UNL     1       1.715   6.601  19.178  0.00  0.00    +0.000 A 
ATOM     12  C   UNL     1       1.491   6.892  20.530  0.00  0.00    +0.000 A 
ATOM     13  C   UNL     1       1.321   8.214  20.940  0.00  0.00    +0.000 A 
ATOM     14  C   UNL     1       1.445   9.237  20.008  0.00  0.00    +0.000 A 
ATOM     15  F   UNL     1       1.252  10.504  20.395  0.00  0.00    +0.000 F 
ATOM     16  C   UNL     1       1.759   8.964  18.680  0.00  0.00    +0.000 A 
ATOM     17  C   UNL     1       1.901   7.638  18.260  0.00  0.00    +0.000 A 
ENDBRANCH  10  11
ENDBRANCH   9  10
ENDBRANCH   2   4
BRANCH   2  18
ATOM     18  N   UNL     1       4.136   4.447  17.571  0.00  0.00    +0.000 NA
ATOM     19  H   UNL     1       3.137   4.626  17.476  0.00  0.00    +0.000 HD
BRANCH  18  20
ATOM     20  C   UNL     1       5.057   5.025  16.581  0.00  0.00    +0.000 C 
ATOM     21  C   UNL     1       5.134   4.578  15.136  0.00  0.00    +0.000 C 
ATOM     22  C   UNL     1       6.184   4.117  16.106  0.00  0.00    +0.000 C 
ATOM     23  C   UNL     1       7.581   4.653  16.236  0.00  0.00    +0.000 C 
ATOM     24  C   UNL     1       7.963   4.674  17.721  0.00  0.00    +0.000 C 
ATOM     25  C   UNL     1       7.551   6.067  18.197  0.00  0.00    +0.000 C 
ATOM     26  C   UNL     1       6.930   6.730  16.968  0.00  0.00    +0.000 C 
ATOM     27  C   UNL     1       5.415   6.484  16.856  0.00  0.00    +0.000 C 
ATOM     28  N   UNL     1       7.624   6.071  15.852  0.00  0.00    +0.000 NA
ATOM     29  H   UNL     1       8.599   6.376  15.848  0.00  0.00    +0.000 HD
ENDBRANCH  18  20
ENDBRANCH   2  18
TORSDOF 5
ENDMDL
MODEL 7
REMARK VINA RESULT:      -7.2      1.350      2.115
REMARK  Name = 
REMARK  5 active torsions:
REMARK  status: ('A' for Active; 'I' for Inactive)
REMARK    1  A    between atoms: S_2  and  N_4
REMARK    2  A    between atoms: S_2  and  C_14
REMARK    3  A    between atoms: N_4  and  C_5
REMARK    4  A    between atoms: C_19  and  O_20
REMARK    5  A    between atoms: O_20  and  C_21
REMARK                            x       y       z     vdW  Elec       q    Type
REMARK                         _______ _______ _______ _____ _____    ______ ____
ROOT
ATOM      1  O   UNL     1       3.966   2.133  17.409  0.00  0.00    +0.000 OA
ATOM      2  S   UNL     1       4.123   3.370  18.132  0.00  0.00    +0.000 S 
ATOM      3  O   UNL     1       5.371   3.674  18.808  0.00  0.00    +0.000 OA
ENDROOT
BRANCH   2   4
ATOM      4  C   UNL     1       2.855   3.588  19.328  0.00  0.00    +0.000 A 
ATOM      5  C   UNL     1       2.164   2.460  19.795  0.00  0.00    +0.000 A 
ATOM      6  C   UNL     1       1.125   2.615  20.711  0.00  0.00    +0.000 A 
ATOM      7  C   UNL     1       0.776   3.892  21.084  0.00  0.00    +0.000 A 
ATOM      8  N   UNL     1       1.421   4.989  20.646  0.00  0.00    +0.000 NA
ATOM      9  C   UNL     1       2.486   4.830  19.804  0.00  0.00    +0.000 A 
BRANCH   9  10
ATOM     10  O   UNL     1       3.200   5.971  19.462  0.00  0.00    +0.000 OA
BRANCH  10  11
ATOM     11  C   UNL     1       2.491   7.149  19.358  0.00  0.00    +0.000 A 
ATOM     12  C   UNL     1       1.900   7.765  20.470  0.00  0.00    +0.000 A 
ATOM     13  C   UNL     1       1.091   8.888  20.296  0.00  0.00    +0.000 A 
ATOM     14  C   UNL     1       0.937   9.424  19.024  0.00  0.00    +0.000 A 
ATOM     15  F   UNL     1       0.136  10.485  18.852  0.00  0.00    +0.000 F 
ATOM     16  C   UNL     1       1.595   8.875  17.928  0.00  0.00    +0.000 A 
ATOM     17  C   UNL     1       2.382   7.733  18.094  0.00  0.00    +0.000 A 
ENDBRANCH  10  11
ENDBRANCH   9  10
ENDBRANCH   2   4
BRANCH   2  18
ATOM     18  N   UNL     1       3.896   4.645  17.056  0.00  0.00    +0.000 NA
ATOM     19  H   UNL     1       3.218   5.326  17.396  0.00  0.00    +0.000 HD
BRANCH  18  20
ATOM     20  C   UNL     1       4.985   5.105  16.181  0.00  0.00    +0.000 C 
ATOM     21  C   UNL     1       5.276   4.520  14.815  0.00  0.00    +0.000 C 
ATOM     22  C   UNL     1       6.139   4.131  15.981  0.00  0.00    +0.000 C 
ATOM     23  C   UNL     1       7.516   4.647  16.289  0.00  0.00    +0.000 C 
ATOM     24  C   UNL     1       7.655   4.802  17.807  0.00  0.00    +0.000 C 
ATOM     25  C   UNL     1       7.224   6.243  18.081  0.00  0.00    +0.000 C 
ATOM     26  C   UNL     1       6.834   6.798  16.711  0.00  0.00    +0.000 C 
ATOM     27  C   UNL     1       5.348   6.575  16.377  0.00  0.00    +0.000 C 
ATOM     28  N   UNL     1       7.673   6.020  15.788  0.00  0.00    +0.000 NA
ATOM     29  H   UNL     1       8.646   6.302  15.917  0.00  0.00    +0.000 HD
ENDBRANCH  18  20
ENDBRANCH   2  18
TORSDOF 5
ENDMDL
MODEL 8
REMARK VINA RESULT:      -7.2      2.714      6.210
REMARK  Name = 
REMARK  5 active torsions:
REMARK  status: ('A' for Active; 'I' for Inactive)
REMARK    1  A    between atoms: S_2  and  N_4
REMARK    2  A    between atoms: S_2  and  C_14
REMARK    3  A    between atoms: N_4  and  C_5
REMARK    4  A    between atoms: C_19  and  O_20
REMARK    5  A    between atoms: O_20  and  C_21
REMARK                            x       y       z     vdW  Elec       q    Type
REMARK                         _______ _______ _______ _____ _____    ______ ____
ROOT
ATOM      1  O   UNL     1       5.398   3.743  18.870  0.00  0.00    +0.000 OA
ATOM      2  S   UNL     1       4.513   3.836  17.737  0.00  0.00    +0.000 S 
ATOM      3  O   UNL     1       3.653   2.721  17.381  0.00  0.00    +0.000 OA
ENDROOT
BRANCH   2   4
ATOM      4  C   UNL     1       5.377   4.273  16.272  0.00  0.00    +0.000 A 
ATOM      5  C   UNL     1       5.609   3.285  15.303  0.00  0.00    +0.000 A 
ATOM      6  C   UNL     1       6.330   3.599  14.152  0.00  0.00    +0.000 A 
ATOM      7  C   UNL     1       6.843   4.871  14.037  0.00  0.00    +0.000 A 
ATOM      8  N   UNL     1       6.637   5.833  14.956  0.00  0.00    +0.000 NA
ATOM      9  C   UNL     1       5.868   5.543  16.047  0.00  0.00    +0.000 A 
BRANCH   9  10
ATOM     10  O   UNL     1       5.582   6.587  16.917  0.00  0.00    +0.000 OA
BRANCH  10  11
ATOM     11  C   UNL     1       6.652   7.246  17.484  0.00  0.00    +0.000 A 
ATOM     12  C   UNL     1       7.542   6.609  18.360  0.00  0.00    +0.000 A 
ATOM     13  C   UNL     1       8.535   7.348  19.003  0.00  0.00    +0.000 A 
ATOM     14  C   UNL     1       8.673   8.699  18.713  0.00  0.00    +0.000 A 
ATOM     15  F   UNL     1       9.607   9.416  19.352  0.00  0.00    +0.000 F 
ATOM     16  C   UNL     1       7.853   9.320  17.775  0.00  0.00    +0.000 A 
ATOM     17  C   UNL     1       6.838   8.590  17.151  0.00  0.00    +0.000 A 
ENDBRANCH  10  11
ENDBRANCH   9  10
ENDBRANCH   2   4
BRANCH   2  18
ATOM     18  N   UNL     1       3.460   5.125  17.993  0.00  0.00    +0.000 NA
ATOM     19  H   UNL     1       3.361   5.716  17.168  0.00  0.00    +0.000 HD
BRANCH  18  20
ATOM     20  C   UNL     1       2.325   5.009  18.922  0.00  0.00    +0.000 C 
ATOM     21  C   UNL     1       1.857   6.129  19.826  0.00  0.00    +0.000 C 
ATOM     22  C   UNL     1       2.673   5.008  20.405  0.00  0.00    +0.000 C 
ATOM     23  C   UNL     1       2.162   3.852  21.216  0.00  0.00    +0.000 C 
ATOM     24  C   UNL     1       2.951   2.595  20.832  0.00  0.00    +0.000 C 
ATOM     25  C   UNL     1       2.132   1.965  19.705  0.00  0.00    +0.000 C 
ATOM     26  C   UNL     1       0.957   2.920  19.497  0.00  0.00    +0.000 C 
ATOM     27  C   UNL     1       1.257   4.020  18.462  0.00  0.00    +0.000 C 
ATOM     28  N   UNL     1       0.783   3.523  20.826  0.00  0.00    +0.000 NA
ATOM     29  H   UNL     1       0.429   2.809  21.464  0.00  0.00    +0.000 HD
ENDBRANCH  18  20
ENDBRANCH   2  18
TORSDOF 5
ENDMDL
MODEL 9
REMARK VINA RESULT:      -7.2      1.587      2.191
REMARK  Name = 
REMARK  5 active torsions:
REMARK  status: ('A' for Active; 'I' for Inactive)
REMARK    1  A    between atoms: S_2  and  N_4
REMARK    2  A    between atoms: S_2  and  C_14
REMARK    3  A    between atoms: N_4  and  C_5
REMARK    4  A    between atoms: C_19  and  O_20
REMARK    5  A    between atoms: O_20  and  C_21
REMARK                            x       y       z     vdW  Elec       q    Type
REMARK                         _______ _______ _______ _____ _____    ______ ____
ROOT
ATOM      1  O   UNL     1       4.534   2.884  17.285  0.00  0.00    +0.000 OA
ATOM      2  S   UNL     1       4.239   3.966  18.191  0.00  0.00    +0.000 S 
ATOM      3  O   UNL     1       5.197   4.352  19.211  0.00  0.00    +0.000 OA
ENDROOT
BRANCH   2   4
ATOM      4  C   UNL     1       2.713   3.717  19.023  0.00  0.00    +0.000 A 
ATOM      5  C   UNL     1       2.029   2.507  18.835  0.00  0.00    +0.000 A 
ATOM      6  C   UNL     1       0.795   2.305  19.452  0.00  0.00    +0.000 A 
ATOM      7  C   UNL     1       0.262   3.340  20.186  0.00  0.00    +0.000 A 
ATOM      8  N   UNL     1       0.898   4.511  20.376  0.00  0.00    +0.000 NA
ATOM      9  C   UNL     1       2.140   4.678  19.831  0.00  0.00    +0.000 A 
BRANCH   9  10
ATOM     10  O   UNL     1       2.815   5.852  20.140  0.00  0.00    +0.000 OA
BRANCH  10  11
ATOM     11  C   UNL     1       2.209   7.039  19.786  0.00  0.00    +0.000 A 
ATOM     12  C   UNL     1       2.241   7.532  18.475  0.00  0.00    +0.000 A 
ATOM     13  C   UNL     1       1.720   8.794  18.192  0.00  0.00    +0.000 A 
ATOM     14  C   UNL     1       1.112   9.522  19.208  0.00  0.00    +0.000 A 
ATOM     15  F   UNL     1       0.639  10.747  18.943  0.00  0.00    +0.000 F 
ATOM     16  C   UNL     1       0.993   9.001  20.493  0.00  0.00    +0.000 A 
ATOM     17  C   UNL     1       1.540   7.750  20.786  0.00  0.00    +0.000 A 
ENDBRANCH  10  11
ENDBRANCH   9  10
ENDBRANCH   2   4
BRANCH   2  18
ATOM     18  N   UNL     1       3.990   5.363  17.285  0.00  0.00    +0.000 NA
ATOM     19  H   UNL     1       3.243   5.944  17.663  0.00  0.00    +0.000 HD
BRANCH  18  20
ATOM     20  C   UNL     1       5.098   6.011  16.566  0.00  0.00    +0.000 C 
ATOM     21  C   UNL     1       5.189   6.096  15.057  0.00  0.00    +0.000 C 
ATOM     22  C   UNL     1       6.024   5.084  15.788  0.00  0.00    +0.000 C 
ATOM     23  C   UNL     1       7.490   5.185  16.097  0.00  0.00    +0.000 C 
ATOM     24  C   UNL     1       7.743   4.590  17.486  0.00  0.00    +0.000 C 
ATOM     25  C   UNL     1       7.621   5.781  18.436  0.00  0.00    +0.000 C 
ATOM     26  C   UNL     1       7.271   6.964  17.532  0.00  0.00    +0.000 C 
ATOM     27  C   UNL     1       5.753   7.146  17.348  0.00  0.00    +0.000 C 
ATOM     28  N   UNL     1       7.886   6.593  16.250  0.00  0.00    +0.000 NA
ATOM     29  H   UNL     1       8.902   6.634  16.352  0.00  0.00    +0.000 HD
ENDBRANCH  18  20
ENDBRANCH   2  18
TORSDOF 5
ENDMDL
