MODEL 1
REMARK VINA RESULT:      -9.1      0.000      0.000
REMARK  Name = 
REMARK  6 active torsions:
REMARK  status: ('A' for Active; 'I' for Inactive)
REMARK    1  A    between atoms: C_1  and  C_2
REMARK    2  A    between atoms: N_4  and  C_5
REMARK    3  A    between atoms: C_5  and  C_6
REMARK    4  A    between atoms: C_8  and  C_9
REMARK    5  A    between atoms: N_11  and  C_12
REMARK    6  A    between atoms: C_12  and  C_13
REMARK                            x       y       z     vdW  Elec       q    Type
REMARK                         _______ _______ _______ _____ _____    ______ ____
ROOT
ATOM      1  C   UNL     1       6.336   4.378  14.724  0.00  0.00    +0.000 C 
ATOM      2  C   UNL     1       5.177   5.281  15.209  0.00  0.00    +0.000 C 
ATOM      3  C   UNL     1       5.736   4.816  16.636  0.00  0.00    +0.000 C 
ATOM      4  C   UNL     1       5.743   3.413  15.881  0.00  0.00    +0.000 C 
ATOM      5  C   UNL     1       7.231   5.287  16.610  0.00  0.00    +0.000 C 
ATOM      6  C   UNL     1       8.186   4.524  17.527  0.00  0.00    +0.000 C 
ATOM      7  C   UNL     1       8.071   4.956  18.980  0.00  0.00    +0.000 C 
ATOM      8  N   UNL     1       8.139   6.397  19.191  0.00  0.00    +0.000 NA
ATOM      9  C   UNL     1       7.363   7.209  18.253  0.00  0.00    +0.000 C 
ATOM     10  C   UNL     1       7.459   6.780  16.796  0.00  0.00    +0.000 C 
ATOM     11  O   UNL     1       7.573   4.951  15.239  0.00  0.00    +0.000 OA
ATOM     12  H   UNL     1       9.112   6.698  19.172  0.00  0.00    +0.000 HD
ENDROOT
BRANCH   3  13
ATOM     13  C   UNL     1       4.731   5.326  17.705  0.00  0.00    +0.000 C 
ATOM     14  O   UNL     1       5.021   5.261  18.911  0.00  0.00    +0.000 OA
ATOM     15  N   UNL     1       3.506   5.865  17.351  0.00  0.00    +0.000 N 
ATOM     16  H   UNL     1       3.152   5.753  16.412  0.00  0.00    +0.000 HD
BRANCH  15  17
ATOM     17  C   UNL     1       2.547   6.168  18.413  0.00  0.00    +0.000 C 
BRANCH  17  18
ATOM     18  C   UNL     1       2.090   4.950  19.173  0.00  0.00    +0.000 A 
ATOM     19  C   UNL     1       2.339   4.817  20.548  0.00  0.00    +0.000 A 
ATOM     20  C   UNL     1       1.863   3.703  21.245  0.00  0.00    +0.000 A 
ATOM     21  F   UNL     1       2.115   3.592  22.555  0.00  0.00    +0.000 F 
ATOM     22  C   UNL     1       1.127   2.714  20.606  0.00  0.00    +0.000 A 
ATOM     23  C   UNL     1       0.861   2.859  19.253  0.00  0.00    +0.000 A 
ATOM     24  F   UNL     1       0.132   1.927  18.623  0.00  0.00    +0.000 F 
ATOM     25  C   UNL     1       1.326   3.962  18.534  0.00  0.00    +0.000 A 
ENDBRANCH  17  18
ENDBRANCH  15  17
ENDBRANCH   3  13
BRANCH   1  26
ATOM     26  C   UNL     1       6.253   4.371  13.209  0.00  0.00    +0.000 C 
BRANCH  26  30
ATOM     27  C   UNL     1       6.052   1.223  11.156  0.00  0.00    +0.000 C 
ATOM     28  C   UNL     1       5.558   2.508  11.765  0.00  0.00    +0.000 C 
ATOM     29  O   UNL     1       4.504   3.035  11.459  0.00  0.00    +0.000 OA
ATOM     30  N   UNL     1       6.439   3.040  12.672  0.00  0.00    +0.000 N 
ATOM     31  H   UNL     1       7.364   2.633  12.759  0.00  0.00    +0.000 HD
ENDBRANCH  26  30
ENDBRANCH   1  26
TORSDOF 5
ENDMDL
MODEL 2
REMARK VINA RESULT:      -8.7      3.410      6.010
REMARK  Name = 
REMARK  6 active torsions:
REMARK  status: ('A' for Active; 'I' for Inactive)
REMARK    1  A    between atoms: C_1  and  C_2
REMARK    2  A    between atoms: N_4  and  C_5
REMARK    3  A    between atoms: C_5  and  C_6
REMARK    4  A    between atoms: C_8  and  C_9
REMARK    5  A    between atoms: N_11  and  C_12
REMARK    6  A    between atoms: C_12  and  C_13
REMARK                            x       y       z     vdW  Elec       q    Type
REMARK                         _______ _______ _______ _____ _____    ______ ____
ROOT
ATOM      1  C   UNL     1       5.531   4.445  18.260  0.00  0.00    +0.000 C 
ATOM      2  C   UNL     1       4.920   5.851  18.469  0.00  0.00    +0.000 C 
ATOM      3  C   UNL     1       3.577   5.052  18.118  0.00  0.00    +0.000 C 
ATOM      4  C   UNL     1       4.533   4.471  16.984  0.00  0.00    +0.000 C 
ATOM      5  C   UNL     1       3.527   3.929  19.210  0.00  0.00    +0.000 C 
ATOM      6  C   UNL     1       2.731   2.677  18.842  0.00  0.00    +0.000 C 
ATOM      7  C   UNL     1       1.231   2.878  18.975  0.00  0.00    +0.000 C 
ATOM      8  N   UNL     1       0.806   3.446  20.249  0.00  0.00    +0.000 NA
ATOM      9  C   UNL     1       1.614   4.560  20.743  0.00  0.00    +0.000 C 
ATOM     10  C   UNL     1       3.119   4.378  20.605  0.00  0.00    +0.000 C 
ATOM     11  O   UNL     1       4.931   3.563  19.252  0.00  0.00    +0.000 OA
ATOM     12  H   UNL     1       0.776   2.712  20.955  0.00  0.00    +0.000 HD
ENDROOT
BRANCH   3  13
ATOM     13  C   UNL     1       2.447   6.108  17.972  0.00  0.00    +0.000 C 
ATOM     14  O   UNL     1       1.321   5.762  17.576  0.00  0.00    +0.000 OA
ATOM     15  N   UNL     1       2.655   7.442  18.278  0.00  0.00    +0.000 N 
ATOM     16  H   UNL     1       3.592   7.795  18.406  0.00  0.00    +0.000 HD
BRANCH  15  17
ATOM     17  C   UNL     1       1.600   8.402  17.957  0.00  0.00    +0.000 C 
BRANCH  17  18
ATOM     18  C   UNL     1       1.073   9.138  19.163  0.00  0.00    +0.000 A 
ATOM     19  C   UNL     1       0.211  10.236  19.023  0.00  0.00    +0.000 A 
ATOM     20  C   UNL     1      -0.307  10.873  20.153  0.00  0.00    +0.000 A 
ATOM     21  F   UNL     1      -1.124  11.922  19.998  0.00  0.00    +0.000 F 
ATOM     22  C   UNL     1       0.002  10.433  21.433  0.00  0.00    +0.000 A 
ATOM     23  C   UNL     1       0.834   9.332  21.569  0.00  0.00    +0.000 A 
ATOM     24  F   UNL     1       1.127   8.878  22.796  0.00  0.00    +0.000 F 
ATOM     25  C   UNL     1       1.365   8.680  20.456  0.00  0.00    +0.000 A 
ENDBRANCH  17  18
ENDBRANCH  15  17
ENDBRANCH   3  13
BRANCH   1  26
ATOM     26  C   UNL     1       7.030   4.614  18.421  0.00  0.00    +0.000 C 
BRANCH  26  30
ATOM     27  C   UNL     1       7.745   8.227  17.649  0.00  0.00    +0.000 C 
ATOM     28  C   UNL     1       7.598   6.757  17.361  0.00  0.00    +0.000 C 
ATOM     29  O   UNL     1       7.617   6.287  16.238  0.00  0.00    +0.000 OA
ATOM     30  N   UNL     1       7.403   6.010  18.496  0.00  0.00    +0.000 N 
ATOM     31  H   UNL     1       7.239   6.484  19.377  0.00  0.00    +0.000 HD
ENDBRANCH  26  30
ENDBRANCH   1  26
TORSDOF 5
ENDMDL
MODEL 3
REMARK VINA RESULT:      -8.7      3.426      5.916
REMARK  Name = 
REMARK  6 active torsions:
REMARK  status: ('A' for Active; 'I' for Inactive)
REMARK    1  A    between atoms: C_1  and  C_2
REMARK    2  A    between atoms: N_4  and  C_5
REMARK    3  A    between atoms: C_5  and  C_6
REMARK    4  A    between atoms: C_8  and  C_9
REMARK    5  A    between atoms: N_11  and  C_12
REMARK    6  A    between atoms: C_12  and  C_13
REMARK                            x       y       z     vdW  Elec       q    Type
REMARK                         _______ _______ _______ _____ _____    ______ ____
ROOT
ATOM      1  C   UNL     1       5.440   4.543  18.183  0.00  0.00    +0.000 C 
ATOM      2  C   UNL     1       4.872   5.961  18.431  0.00  0.00    +0.000 C 
ATOM      3  C   UNL     1       3.505   5.212  18.064  0.00  0.00    +0.000 C 
ATOM      4  C   UNL     1       4.440   4.630  16.913  0.00  0.00    +0.000 C 
ATOM      5  C   UNL     1       3.424   4.064  19.128  0.00  0.00    +0.000 C 
ATOM      6  C   UNL     1       2.589   2.847  18.732  0.00  0.00    +0.000 C 
ATOM      7  C   UNL     1       1.096   3.090  18.875  0.00  0.00    +0.000 C 
ATOM      8  N   UNL     1       0.692   3.638  20.164  0.00  0.00    +0.000 NA
ATOM      9  C   UNL     1       1.535   4.715  20.684  0.00  0.00    +0.000 C 
ATOM     10  C   UNL     1       3.033   4.490  20.535  0.00  0.00    +0.000 C 
ATOM     11  O   UNL     1       4.816   3.654  19.156  0.00  0.00    +0.000 OA
ATOM     12  H   UNL     1       0.642   2.888  20.853  0.00  0.00    +0.000 HD
ENDROOT
BRANCH   3  13
ATOM     13  C   UNL     1       2.407   6.305  17.948  0.00  0.00    +0.000 C 
ATOM     14  O   UNL     1       1.269   6.003  17.552  0.00  0.00    +0.000 OA
ATOM     15  N   UNL     1       2.658   7.625  18.282  0.00  0.00    +0.000 N 
ATOM     16  H   UNL     1       3.606   7.946  18.412  0.00  0.00    +0.000 HD
BRANCH  15  17
ATOM     17  C   UNL     1       1.631   8.624  17.990  0.00  0.00    +0.000 C 
BRANCH  17  18
ATOM     18  C   UNL     1       0.962   9.174  19.223  0.00  0.00    +0.000 A 
ATOM     19  C   UNL     1       1.349   8.757  20.506  0.00  0.00    +0.000 A 
ATOM     20  C   UNL     1       0.751   9.315  21.638  0.00  0.00    +0.000 A 
ATOM     21  F   UNL     1       1.132   8.901  22.853  0.00  0.00    +0.000 F 
ATOM     22  C   UNL     1      -0.223  10.297  21.528  0.00  0.00    +0.000 A 
ATOM     23  C   UNL     1      -0.587  10.727  20.261  0.00  0.00    +0.000 A 
ATOM     24  F   UNL     1      -1.510  11.690  20.133  0.00  0.00    +0.000 F 
ATOM     25  C   UNL     1      -0.006  10.184  19.114  0.00  0.00    +0.000 A 
ENDBRANCH  17  18
ENDBRANCH  15  17
ENDBRANCH   3  13
BRANCH   1  26
ATOM     26  C   UNL     1       6.944   4.662  18.343  0.00  0.00    +0.000 C 
BRANCH  26  30
ATOM     27  C   UNL     1       7.787   8.267  17.671  0.00  0.00    +0.000 C 
ATOM     28  C   UNL     1       7.600   6.809  17.346  0.00  0.00    +0.000 C 
ATOM     29  O   UNL     1       7.626   6.365  16.213  0.00  0.00    +0.000 OA
ATOM     30  N   UNL     1       7.359   6.043  18.458  0.00  0.00    +0.000 N 
ATOM     31  H   UNL     1       7.192   6.502  19.347  0.00  0.00    +0.000 HD
ENDBRANCH  26  30
ENDBRANCH   1  26
TORSDOF 5
ENDMDL
MODEL 4
REMARK VINA RESULT:      -8.7      3.950      6.398
REMARK  Name = 
REMARK  6 active torsions:
REMARK  status: ('A' for Active; 'I' for Inactive)
REMARK    1  A    between atoms: C_1  and  C_2
REMARK    2  A    between atoms: N_4  and  C_5
REMARK    3  A    between atoms: C_5  and  C_6
REMARK    4  A    between atoms: C_8  and  C_9
REMARK    5  A    between atoms: N_11  and  C_12
REMARK    6  A    between atoms: C_12  and  C_13
REMARK                            x       y       z     vdW  Elec       q    Type
REMARK                         _______ _______ _______ _____ _____    ______ ____
ROOT
ATOM      1  C   UNL     1       5.397   4.784  18.094  0.00  0.00    +0.000 C 
ATOM      2  C   UNL     1       5.115   5.153  19.570  0.00  0.00    +0.000 C 
ATOM      3  C   UNL     1       3.606   5.120  19.035  0.00  0.00    +0.000 C 
ATOM      4  C   UNL     1       4.287   5.937  17.849  0.00  0.00    +0.000 C 
ATOM      5  C   UNL     1       3.452   3.663  18.476  0.00  0.00    +0.000 C 
ATOM      6  C   UNL     1       2.380   3.472  17.404  0.00  0.00    +0.000 C 
ATOM      7  C   UNL     1       0.977   3.401  17.985  0.00  0.00    +0.000 C 
ATOM      8  N   UNL     1       0.826   2.461  19.090  0.00  0.00    +0.000 NA
ATOM      9  C   UNL     1       1.896   2.482  20.087  0.00  0.00    +0.000 C 
ATOM     10  C   UNL     1       3.306   2.565  19.519  0.00  0.00    +0.000 C 
ATOM     11  O   UNL     1       4.747   3.505  17.839  0.00  0.00    +0.000 OA
ATOM     12  H   UNL     1       0.727   1.516  18.721  0.00  0.00    +0.000 HD
ENDROOT
BRANCH   3  13
ATOM     13  C   UNL     1       2.707   5.661  20.181  0.00  0.00    +0.000 C 
ATOM     14  O   UNL     1       2.491   4.960  21.184  0.00  0.00    +0.000 OA
ATOM     15  N   UNL     1       2.133   6.919  20.121  0.00  0.00    +0.000 N 
ATOM     16  H   UNL     1       2.117   7.431  19.252  0.00  0.00    +0.000 HD
BRANCH  15  17
ATOM     17  C   UNL     1       1.167   7.293  21.154  0.00  0.00    +0.000 C 
BRANCH  17  18
ATOM     18  C   UNL     1       0.764   8.744  21.101  0.00  0.00    +0.000 A 
ATOM     19  C   UNL     1       0.899   9.491  19.921  0.00  0.00    +0.000 A 
ATOM     20  C   UNL     1       0.472  10.821  19.877  0.00  0.00    +0.000 A 
ATOM     21  F   UNL     1       0.613  11.518  18.744  0.00  0.00    +0.000 F 
ATOM     22  C   UNL     1      -0.102  11.429  20.985  0.00  0.00    +0.000 A 
ATOM     23  C   UNL     1      -0.258  10.682  22.142  0.00  0.00    +0.000 A 
ATOM     24  F   UNL     1      -0.831  11.244  23.216  0.00  0.00    +0.000 F 
ATOM     25  C   UNL     1       0.161   9.353  22.212  0.00  0.00    +0.000 A 
ENDBRANCH  17  18
ENDBRANCH  15  17
ENDBRANCH   3  13
BRANCH   1  26
ATOM     26  C   UNL     1       6.907   4.737  17.957  0.00  0.00    +0.000 C 
BRANCH  26  30
ATOM     27  C   UNL     1       8.174   8.271  18.225  0.00  0.00    +0.000 C 
ATOM     28  C   UNL     1       7.755   7.003  17.528  0.00  0.00    +0.000 C 
ATOM     29  O   UNL     1       7.607   6.916  16.323  0.00  0.00    +0.000 OA
ATOM     30  N   UNL     1       7.520   5.970  18.401  0.00  0.00    +0.000 N 
ATOM     31  H   UNL     1       7.507   6.159  19.397  0.00  0.00    +0.000 HD
ENDBRANCH  26  30
ENDBRANCH   1  26
TORSDOF 5
ENDMDL
MODEL 5
REMARK VINA RESULT:      -8.7      3.899      6.187
REMARK  Name = 
REMARK  6 active torsions:
REMARK  status: ('A' for Active; 'I' for Inactive)
REMARK    1  A    between atoms: C_1  and  C_2
REMARK    2  A    between atoms: N_4  and  C_5
REMARK    3  A    between atoms: C_5  and  C_6
REMARK    4  A    between atoms: C_8  and  C_9
REMARK    5  A    between atoms: N_11  and  C_12
REMARK    6  A    between atoms: C_12  and  C_13
REMARK                            x       y       z     vdW  Elec       q    Type
REMARK                         _______ _______ _______ _____ _____    ______ ____
ROOT
ATOM      1  C   UNL     1       5.873   4.710  18.341  0.00  0.00    +0.000 C 
ATOM      2  C   UNL     1       5.127   5.442  19.482  0.00  0.00    +0.000 C 
ATOM      3  C   UNL     1       3.861   4.829  18.717  0.00  0.00    +0.000 C 
ATOM      4  C   UNL     1       4.683   5.375  17.468  0.00  0.00    +0.000 C 
ATOM      5  C   UNL     1       4.140   3.286  18.733  0.00  0.00    +0.000 C 
ATOM      6  C   UNL     1       3.464   2.477  17.626  0.00  0.00    +0.000 C 
ATOM      7  C   UNL     1       1.993   2.217  17.907  0.00  0.00    +0.000 C 
ATOM      8  N   UNL     1       1.715   1.677  19.233  0.00  0.00    +0.000 NA
ATOM      9  C   UNL     1       2.442   2.307  20.335  0.00  0.00    +0.000 C 
ATOM     10  C   UNL     1       3.914   2.585  20.063  0.00  0.00    +0.000 C 
ATOM     11  O   UNL     1       5.567   3.291  18.467  0.00  0.00    +0.000 OA
ATOM     12  H   UNL     1       1.899   0.675  19.238  0.00  0.00    +0.000 HD
ENDROOT
BRANCH   3  13
ATOM     13  C   UNL     1       2.594   5.442  19.376  0.00  0.00    +0.000 C 
ATOM     14  O   UNL     1       1.465   5.074  19.012  0.00  0.00    +0.000 OA
ATOM     15  N   UNL     1       2.684   6.397  20.374  0.00  0.00    +0.000 N 
ATOM     16  H   UNL     1       3.561   6.864  20.554  0.00  0.00    +0.000 HD
BRANCH  15  17
ATOM     17  C   UNL     1       1.456   7.048  20.826  0.00  0.00    +0.000 C 
BRANCH  17  18
ATOM     18  C   UNL     1       1.337   8.482  20.378  0.00  0.00    +0.000 A 
ATOM     19  C   UNL     1       1.707   8.869  19.081  0.00  0.00    +0.000 A 
ATOM     20  C   UNL     1       1.543  10.193  18.667  0.00  0.00    +0.000 A 
ATOM     21  F   UNL     1       1.906  10.544  17.428  0.00  0.00    +0.000 F 
ATOM     22  C   UNL     1       1.002  11.151  19.515  0.00  0.00    +0.000 A 
ATOM     23  C   UNL     1       0.614  10.761  20.788  0.00  0.00    +0.000 A 
ATOM     24  F   UNL     1       0.068  11.665  21.614  0.00  0.00    +0.000 F 
ATOM     25  C   UNL     1       0.769   9.445  21.225  0.00  0.00    +0.000 A 
ENDBRANCH  17  18
ENDBRANCH  15  17
ENDBRANCH   3  13
BRANCH   1  26
ATOM     26  C   UNL     1       7.343   5.035  18.528  0.00  0.00    +0.000 C 
BRANCH  26  30
ATOM     27  C   UNL     1       7.679   8.697  17.729  0.00  0.00    +0.000 C 
ATOM     28  C   UNL     1       7.688   7.217  17.452  0.00  0.00    +0.000 C 
ATOM     29  O   UNL     1       7.759   6.743  16.333  0.00  0.00    +0.000 OA
ATOM     30  N   UNL     1       7.568   6.463  18.592  0.00  0.00    +0.000 N 
ATOM     31  H   UNL     1       7.353   6.924  19.469  0.00  0.00    +0.000 HD
ENDBRANCH  26  30
ENDBRANCH   1  26
TORSDOF 5
ENDMDL
MODEL 6
REMARK VINA RESULT:      -8.6      3.891      6.026
REMARK  Name = 
REMARK  6 active torsions:
REMARK  status: ('A' for Active; 'I' for Inactive)
REMARK    1  A    between atoms: C_1  and  C_2
REMARK    2  A    between atoms: N_4  and  C_5
REMARK    3  A    between atoms: C_5  and  C_6
REMARK    4  A    between atoms: C_8  and  C_9
REMARK    5  A    between atoms: N_11  and  C_12
REMARK    6  A    between atoms: C_12  and  C_13
REMARK                            x       y       z     vdW  Elec       q    Type
REMARK                         _______ _______ _______ _____ _____    ______ ____
ROOT
ATOM      1  C   UNL     1       5.945   4.765  18.324  0.00  0.00    +0.000 C 
ATOM      2  C   UNL     1       5.185   5.479  19.466  0.00  0.00    +0.000 C 
ATOM      3  C   UNL     1       3.928   4.867  18.685  0.00  0.00    +0.000 C 
ATOM      4  C   UNL     1       4.757   5.432  17.448  0.00  0.00    +0.000 C 
ATOM      5  C   UNL     1       4.217   3.325  18.686  0.00  0.00    +0.000 C 
ATOM      6  C   UNL     1       3.556   2.524  17.566  0.00  0.00    +0.000 C 
ATOM      7  C   UNL     1       2.085   2.251  17.831  0.00  0.00    +0.000 C 
ATOM      8  N   UNL     1       1.799   1.696  19.149  0.00  0.00    +0.000 NA
ATOM      9  C   UNL     1       2.513   2.318  20.264  0.00  0.00    +0.000 C 
ATOM     10  C   UNL     1       3.985   2.608  20.007  0.00  0.00    +0.000 C 
ATOM     11  O   UNL     1       5.647   3.342  18.432  0.00  0.00    +0.000 OA
ATOM     12  H   UNL     1       1.990   0.694  19.145  0.00  0.00    +0.000 HD
ENDROOT
BRANCH   3  13
ATOM     13  C   UNL     1       2.652   5.464  19.340  0.00  0.00    +0.000 C 
ATOM     14  O   UNL     1       1.528   5.118  18.939  0.00  0.00    +0.000 OA
ATOM     15  N   UNL     1       2.728   6.381  20.374  0.00  0.00    +0.000 N 
ATOM     16  H   UNL     1       3.604   6.834  20.590  0.00  0.00    +0.000 HD
BRANCH  15  17
ATOM     17  C   UNL     1       1.494   7.024  20.825  0.00  0.00    +0.000 C 
BRANCH  17  18
ATOM     18  C   UNL     1       1.329   8.431  20.309  0.00  0.00    +0.000 A 
ATOM     19  C   UNL     1       0.846   9.455  21.138  0.00  0.00    +0.000 A 
ATOM     20  C   UNL     1       0.747  10.762  20.656  0.00  0.00    +0.000 A 
ATOM     21  F   UNL     1       0.281  11.725  21.461  0.00  0.00    +0.000 F 
ATOM     22  C   UNL     1       1.131  11.084  19.362  0.00  0.00    +0.000 A 
ATOM     23  C   UNL     1       1.630  10.076  18.552  0.00  0.00    +0.000 A 
ATOM     24  F   UNL     1       2.028  10.369  17.306  0.00  0.00    +0.000 F 
ATOM     25  C   UNL     1       1.738   8.761  19.009  0.00  0.00    +0.000 A 
ENDBRANCH  17  18
ENDBRANCH  15  17
ENDBRANCH   3  13
BRANCH   1  26
ATOM     26  C   UNL     1       7.411   5.097  18.526  0.00  0.00    +0.000 C 
BRANCH  26  30
ATOM     27  C   UNL     1       7.725   8.766  17.747  0.00  0.00    +0.000 C 
ATOM     28  C   UNL     1       7.744   7.287  17.463  0.00  0.00    +0.000 C 
ATOM     29  O   UNL     1       7.819   6.819  16.341  0.00  0.00    +0.000 OA
ATOM     30  N   UNL     1       7.627   6.526  18.598  0.00  0.00    +0.000 N 
ATOM     31  H   UNL     1       7.408   6.982  19.477  0.00  0.00    +0.000 HD
ENDBRANCH  26  30
ENDBRANCH   1  26
TORSDOF 5
ENDMDL
MODEL 7
REMARK VINA RESULT:      -8.6      3.899      6.238
REMARK  Name = 
REMARK  6 active torsions:
REMARK  status: ('A' for Active; 'I' for Inactive)
REMARK    1  A    between atoms: C_1  and  C_2
REMARK    2  A    between atoms: N_4  and  C_5
REMARK    3  A    between atoms: C_5  and  C_6
REMARK    4  A    between atoms: C_8  and  C_9
REMARK    5  A    between atoms: N_11  and  C_12
REMARK    6  A    between atoms: C_12  and  C_13
REMARK                            x       y       z     vdW  Elec       q    Type
REMARK                         _______ _______ _______ _____ _____    ______ ____
ROOT
ATOM      1  C   UNL     1       5.173   5.374  17.441  0.00  0.00    +0.000 C 
ATOM      2  C   UNL     1       5.059   5.805  18.922  0.00  0.00    +0.000 C 
ATOM      3  C   UNL     1       3.542   5.349  18.684  0.00  0.00    +0.000 C 
ATOM      4  C   UNL     1       3.777   6.188  17.351  0.00  0.00    +0.000 C 
ATOM      5  C   UNL     1       3.680   3.851  18.240  0.00  0.00    +0.000 C 
ATOM      6  C   UNL     1       2.529   3.297  17.401  0.00  0.00    +0.000 C 
ATOM      7  C   UNL     1       1.313   2.941  18.239  0.00  0.00    +0.000 C 
ATOM      8  N   UNL     1       1.601   2.105  19.400  0.00  0.00    +0.000 NA
ATOM      9  C   UNL     1       2.782   2.487  20.174  0.00  0.00    +0.000 C 
ATOM     10  C   UNL     1       4.004   2.859  19.347  0.00  0.00    +0.000 C 
ATOM     11  O   UNL     1       4.845   3.956  17.379  0.00  0.00    +0.000 OA
ATOM     12  H   UNL     1       1.691   1.134  19.105  0.00  0.00    +0.000 HD
ENDROOT
BRANCH   3  13
ATOM     13  C   UNL     1       2.741   5.761  19.950  0.00  0.00    +0.000 C 
ATOM     14  O   UNL     1       2.585   4.949  20.878  0.00  0.00    +0.000 OA
ATOM     15  N   UNL     1       2.190   7.025  20.081  0.00  0.00    +0.000 N 
ATOM     16  H   UNL     1       2.121   7.635  19.281  0.00  0.00    +0.000 HD
BRANCH  15  17
ATOM     17  C   UNL     1       1.311   7.284  21.221  0.00  0.00    +0.000 C 
BRANCH  17  18
ATOM     18  C   UNL     1       0.707   8.665  21.208  0.00  0.00    +0.000 A 
ATOM     19  C   UNL     1       0.082   9.193  22.349  0.00  0.00    +0.000 A 
ATOM     20  C   UNL     1      -0.427  10.494  22.333  0.00  0.00    +0.000 A 
ATOM     21  F   UNL     1      -1.023  10.978  23.429  0.00  0.00    +0.000 F 
ATOM     22  C   UNL     1      -0.320  11.296  21.205  0.00  0.00    +0.000 A 
ATOM     23  C   UNL     1       0.319  10.782  20.088  0.00  0.00    +0.000 A 
ATOM     24  F   UNL     1       0.454  11.547  18.996  0.00  0.00    +0.000 F 
ATOM     25  C   UNL     1       0.836   9.485  20.078  0.00  0.00    +0.000 A 
ENDBRANCH  17  18
ENDBRANCH  15  17
ENDBRANCH   3  13
BRANCH   1  26
ATOM     26  C   UNL     1       6.598   5.688  17.024  0.00  0.00    +0.000 C 
BRANCH  26  30
ATOM     27  C   UNL     1       8.107   9.065  17.717  0.00  0.00    +0.000 C 
ATOM     28  C   UNL     1       7.802   7.612  17.965  0.00  0.00    +0.000 C 
ATOM     29  O   UNL     1       8.349   6.948  18.827  0.00  0.00    +0.000 OA
ATOM     30  N   UNL     1       6.872   7.107  17.092  0.00  0.00    +0.000 N 
ATOM     31  H   UNL     1       6.579   7.671  16.302  0.00  0.00    +0.000 HD
ENDBRANCH  26  30
ENDBRANCH   1  26
TORSDOF 5
ENDMDL
MODEL 8
REMARK VINA RESULT:      -8.6      4.047      6.494
REMARK  Name = 
REMARK  6 active torsions:
REMARK  status: ('A' for Active; 'I' for Inactive)
REMARK    1  A    between atoms: C_1  and  C_2
REMARK    2  A    between atoms: N_4  and  C_5
REMARK    3  A    between atoms: C_5  and  C_6
REMARK    4  A    between atoms: C_8  and  C_9
REMARK    5  A    between atoms: N_11  and  C_12
REMARK    6  A    between atoms: C_12  and  C_13
REMARK                            x       y       z     vdW  Elec       q    Type
REMARK                         _______ _______ _______ _____ _____    ______ ____
ROOT
ATOM      1  C   UNL     1       4.781   4.543  18.235  0.00  0.00    +0.000 C 
ATOM      2  C   UNL     1       4.502   5.482  19.433  0.00  0.00    +0.000 C 
ATOM      3  C   UNL     1       3.000   5.013  19.137  0.00  0.00    +0.000 C 
ATOM      4  C   UNL     1       3.481   5.309  17.648  0.00  0.00    +0.000 C 
ATOM      5  C   UNL     1       3.073   3.453  19.276  0.00  0.00    +0.000 C 
ATOM      6  C   UNL     1       2.005   2.667  18.517  0.00  0.00    +0.000 C 
ATOM      7  C   UNL     1       0.662   2.670  19.227  0.00  0.00    +0.000 C 
ATOM      8  N   UNL     1       0.720   2.301  20.637  0.00  0.00    +0.000 NA
ATOM      9  C   UNL     1       1.812   2.903  21.402  0.00  0.00    +0.000 C 
ATOM     10  C   UNL     1       3.162   2.918  20.697  0.00  0.00    +0.000 C 
ATOM     11  O   UNL     1       4.348   3.207  18.626  0.00  0.00    +0.000 OA
ATOM     12  H   UNL     1       0.769   1.287  20.721  0.00  0.00    +0.000 HD
ENDROOT
BRANCH   3  13
ATOM     13  C   UNL     1       2.071   5.876  20.036  0.00  0.00    +0.000 C 
ATOM     14  O   UNL     1       1.054   5.373  20.542  0.00  0.00    +0.000 OA
ATOM     15  N   UNL     1       2.347   7.207  20.299  0.00  0.00    +0.000 N 
ATOM     16  H   UNL     1       3.038   7.701  19.755  0.00  0.00    +0.000 HD
BRANCH  15  17
ATOM     17  C   UNL     1       1.344   7.997  21.011  0.00  0.00    +0.000 C 
BRANCH  17  18
ATOM     18  C   UNL     1       0.941   9.253  20.282  0.00  0.00    +0.000 A 
ATOM     19  C   UNL     1       1.778   9.830  19.314  0.00  0.00    +0.000 A 
ATOM     20  C   UNL     1       1.366  10.965  18.613  0.00  0.00    +0.000 A 
ATOM     21  F   UNL     1       2.181  11.503  17.697  0.00  0.00    +0.000 F 
ATOM     22  C   UNL     1       0.124  11.542  18.843  0.00  0.00    +0.000 A 
ATOM     23  C   UNL     1      -0.711  10.957  19.782  0.00  0.00    +0.000 A 
ATOM     24  F   UNL     1      -1.923  11.485  20.003  0.00  0.00    +0.000 F 
ATOM     25  C   UNL     1      -0.322   9.823  20.496  0.00  0.00    +0.000 A 
ENDBRANCH  17  18
ENDBRANCH  15  17
ENDBRANCH   3  13
BRANCH   1  26
ATOM     26  C   UNL     1       6.270   4.646  17.962  0.00  0.00    +0.000 C 
BRANCH  26  30
ATOM     27  C   UNL     1       7.600   8.149  17.614  0.00  0.00    +0.000 C 
ATOM     28  C   UNL     1       7.373   6.713  17.223  0.00  0.00    +0.000 C 
ATOM     29  O   UNL     1       7.666   6.259  16.132  0.00  0.00    +0.000 OA
ATOM     30  N   UNL     1       6.765   5.981  18.212  0.00  0.00    +0.000 N 
ATOM     31  H   UNL     1       6.406   6.461  19.030  0.00  0.00    +0.000 HD
ENDBRANCH  26  30
ENDBRANCH   1  26
TORSDOF 5
ENDMDL
MODEL 9
REMARK VINA RESULT:      -8.5      4.052      6.609
REMARK  Name = 
REMARK  6 active torsions:
REMARK  status: ('A' for Active; 'I' for Inactive)
REMARK    1  A    between atoms: C_1  and  C_2
REMARK    2  A    between atoms: N_4  and  C_5
REMARK    3  A    between atoms: C_5  and  C_6
REMARK    4  A    between atoms: C_8  and  C_9
REMARK    5  A    between atoms: N_11  and  C_12
REMARK    6  A    between atoms: C_12  and  C_13
REMARK                            x       y       z     vdW  Elec       q    Type
REMARK                         _______ _______ _______ _____ _____    ______ ____
ROOT
ATOM      1  C   UNL     1       4.841   4.664  18.153  0.00  0.00    +0.000 C 
ATOM      2  C   UNL     1       4.634   5.546  19.406  0.00  0.00    +0.000 C 
ATOM      3  C   UNL     1       3.098   5.273  19.047  0.00  0.00    +0.000 C 
ATOM      4  C   UNL     1       3.653   5.610  17.592  0.00  0.00    +0.000 C 
ATOM      5  C   UNL     1       2.992   3.709  19.078  0.00  0.00    +0.000 C 
ATOM      6  C   UNL     1       1.865   3.101  18.243  0.00  0.00    +0.000 C 
ATOM      7  C   UNL     1       0.510   3.211  18.922  0.00  0.00    +0.000 C 
ATOM      8  N   UNL     1       0.485   2.744  20.304  0.00  0.00    +0.000 NA
ATOM      9  C   UNL     1       1.615   3.165  21.132  0.00  0.00    +0.000 C 
ATOM     10  C   UNL     1       2.978   3.072  20.459  0.00  0.00    +0.000 C 
ATOM     11  O   UNL     1       4.249   3.363  18.440  0.00  0.00    +0.000 OA
ATOM     12  H   UNL     1       0.417   1.727  20.318  0.00  0.00    +0.000 HD
ENDROOT
BRANCH   3  13
ATOM     13  C   UNL     1       2.246   6.173  19.983  0.00  0.00    +0.000 C 
ATOM     14  O   UNL     1       1.624   5.669  20.933  0.00  0.00    +0.000 OA
ATOM     15  N   UNL     1       2.160   7.542  19.792  0.00  0.00    +0.000 N 
ATOM     16  H   UNL     1       2.479   7.957  18.930  0.00  0.00    +0.000 HD
BRANCH  15  17
ATOM     17  C   UNL     1       1.210   8.299  20.607  0.00  0.00    +0.000 C 
BRANCH  17  18
ATOM     18  C   UNL     1       0.730   9.565  19.947  0.00  0.00    +0.000 A 
ATOM     19  C   UNL     1      -0.602   9.989  20.072  0.00  0.00    +0.000 A 
ATOM     20  C   UNL     1      -1.016  11.192  19.494  0.00  0.00    +0.000 A 
ATOM     21  F   UNL     1      -2.292  11.576  19.620  0.00  0.00    +0.000 F 
ATOM     22  C   UNL     1      -0.126  12.000  18.798  0.00  0.00    +0.000 A 
ATOM     23  C   UNL     1       1.195  11.592  18.697  0.00  0.00    +0.000 A 
ATOM     24  F   UNL     1       2.075  12.369  18.049  0.00  0.00    +0.000 F 
ATOM     25  C   UNL     1       1.633  10.395  19.264  0.00  0.00    +0.000 A 
ENDBRANCH  17  18
ENDBRANCH  15  17
ENDBRANCH   3  13
BRANCH   1  26
ATOM     26  C   UNL     1       6.339   4.614  17.919  0.00  0.00    +0.000 C 
BRANCH  26  30
ATOM     27  C   UNL     1       7.830   8.057  17.631  0.00  0.00    +0.000 C 
ATOM     28  C   UNL     1       7.441   6.678  17.169  0.00  0.00    +0.000 C 
ATOM     29  O   UNL     1       7.512   6.312  16.010  0.00  0.00    +0.000 OA
ATOM     30  N   UNL     1       6.962   5.892  18.187  0.00  0.00    +0.000 N 
ATOM     31  H   UNL     1       6.781   6.312  19.092  0.00  0.00    +0.000 HD
ENDBRANCH  26  30
ENDBRANCH   1  26
TORSDOF 5
ENDMDL
