MODEL 1
REMARK VINA RESULT:      -8.6      0.000      0.000
REMARK  Name = 
REMARK  5 active torsions:
REMARK  status: ('A' for Active; 'I' for Inactive)
REMARK    1  A    between atoms: C_1  and  N_2
REMARK    2  A    between atoms: C_6  and  C_7
REMARK    3  A    between atoms: C_7  and  C_8
REMARK    4  A    between atoms: C_8  and  C_9
REMARK    5  A    between atoms: C_13  and  N_14
REMARK                            x       y       z     vdW  Elec       q    Type
REMARK                         _______ _______ _______ _____ _____    ______ ____
ROOT
ATOM      1  C   UNL     1       7.883   7.784  17.820  0.00  0.00    +0.000 A 
ATOM      2  C   UNL     1       8.039   6.967  18.949  0.00  0.00    +0.000 A 
ATOM      3  C   UNL     1       7.876   5.587  18.855  0.00  0.00    +0.000 A 
ATOM      4  C   UNL     1       7.455   5.021  17.662  0.00  0.00    +0.000 A 
ATOM      5  C   UNL     1       7.037   5.857  16.613  0.00  0.00    +0.000 A 
ATOM      6  C   UNL     1       7.407   7.207  16.633  0.00  0.00    +0.000 A 
ENDROOT
BRANCH   5   7
ATOM      7  N   UNL     1       5.858   5.490  15.831  0.00  0.00    +0.000 N 
ATOM      8  C   UNL     1       4.716   6.369  16.197  0.00  0.00    +0.000 C 
ATOM      9  C   UNL     1       4.104   5.606  17.320  0.00  0.00    +0.000 A 
ATOM     10  C   UNL     1       3.643   6.053  18.536  0.00  0.00    +0.000 A 
ATOM     11  F   UNL     1       3.534   7.365  18.776  0.00  0.00    +0.000 F 
ATOM     12  C   UNL     1       3.437   5.136  19.562  0.00  0.00    +0.000 A 
ATOM     13  C   UNL     1       3.680   3.773  19.338  0.00  0.00    +0.000 A 
ATOM     14  F   UNL     1       3.557   2.916  20.359  0.00  0.00    +0.000 F 
ATOM     15  C   UNL     1       4.151   3.303  18.114  0.00  0.00    +0.000 A 
ATOM     16  C   UNL     1       4.374   4.254  17.134  0.00  0.00    +0.000 A 
ATOM     17  C   UNL     1       5.376   4.169  16.050  0.00  0.00    +0.000 C 
ATOM     18  O   UNL     1       5.828   3.122  15.633  0.00  0.00    +0.000 OA
ENDBRANCH   5   7
BRANCH   1  19
ATOM     19  C   UNL     1       8.213   9.254  17.914  0.00  0.00    +0.000 C 
BRANCH  19  20
ATOM     20  C   UNL     1       9.026   9.653  19.150  0.00  0.00    +0.000 C 
BRANCH  20  26
ATOM     21  C   UNL     1       9.513  11.914  21.256  0.00  0.00    +0.000 C 
ATOM     22  N   UNL     1       9.921  11.923  19.877  0.00  0.00    +0.000 N 
ATOM     23  C   UNL     1      10.590  12.936  19.257  0.00  0.00    +0.000 A 
ATOM     24  N   UNL     1      10.794  12.607  17.997  0.00  0.00    +0.000 NA
ATOM     25  N   UNL     1      10.253  11.362  17.795  0.00  0.00    +0.000 NA
ATOM     26  C   UNL     1       9.726  10.949  18.933  0.00  0.00    +0.000 A 
ENDBRANCH  20  26
ENDBRANCH  19  20
ENDBRANCH   1  19
TORSDOF 4
ENDMDL
MODEL 2
REMARK VINA RESULT:      -8.5      1.102      1.351
REMARK  Name = 
REMARK  5 active torsions:
REMARK  status: ('A' for Active; 'I' for Inactive)
REMARK    1  A    between atoms: C_1  and  N_2
REMARK    2  A    between atoms: C_6  and  C_7
REMARK    3  A    between atoms: C_7  and  C_8
REMARK    4  A    between atoms: C_8  and  C_9
REMARK    5  A    between atoms: C_13  and  N_14
REMARK                            x       y       z     vdW  Elec       q    Type
REMARK                         _______ _______ _______ _____ _____    ______ ____
ROOT
ATOM      1  C   UNL     1       8.079   7.350  18.343  0.00  0.00    +0.000 A 
ATOM      2  C   UNL     1       8.176   6.227  19.177  0.00  0.00    +0.000 A 
ATOM      3  C   UNL     1       7.822   4.963  18.712  0.00  0.00    +0.000 A 
ATOM      4  C   UNL     1       7.271   4.823  17.447  0.00  0.00    +0.000 A 
ATOM      5  C   UNL     1       6.923   5.971  16.716  0.00  0.00    +0.000 A 
ATOM      6  C   UNL     1       7.475   7.203  17.086  0.00  0.00    +0.000 A 
ENDROOT
BRANCH   5   7
ATOM      7  N   UNL     1       5.669   5.988  15.965  0.00  0.00    +0.000 N 
ATOM      8  C   UNL     1       4.602   6.628  16.778  0.00  0.00    +0.000 C 
ATOM      9  C   UNL     1       4.047   5.456  17.512  0.00  0.00    +0.000 A 
ATOM     10  C   UNL     1       3.706   5.333  18.839  0.00  0.00    +0.000 A 
ATOM     11  F   UNL     1       3.677   6.410  19.631  0.00  0.00    +0.000 F 
ATOM     12  C   UNL     1       3.541   4.062  19.381  0.00  0.00    +0.000 A 
ATOM     13  C   UNL     1       3.703   2.931  18.568  0.00  0.00    +0.000 A 
ATOM     14  F   UNL     1       3.623   1.715  19.124  0.00  0.00    +0.000 F 
ATOM     15  C   UNL     1       4.052   3.037  17.224  0.00  0.00    +0.000 A 
ATOM     16  C   UNL     1       4.239   4.318  16.735  0.00  0.00    +0.000 A 
ATOM     17  C   UNL     1       5.146   4.706  15.634  0.00  0.00    +0.000 C 
ATOM     18  O   UNL     1       5.515   3.942  14.765  0.00  0.00    +0.000 OA
ENDBRANCH   5   7
BRANCH   1  19
ATOM     19  C   UNL     1       8.612   8.680  18.820  0.00  0.00    +0.000 C 
BRANCH  19  20
ATOM     20  C   UNL     1       8.309   9.863  17.895  0.00  0.00    +0.000 C 
BRANCH  20  26
ATOM     21  C   UNL     1       7.735  12.853  17.178  0.00  0.00    +0.000 C 
ATOM     22  N   UNL     1       8.855  12.350  17.927  0.00  0.00    +0.000 N 
ATOM     23  C   UNL     1       9.862  13.106  18.448  0.00  0.00    +0.000 A 
ATOM     24  N   UNL     1      10.717  12.316  19.064  0.00  0.00    +0.000 NA
ATOM     25  N   UNL     1      10.259  11.027  18.947  0.00  0.00    +0.000 NA
ATOM     26  C   UNL     1       9.131  11.049  18.259  0.00  0.00    +0.000 A 
ENDBRANCH  20  26
ENDBRANCH  19  20
ENDBRANCH   1  19
TORSDOF 4
ENDMDL
MODEL 3
REMARK VINA RESULT:      -8.3      5.279      7.045
REMARK  Name = 
REMARK  5 active torsions:
REMARK  status: ('A' for Active; 'I' for Inactive)
REMARK    1  A    between atoms: C_1  and  N_2
REMARK    2  A    between atoms: C_6  and  C_7
REMARK    3  A    between atoms: C_7  and  C_8
REMARK    4  A    between atoms: C_8  and  C_9
REMARK    5  A    between atoms: C_13  and  N_14
REMARK                            x       y       z     vdW  Elec       q    Type
REMARK                         _______ _______ _______ _____ _____    ______ ____
ROOT
ATOM      1  C   UNL     1       1.834   7.245  20.244  0.00  0.00    +0.000 A 
ATOM      2  C   UNL     1       2.346   7.887  19.108  0.00  0.00    +0.000 A 
ATOM      3  C   UNL     1       2.511   7.192  17.913  0.00  0.00    +0.000 A 
ATOM      4  C   UNL     1       2.266   5.829  17.868  0.00  0.00    +0.000 A 
ATOM      5  C   UNL     1       2.015   5.134  19.064  0.00  0.00    +0.000 A 
ATOM      6  C   UNL     1       1.638   5.857  20.201  0.00  0.00    +0.000 A 
ENDROOT
BRANCH   5   7
ATOM      7  N   UNL     1       2.618   3.818  19.267  0.00  0.00    +0.000 N 
ATOM      8  C   UNL     1       3.910   3.960  19.987  0.00  0.00    +0.000 C 
ATOM      9  C   UNL     1       4.863   4.127  18.854  0.00  0.00    +0.000 A 
ATOM     10  C   UNL     1       5.903   5.014  18.706  0.00  0.00    +0.000 A 
ATOM     11  F   UNL     1       6.301   5.767  19.738  0.00  0.00    +0.000 F 
ATOM     12  C   UNL     1       6.434   5.231  17.437  0.00  0.00    +0.000 A 
ATOM     13  C   UNL     1       5.919   4.530  16.337  0.00  0.00    +0.000 A 
ATOM     14  F   UNL     1       6.385   4.811  15.114  0.00  0.00    +0.000 F 
ATOM     15  C   UNL     1       4.864   3.631  16.469  0.00  0.00    +0.000 A 
ATOM     16  C   UNL     1       4.344   3.472  17.742  0.00  0.00    +0.000 A 
ATOM     17  C   UNL     1       2.949   3.115  18.074  0.00  0.00    +0.000 C 
ATOM     18  O   UNL     1       2.207   2.524  17.317  0.00  0.00    +0.000 OA
ENDBRANCH   5   7
BRANCH   1  19
ATOM     19  C   UNL     1       1.522   8.056  21.480  0.00  0.00    +0.000 C 
BRANCH  19  20
ATOM     20  C   UNL     1       0.030   8.292  21.735  0.00  0.00    +0.000 C 
BRANCH  20  26
ATOM     21  C   UNL     1      -0.619  10.518  19.635  0.00  0.00    +0.000 C 
ATOM     22  N   UNL     1      -0.523  10.685  21.061  0.00  0.00    +0.000 N 
ATOM     23  C   UNL     1      -0.696  11.857  21.733  0.00  0.00    +0.000 A 
ATOM     24  N   UNL     1      -0.530  11.640  23.022  0.00  0.00    +0.000 NA
ATOM     25  N   UNL     1      -0.247  10.308  23.192  0.00  0.00    +0.000 NA
ATOM     26  C   UNL     1      -0.243   9.730  22.004  0.00  0.00    +0.000 A 
ENDBRANCH  20  26
ENDBRANCH  19  20
ENDBRANCH   1  19
TORSDOF 4
ENDMDL
MODEL 4
REMARK VINA RESULT:      -8.2      5.049      7.083
REMARK  Name = 
REMARK  5 active torsions:
REMARK  status: ('A' for Active; 'I' for Inactive)
REMARK    1  A    between atoms: C_1  and  N_2
REMARK    2  A    between atoms: C_6  and  C_7
REMARK    3  A    between atoms: C_7  and  C_8
REMARK    4  A    between atoms: C_8  and  C_9
REMARK    5  A    between atoms: C_13  and  N_14
REMARK                            x       y       z     vdW  Elec       q    Type
REMARK                         _______ _______ _______ _____ _____    ______ ____
ROOT
ATOM      1  C   UNL     1       1.897   7.624  20.205  0.00  0.00    +0.000 A 
ATOM      2  C   UNL     1       2.049   8.221  18.946  0.00  0.00    +0.000 A 
ATOM      3  C   UNL     1       2.331   7.449  17.822  0.00  0.00    +0.000 A 
ATOM      4  C   UNL     1       2.567   6.090  17.960  0.00  0.00    +0.000 A 
ATOM      5  C   UNL     1       2.683   5.538  19.247  0.00  0.00    +0.000 A 
ATOM      6  C   UNL     1       2.187   6.258  20.341  0.00  0.00    +0.000 A 
ENDROOT
BRANCH   5   7
ATOM      7  N   UNL     1       3.718   4.539  19.507  0.00  0.00    +0.000 N 
ATOM      8  C   UNL     1       5.055   5.189  19.518  0.00  0.00    +0.000 C 
ATOM      9  C   UNL     1       5.442   5.092  18.082  0.00  0.00    +0.000 A 
ATOM     10  C   UNL     1       6.010   6.038  17.261  0.00  0.00    +0.000 A 
ATOM     11  F   UNL     1       6.468   7.187  17.770  0.00  0.00    +0.000 F 
ATOM     12  C   UNL     1       5.963   5.854  15.882  0.00  0.00    +0.000 A 
ATOM     13  C   UNL     1       5.361   4.704  15.352  0.00  0.00    +0.000 A 
ATOM     14  F   UNL     1       5.252   4.583  14.023  0.00  0.00    +0.000 F 
ATOM     15  C   UNL     1       4.779   3.738  16.169  0.00  0.00    +0.000 A 
ATOM     16  C   UNL     1       4.818   3.978  17.531  0.00  0.00    +0.000 A 
ATOM     17  C   UNL     1       3.827   3.514  18.526  0.00  0.00    +0.000 C 
ATOM     18  O   UNL     1       3.109   2.549  18.360  0.00  0.00    +0.000 OA
ENDBRANCH   5   7
BRANCH   1  19
ATOM     19  C   UNL     1       1.442   8.461  21.377  0.00  0.00    +0.000 C 
BRANCH  19  20
ATOM     20  C   UNL     1      -0.075   8.653  21.480  0.00  0.00    +0.000 C 
BRANCH  20  26
ATOM     21  C   UNL     1      -0.906  11.006  19.595  0.00  0.00    +0.000 C 
ATOM     22  N   UNL     1      -0.769  11.060  21.025  0.00  0.00    +0.000 N 
ATOM     23  C   UNL     1      -0.978  12.162  21.799  0.00  0.00    +0.000 A 
ATOM     24  N   UNL     1      -0.756  11.850  23.060  0.00  0.00    +0.000 NA
ATOM     25  N   UNL     1      -0.401  10.525  23.108  0.00  0.00    +0.000 NA
ATOM     26  C   UNL     1      -0.410  10.047  21.877  0.00  0.00    +0.000 A 
ENDBRANCH  20  26
ENDBRANCH  19  20
ENDBRANCH   1  19
TORSDOF 4
ENDMDL
MODEL 5
REMARK VINA RESULT:      -8.1      0.786      1.316
REMARK  Name = 
REMARK  5 active torsions:
REMARK  status: ('A' for Active; 'I' for Inactive)
REMARK    1  A    between atoms: C_1  and  N_2
REMARK    2  A    between atoms: C_6  and  C_7
REMARK    3  A    between atoms: C_7  and  C_8
REMARK    4  A    between atoms: C_8  and  C_9
REMARK    5  A    between atoms: C_13  and  N_14
REMARK                            x       y       z     vdW  Elec       q    Type
REMARK                         _______ _______ _______ _____ _____    ______ ____
ROOT
ATOM      1  C   UNL     1       7.871   7.802  17.928  0.00  0.00    +0.000 A 
ATOM      2  C   UNL     1       8.009   6.942  19.026  0.00  0.00    +0.000 A 
ATOM      3  C   UNL     1       7.904   5.563  18.866  0.00  0.00    +0.000 A 
ATOM      4  C   UNL     1       7.557   5.036  17.632  0.00  0.00    +0.000 A 
ATOM      5  C   UNL     1       7.153   5.902  16.601  0.00  0.00    +0.000 A 
ATOM      6  C   UNL     1       7.470   7.262  16.697  0.00  0.00    +0.000 A 
ENDROOT
BRANCH   5   7
ATOM      7  N   UNL     1       6.024   5.528  15.752  0.00  0.00    +0.000 N 
ATOM      8  C   UNL     1       4.915   6.501  15.928  0.00  0.00    +0.000 C 
ATOM      9  C   UNL     1       4.160   5.888  17.057  0.00  0.00    +0.000 A 
ATOM     10  C   UNL     1       3.626   6.479  18.178  0.00  0.00    +0.000 A 
ATOM     11  F   UNL     1       3.583   7.812  18.284  0.00  0.00    +0.000 F 
ATOM     12  C   UNL     1       3.273   5.680  19.262  0.00  0.00    +0.000 A 
ATOM     13  C   UNL     1       3.446   4.291  19.189  0.00  0.00    +0.000 A 
ATOM     14  F   UNL     1       3.179   3.546  20.270  0.00  0.00    +0.000 F 
ATOM     15  C   UNL     1       3.988   3.677  18.063  0.00  0.00    +0.000 A 
ATOM     16  C   UNL     1       4.356   4.512  17.023  0.00  0.00    +0.000 A 
ATOM     17  C   UNL     1       5.440   4.264  16.048  0.00  0.00    +0.000 C 
ATOM     18  O   UNL     1       5.857   3.157  15.773  0.00  0.00    +0.000 OA
ENDBRANCH   5   7
BRANCH   1  19
ATOM     19  C   UNL     1       8.140   9.279  18.100  0.00  0.00    +0.000 C 
BRANCH  19  20
ATOM     20  C   UNL     1       9.437   9.614  18.842  0.00  0.00    +0.000 C 
BRANCH  20  26
ATOM     21  C   UNL     1       9.692  12.531  17.743  0.00  0.00    +0.000 C 
ATOM     22  N   UNL     1       9.420  12.147  19.102  0.00  0.00    +0.000 N 
ATOM     23  C   UNL     1       9.233  13.004  20.144  0.00  0.00    +0.000 A 
ATOM     24  N   UNL     1       9.012  12.306  21.240  0.00  0.00    +0.000 NA
ATOM     25  N   UNL     1       9.054  10.975  20.906  0.00  0.00    +0.000 NA
ATOM     26  C   UNL     1       9.300  10.880  19.612  0.00  0.00    +0.000 A 
ENDBRANCH  20  26
ENDBRANCH  19  20
ENDBRANCH   1  19
TORSDOF 4
ENDMDL
MODEL 6
REMARK VINA RESULT:      -7.9      4.109      6.023
REMARK  Name = 
REMARK  5 active torsions:
REMARK  status: ('A' for Active; 'I' for Inactive)
REMARK    1  A    between atoms: C_1  and  N_2
REMARK    2  A    between atoms: C_6  and  C_7
REMARK    3  A    between atoms: C_7  and  C_8
REMARK    4  A    between atoms: C_8  and  C_9
REMARK    5  A    between atoms: C_13  and  N_14
REMARK                            x       y       z     vdW  Elec       q    Type
REMARK                         _______ _______ _______ _____ _____    ______ ____
ROOT
ATOM      1  C   UNL     1       2.993   5.064  19.230  0.00  0.00    +0.000 A 
ATOM      2  C   UNL     1       2.866   3.899  18.461  0.00  0.00    +0.000 A 
ATOM      3  C   UNL     1       3.975   3.101  18.192  0.00  0.00    +0.000 A 
ATOM      4  C   UNL     1       5.235   3.512  18.597  0.00  0.00    +0.000 A 
ATOM      5  C   UNL     1       5.402   4.802  19.127  0.00  0.00    +0.000 A 
ATOM      6  C   UNL     1       4.278   5.495  19.591  0.00  0.00    +0.000 A 
ENDROOT
BRANCH   5   7
ATOM      7  N   UNL     1       6.570   5.590  18.738  0.00  0.00    +0.000 N 
ATOM      8  C   UNL     1       6.141   6.771  17.944  0.00  0.00    +0.000 C 
ATOM      9  C   UNL     1       6.158   6.219  16.560  0.00  0.00    +0.000 A 
ATOM     10  C   UNL     1       5.238   6.360  15.548  0.00  0.00    +0.000 A 
ATOM     11  F   UNL     1       4.229   7.230  15.669  0.00  0.00    +0.000 F 
ATOM     12  C   UNL     1       5.279   5.483  14.468  0.00  0.00    +0.000 A 
ATOM     13  C   UNL     1       6.265   4.487  14.416  0.00  0.00    +0.000 A 
ATOM     14  F   UNL     1       6.239   3.601  13.412  0.00  0.00    +0.000 F 
ATOM     15  C   UNL     1       7.202   4.329  15.433  0.00  0.00    +0.000 A 
ATOM     16  C   UNL     1       7.103   5.201  16.503  0.00  0.00    +0.000 A 
ATOM     17  C   UNL     1       7.501   4.915  17.899  0.00  0.00    +0.000 C 
ATOM     18  O   UNL     1       8.322   4.075  18.206  0.00  0.00    +0.000 OA
ENDBRANCH   5   7
BRANCH   1  19
ATOM     19  C   UNL     1       1.754   5.828  19.635  0.00  0.00    +0.000 C 
BRANCH  19  20
ATOM     20  C   UNL     1       2.022   7.181  20.300  0.00  0.00    +0.000 C 
BRANCH  20  26
ATOM     21  C   UNL     1       0.557   9.902  20.788  0.00  0.00    +0.000 C 
ATOM     22  N   UNL     1       1.197   9.478  19.572  0.00  0.00    +0.000 N 
ATOM     23  C   UNL     1       1.265  10.202  18.420  0.00  0.00    +0.000 A 
ATOM     24  N   UNL     1       1.918   9.505  17.512  0.00  0.00    +0.000 NA
ATOM     25  N   UNL     1       2.284   8.311  18.082  0.00  0.00    +0.000 NA
ATOM     26  C   UNL     1       1.848   8.296  19.329  0.00  0.00    +0.000 A 
ENDBRANCH  20  26
ENDBRANCH  19  20
ENDBRANCH   1  19
TORSDOF 4
ENDMDL
MODEL 7
REMARK VINA RESULT:      -7.9      4.487      6.065
REMARK  Name = 
REMARK  5 active torsions:
REMARK  status: ('A' for Active; 'I' for Inactive)
REMARK    1  A    between atoms: C_1  and  N_2
REMARK    2  A    between atoms: C_6  and  C_7
REMARK    3  A    between atoms: C_7  and  C_8
REMARK    4  A    between atoms: C_8  and  C_9
REMARK    5  A    between atoms: C_13  and  N_14
REMARK                            x       y       z     vdW  Elec       q    Type
REMARK                         _______ _______ _______ _____ _____    ______ ____
ROOT
ATOM      1  C   UNL     1       4.839   6.094  17.244  0.00  0.00    +0.000 A 
ATOM      2  C   UNL     1       4.370   7.392  16.994  0.00  0.00    +0.000 A 
ATOM      3  C   UNL     1       3.188   7.844  17.574  0.00  0.00    +0.000 A 
ATOM      4  C   UNL     1       2.410   6.974  18.323  0.00  0.00    +0.000 A 
ATOM      5  C   UNL     1       2.736   5.608  18.350  0.00  0.00    +0.000 A 
ATOM      6  C   UNL     1       4.020   5.210  17.960  0.00  0.00    +0.000 A 
ENDROOT
BRANCH   5   7
ATOM      7  N   UNL     1       1.666   4.615  18.273  0.00  0.00    +0.000 N 
ATOM      8  C   UNL     1       1.209   4.257  19.641  0.00  0.00    +0.000 C 
ATOM      9  C   UNL     1       2.119   3.125  19.970  0.00  0.00    +0.000 A 
ATOM     10  C   UNL     1       2.811   2.864  21.130  0.00  0.00    +0.000 A 
ATOM     11  F   UNL     1       2.571   3.580  22.234  0.00  0.00    +0.000 F 
ATOM     12  C   UNL     1       3.864   1.955  21.100  0.00  0.00    +0.000 A 
ATOM     13  C   UNL     1       4.192   1.305  19.902  0.00  0.00    +0.000 A 
ATOM     14  F   UNL     1       5.259   0.497  19.872  0.00  0.00    +0.000 F 
ATOM     15  C   UNL     1       3.504   1.560  18.718  0.00  0.00    +0.000 A 
ATOM     16  C   UNL     1       2.487   2.496  18.785  0.00  0.00    +0.000 A 
ATOM     17  C   UNL     1       2.037   3.373  17.683  0.00  0.00    +0.000 C 
ATOM     18  O   UNL     1       2.197   3.114  16.508  0.00  0.00    +0.000 OA
ENDBRANCH   5   7
BRANCH   1  19
ATOM     19  C   UNL     1       6.198   5.681  16.729  0.00  0.00    +0.000 C 
BRANCH  19  20
ATOM     20  C   UNL     1       6.182   4.511  15.741  0.00  0.00    +0.000 C 
BRANCH  20  26
ATOM     21  C   UNL     1       5.657   3.425  12.854  0.00  0.00    +0.000 C 
ATOM     22  N   UNL     1       6.683   4.353  13.249  0.00  0.00    +0.000 N 
ATOM     23  C   UNL     1       7.607   4.910  12.418  0.00  0.00    +0.000 A 
ATOM     24  N   UNL     1       8.391   5.705  13.118  0.00  0.00    +0.000 NA
ATOM     25  N   UNL     1       7.969   5.666  14.424  0.00  0.00    +0.000 NA
ATOM     26  C   UNL     1       6.935   4.848  14.502  0.00  0.00    +0.000 A 
ENDBRANCH  20  26
ENDBRANCH  19  20
ENDBRANCH   1  19
TORSDOF 4
ENDMDL
MODEL 8
REMARK VINA RESULT:      -7.9      5.033      5.815
REMARK  Name = 
REMARK  5 active torsions:
REMARK  status: ('A' for Active; 'I' for Inactive)
REMARK    1  A    between atoms: C_1  and  N_2
REMARK    2  A    between atoms: C_6  and  C_7
REMARK    3  A    between atoms: C_7  and  C_8
REMARK    4  A    between atoms: C_8  and  C_9
REMARK    5  A    between atoms: C_13  and  N_14
REMARK                            x       y       z     vdW  Elec       q    Type
REMARK                         _______ _______ _______ _____ _____    ______ ____
ROOT
ATOM      1  C   UNL     1       4.093   6.519  16.871  0.00  0.00    +0.000 A 
ATOM      2  C   UNL     1       5.092   6.607  15.892  0.00  0.00    +0.000 A 
ATOM      3  C   UNL     1       5.583   5.460  15.273  0.00  0.00    +0.000 A 
ATOM      4  C   UNL     1       5.159   4.211  15.698  0.00  0.00    +0.000 A 
ATOM      5  C   UNL     1       4.368   4.109  16.855  0.00  0.00    +0.000 A 
ATOM      6  C   UNL     1       3.709   5.249  17.328  0.00  0.00    +0.000 A 
ENDROOT
BRANCH   5   7
ATOM      7  N   UNL     1       4.632   3.034  17.809  0.00  0.00    +0.000 N 
ATOM      8  C   UNL     1       3.460   2.122  17.880  0.00  0.00    +0.000 C 
ATOM      9  C   UNL     1       2.652   2.763  18.955  0.00  0.00    +0.000 A 
ATOM     10  C   UNL     1       1.299   3.008  19.007  0.00  0.00    +0.000 A 
ATOM     11  F   UNL     1       0.483   2.490  18.083  0.00  0.00    +0.000 F 
ATOM     12  C   UNL     1       0.812   3.922  19.938  0.00  0.00    +0.000 A 
ATOM     13  C   UNL     1       1.698   4.560  20.818  0.00  0.00    +0.000 A 
ATOM     14  F   UNL     1       1.224   5.496  21.649  0.00  0.00    +0.000 F 
ATOM     15  C   UNL     1       3.070   4.326  20.776  0.00  0.00    +0.000 A 
ATOM     16  C   UNL     1       3.514   3.436  19.813  0.00  0.00    +0.000 A 
ATOM     17  C   UNL     1       4.837   3.457  19.153  0.00  0.00    +0.000 C 
ATOM     18  O   UNL     1       5.825   3.967  19.641  0.00  0.00    +0.000 OA
ENDBRANCH   5   7
BRANCH   1  19
ATOM     19  C   UNL     1       3.470   7.783  17.416  0.00  0.00    +0.000 C 
BRANCH  19  20
ATOM     20  C   UNL     1       2.568   7.581  18.637  0.00  0.00    +0.000 C 
BRANCH  20  26
ATOM     21  C   UNL     1       1.284   8.586  21.307  0.00  0.00    +0.000 C 
ATOM     22  N   UNL     1       1.091   9.147  19.997  0.00  0.00    +0.000 N 
ATOM     23  C   UNL     1       0.302  10.218  19.704  0.00  0.00    +0.000 A 
ATOM     24  N   UNL     1       0.357  10.451  18.408  0.00  0.00    +0.000 NA
ATOM     25  N   UNL     1       1.196   9.519  17.849  0.00  0.00    +0.000 NA
ATOM     26  C   UNL     1       1.641   8.731  18.812  0.00  0.00    +0.000 A 
ENDBRANCH  20  26
ENDBRANCH  19  20
ENDBRANCH   1  19
TORSDOF 4
ENDMDL
MODEL 9
REMARK VINA RESULT:      -7.8      3.285      5.129
REMARK  Name = 
REMARK  5 active torsions:
REMARK  status: ('A' for Active; 'I' for Inactive)
REMARK    1  A    between atoms: C_1  and  N_2
REMARK    2  A    between atoms: C_6  and  C_7
REMARK    3  A    between atoms: C_7  and  C_8
REMARK    4  A    between atoms: C_8  and  C_9
REMARK    5  A    between atoms: C_13  and  N_14
REMARK                            x       y       z     vdW  Elec       q    Type
REMARK                         _______ _______ _______ _____ _____    ______ ____
ROOT
ATOM      1  C   UNL     1       3.999   6.771  17.131  0.00  0.00    +0.000 A 
ATOM      2  C   UNL     1       3.365   7.954  17.536  0.00  0.00    +0.000 A 
ATOM      3  C   UNL     1       2.413   7.937  18.553  0.00  0.00    +0.000 A 
ATOM      4  C   UNL     1       2.009   6.730  19.100  0.00  0.00    +0.000 A 
ATOM      5  C   UNL     1       2.440   5.528  18.513  0.00  0.00    +0.000 A 
ATOM      6  C   UNL     1       3.547   5.551  17.656  0.00  0.00    +0.000 A 
ENDROOT
BRANCH   5   7
ATOM      7  N   UNL     1       1.495   4.423  18.368  0.00  0.00    +0.000 N 
ATOM      8  C   UNL     1       1.014   3.991  19.706  0.00  0.00    +0.000 C 
ATOM      9  C   UNL     1       2.030   2.962  20.067  0.00  0.00    +0.000 A 
ATOM     10  C   UNL     1       2.689   2.759  21.257  0.00  0.00    +0.000 A 
ATOM     11  F   UNL     1       2.316   3.423  22.357  0.00  0.00    +0.000 F 
ATOM     12  C   UNL     1       3.838   1.975  21.270  0.00  0.00    +0.000 A 
ATOM     13  C   UNL     1       4.296   1.389  20.082  0.00  0.00    +0.000 A 
ATOM     14  F   UNL     1       5.448   0.707  20.097  0.00  0.00    +0.000 F 
ATOM     15  C   UNL     1       3.643   1.587  18.868  0.00  0.00    +0.000 A 
ATOM     16  C   UNL     1       2.524   2.401  18.895  0.00  0.00    +0.000 A 
ATOM     17  C   UNL     1       2.032   3.242  17.783  0.00  0.00    +0.000 C 
ATOM     18  O   UNL     1       2.279   3.024  16.614  0.00  0.00    +0.000 OA
ENDBRANCH   5   7
BRANCH   1  19
ATOM     19  C   UNL     1       5.134   6.838  16.137  0.00  0.00    +0.000 C 
BRANCH  19  20
ATOM     20  C   UNL     1       6.108   5.657  16.192  0.00  0.00    +0.000 C 
BRANCH  20  26
ATOM     21  C   UNL     1       7.674   8.062  17.436  0.00  0.00    +0.000 C 
ATOM     22  N   UNL     1       7.564   6.736  17.981  0.00  0.00    +0.000 N 
ATOM     23  C   UNL     1       8.137   6.307  19.141  0.00  0.00    +0.000 A 
ATOM     24  N   UNL     1       7.831   5.039  19.327  0.00  0.00    +0.000 NA
ATOM     25  N   UNL     1       7.046   4.637  18.276  0.00  0.00    +0.000 NA
ATOM     26  C   UNL     1       6.884   5.664  17.462  0.00  0.00    +0.000 A 
ENDBRANCH  20  26
ENDBRANCH  19  20
ENDBRANCH   1  19
TORSDOF 4
ENDMDL
