MODEL 1
REMARK VINA RESULT:      -8.5      0.000      0.000
REMARK  Name = 
REMARK  4 active torsions:
REMARK  status: ('A' for Active; 'I' for Inactive)
REMARK    1  A    between atoms: C_2  and  C_22
REMARK    2  A    between atoms: N_3  and  C_4
REMARK    3  A    between atoms: C_9  and  C_10
REMARK    4  A    between atoms: C_13  and  C_14
REMARK                            x       y       z     vdW  Elec       q    Type
REMARK                         _______ _______ _______ _____ _____    ______ ____
ROOT
ATOM      1  C   UNL     1       3.474   3.860  19.382  0.00  0.00    +0.000 A 
ATOM      2  C   UNL     1       3.575   2.651  20.093  0.00  0.00    +0.000 A 
ATOM      3  C   UNL     1       2.896   2.444  21.295  0.00  0.00    +0.000 A 
ATOM      4  C   UNL     1       2.111   3.454  21.827  0.00  0.00    +0.000 A 
ATOM      5  C   UNL     1       2.006   4.669  21.149  0.00  0.00    +0.000 A 
ATOM      6  C   UNL     1       2.671   4.894  19.922  0.00  0.00    +0.000 A 
ENDROOT
BRANCH   6   7
ATOM      7  C   UNL     1       2.442   6.179  19.258  0.00  0.00    +0.000 A 
ATOM      8  N   UNL     1       2.639   6.412  17.949  0.00  0.00    +0.000 NA
ATOM      9  O   UNL     1       2.263   7.743  17.784  0.00  0.00    +0.000 OA
ATOM     10  C   UNL     1       1.879   8.202  19.012  0.00  0.00    +0.000 A 
ATOM     11  N   UNL     1       1.968   7.279  19.945  0.00  0.00    +0.000 NA
BRANCH  10  12
ATOM     12  C   UNL     1       1.469   9.596  19.088  0.00  0.00    +0.000 A 
ATOM     13  N   UNL     1       2.157  10.473  18.300  0.00  0.00    +0.000 NA
ATOM     14  C   UNL     1       1.817  11.780  18.381  0.00  0.00    +0.000 A 
ATOM     15  C   UNL     1       0.819  12.266  19.211  0.00  0.00    +0.000 A 
ATOM     16  C   UNL     1       0.120  11.359  20.001  0.00  0.00    +0.000 A 
ATOM     17  C   UNL     1       0.449  10.009  19.938  0.00  0.00    +0.000 A 
ATOM     18  F   UNL     1      -0.229   9.145  20.708  0.00  0.00    +0.000 F 
ENDBRANCH  10  12
ENDBRANCH   6   7
BRANCH   1  21
ATOM     19  O   UNL     1       6.353   4.395  18.923  0.00  0.00    +0.000 OA
ATOM     20  C   UNL     1       5.527   4.316  18.017  0.00  0.00    +0.000 C 
ATOM     21  N   UNL     1       4.179   4.039  18.162  0.00  0.00    +0.000 N 
ATOM     22  H   UNL     1       3.674   3.854  17.291  0.00  0.00    +0.000 HD
BRANCH  20  23
ATOM     23  C   UNL     1       6.001   4.495  16.611  0.00  0.00    +0.000 A 
ATOM     24  C   UNL     1       5.134   4.168  15.569  0.00  0.00    +0.000 A 
ATOM     25  C   UNL     1       5.590   4.296  14.265  0.00  0.00    +0.000 A 
ATOM     26  C   UNL     1       6.888   4.740  14.042  0.00  0.00    +0.000 A 
ATOM     27  C   UNL     1       7.681   5.052  15.140  0.00  0.00    +0.000 A 
ATOM     28  N   UNL     1       7.270   4.945  16.426  0.00  0.00    +0.000 NA
ENDBRANCH  20  23
ENDBRANCH   1  21
TORSDOF 4
ENDMDL
MODEL 2
REMARK VINA RESULT:      -8.1      1.064      1.270
REMARK  Name = 
REMARK  4 active torsions:
REMARK  status: ('A' for Active; 'I' for Inactive)
REMARK    1  A    between atoms: C_2  and  C_22
REMARK    2  A    between atoms: N_3  and  C_4
REMARK    3  A    between atoms: C_9  and  C_10
REMARK    4  A    between atoms: C_13  and  C_14
REMARK                            x       y       z     vdW  Elec       q    Type
REMARK                         _______ _______ _______ _____ _____    ______ ____
ROOT
ATOM      1  C   UNL     1       3.457   3.738  19.488  0.00  0.00    +0.000 A 
ATOM      2  C   UNL     1       3.582   2.506  20.154  0.00  0.00    +0.000 A 
ATOM      3  C   UNL     1       2.912   2.243  21.350  0.00  0.00    +0.000 A 
ATOM      4  C   UNL     1       2.113   3.220  21.921  0.00  0.00    +0.000 A 
ATOM      5  C   UNL     1       1.983   4.456  21.288  0.00  0.00    +0.000 A 
ATOM      6  C   UNL     1       2.639   4.737  20.068  0.00  0.00    +0.000 A 
ENDROOT
BRANCH   6   7
ATOM      7  C   UNL     1       2.386   6.041  19.451  0.00  0.00    +0.000 A 
ATOM      8  N   UNL     1       2.526   6.312  18.143  0.00  0.00    +0.000 NA
ATOM      9  O   UNL     1       2.147   7.648  18.032  0.00  0.00    +0.000 OA
ATOM     10  C   UNL     1       1.819   8.071  19.289  0.00  0.00    +0.000 A 
ATOM     11  N   UNL     1       1.946   7.122  20.190  0.00  0.00    +0.000 NA
BRANCH  10  12
ATOM     12  C   UNL     1       1.417   9.464  19.423  0.00  0.00    +0.000 A 
ATOM     13  N   UNL     1       0.729   9.789  20.556  0.00  0.00    +0.000 NA
ATOM     14  C   UNL     1       0.315  11.070  20.685  0.00  0.00    +0.000 A 
ATOM     15  C   UNL     1       0.551  12.055  19.739  0.00  0.00    +0.000 A 
ATOM     16  C   UNL     1       1.260  11.711  18.594  0.00  0.00    +0.000 A 
ATOM     17  C   UNL     1       1.699  10.400  18.435  0.00  0.00    +0.000 A 
ATOM     18  F   UNL     1       2.378  10.080  17.324  0.00  0.00    +0.000 F 
ENDBRANCH  10  12
ENDBRANCH   6   7
BRANCH   1  21
ATOM     19  O   UNL     1       6.328   4.323  19.036  0.00  0.00    +0.000 OA
ATOM     20  C   UNL     1       5.498   4.271  18.132  0.00  0.00    +0.000 C 
ATOM     21  N   UNL     1       4.154   3.972  18.272  0.00  0.00    +0.000 N 
ATOM     22  H   UNL     1       3.647   3.817  17.397  0.00  0.00    +0.000 HD
BRANCH  20  23
ATOM     23  C   UNL     1       5.963   4.511  16.731  0.00  0.00    +0.000 A 
ATOM     24  C   UNL     1       5.077   4.263  15.685  0.00  0.00    +0.000 A 
ATOM     25  C   UNL     1       5.523   4.447  14.383  0.00  0.00    +0.000 A 
ATOM     26  C   UNL     1       6.831   4.867  14.169  0.00  0.00    +0.000 A 
ATOM     27  C   UNL     1       7.643   5.098  15.272  0.00  0.00    +0.000 A 
ATOM     28  N   UNL     1       7.242   4.935  16.556  0.00  0.00    +0.000 NA
ENDBRANCH  20  23
ENDBRANCH   1  21
TORSDOF 4
ENDMDL
MODEL 3
REMARK VINA RESULT:      -8.0      3.383      7.950
REMARK  Name = 
REMARK  4 active torsions:
REMARK  status: ('A' for Active; 'I' for Inactive)
REMARK    1  A    between atoms: C_2  and  C_22
REMARK    2  A    between atoms: N_3  and  C_4
REMARK    3  A    between atoms: C_9  and  C_10
REMARK    4  A    between atoms: C_13  and  C_14
REMARK                            x       y       z     vdW  Elec       q    Type
REMARK                         _______ _______ _______ _____ _____    ______ ____
ROOT
ATOM      1  C   UNL     1      -0.406   9.690  20.715  0.00  0.00    +0.000 A 
ATOM      2  C   UNL     1      -0.940  10.157  21.929  0.00  0.00    +0.000 A 
ATOM      3  C   UNL     1      -0.246  10.036  23.134  0.00  0.00    +0.000 A 
ATOM      4  C   UNL     1       0.996   9.423  23.156  0.00  0.00    +0.000 A 
ATOM      5  C   UNL     1       1.541   8.938  21.968  0.00  0.00    +0.000 A 
ATOM      6  C   UNL     1       0.864   9.065  20.734  0.00  0.00    +0.000 A 
ENDROOT
BRANCH   6   7
ATOM      7  C   UNL     1       1.551   8.581  19.534  0.00  0.00    +0.000 A 
ATOM      8  N   UNL     1       1.589   9.228  18.358  0.00  0.00    +0.000 NA
ATOM      9  O   UNL     1       2.372   8.409  17.548  0.00  0.00    +0.000 OA
ATOM     10  C   UNL     1       2.733   7.331  18.305  0.00  0.00    +0.000 A 
ATOM     11  N   UNL     1       2.257   7.393  19.530  0.00  0.00    +0.000 NA
BRANCH  10  12
ATOM     12  C   UNL     1       3.540   6.313  17.648  0.00  0.00    +0.000 A 
ATOM     13  N   UNL     1       4.634   6.755  16.964  0.00  0.00    +0.000 NA
ATOM     14  C   UNL     1       5.378   5.831  16.316  0.00  0.00    +0.000 A 
ATOM     15  C   UNL     1       5.090   4.475  16.313  0.00  0.00    +0.000 A 
ATOM     16  C   UNL     1       3.976   4.038  17.021  0.00  0.00    +0.000 A 
ATOM     17  C   UNL     1       3.193   4.967  17.698  0.00  0.00    +0.000 A 
ATOM     18  F   UNL     1       2.119   4.533  18.373  0.00  0.00    +0.000 F 
ENDBRANCH  10  12
ENDBRANCH   6   7
BRANCH   1  21
ATOM     19  O   UNL     1      -1.605  12.112  19.497  0.00  0.00    +0.000 OA
ATOM     20  C   UNL     1      -1.700  10.990  19.005  0.00  0.00    +0.000 C 
ATOM     21  N   UNL     1      -1.139   9.828  19.506  0.00  0.00    +0.000 N 
ATOM     22  H   UNL     1      -1.186   9.017  18.884  0.00  0.00    +0.000 HD
BRANCH  20  23
ATOM     23  C   UNL     1      -2.456  10.841  17.724  0.00  0.00    +0.000 A 
ATOM     24  C   UNL     1      -1.963   9.968  16.757  0.00  0.00    +0.000 A 
ATOM     25  C   UNL     1      -2.643   9.862  15.552  0.00  0.00    +0.000 A 
ATOM     26  C   UNL     1      -3.786  10.628  15.351  0.00  0.00    +0.000 A 
ATOM     27  C   UNL     1      -4.211  11.466  16.374  0.00  0.00    +0.000 A 
ATOM     28  N   UNL     1      -3.578  11.593  17.564  0.00  0.00    +0.000 NA
ENDBRANCH  20  23
ENDBRANCH   1  21
TORSDOF 4
ENDMDL
MODEL 4
REMARK VINA RESULT:      -7.9      2.232      2.718
REMARK  Name = 
REMARK  4 active torsions:
REMARK  status: ('A' for Active; 'I' for Inactive)
REMARK    1  A    between atoms: C_2  and  C_22
REMARK    2  A    between atoms: N_3  and  C_4
REMARK    3  A    between atoms: C_9  and  C_10
REMARK    4  A    between atoms: C_13  and  C_14
REMARK                            x       y       z     vdW  Elec       q    Type
REMARK                         _______ _______ _______ _____ _____    ______ ____
ROOT
ATOM      1  C   UNL     1       3.238   4.593  19.851  0.00  0.00    +0.000 A 
ATOM      2  C   UNL     1       3.330   3.192  19.908  0.00  0.00    +0.000 A 
ATOM      3  C   UNL     1       2.242   2.396  20.270  0.00  0.00    +0.000 A 
ATOM      4  C   UNL     1       1.035   2.988  20.603  0.00  0.00    +0.000 A 
ATOM      5  C   UNL     1       0.922   4.378  20.568  0.00  0.00    +0.000 A 
ATOM      6  C   UNL     1       2.005   5.202  20.190  0.00  0.00    +0.000 A 
ENDROOT
BRANCH   6   7
ATOM      7  C   UNL     1       1.764   6.645  20.123  0.00  0.00    +0.000 A 
ATOM      8  N   UNL     1       2.194   7.451  19.137  0.00  0.00    +0.000 NA
ATOM      9  O   UNL     1       1.702   8.705  19.488  0.00  0.00    +0.000 OA
ATOM     10  C   UNL     1       1.022   8.550  20.663  0.00  0.00    +0.000 A 
ATOM     11  N   UNL     1       1.030   7.305  21.089  0.00  0.00    +0.000 NA
BRANCH  10  12
ATOM     12  C   UNL     1       0.440   9.751  21.243  0.00  0.00    +0.000 A 
ATOM     13  N   UNL     1       0.849  10.940  20.711  0.00  0.00    +0.000 NA
ATOM     14  C   UNL     1       0.348  12.071  21.258  0.00  0.00    +0.000 A 
ATOM     15  C   UNL     1      -0.548  12.083  22.316  0.00  0.00    +0.000 A 
ATOM     16  C   UNL     1      -0.962  10.864  22.841  0.00  0.00    +0.000 A 
ATOM     17  C   UNL     1      -0.463   9.684  22.298  0.00  0.00    +0.000 A 
ATOM     18  F   UNL     1      -0.867   8.516  22.816  0.00  0.00    +0.000 F 
ENDBRANCH  10  12
ENDBRANCH   6   7
BRANCH   1  21
ATOM     19  O   UNL     1       4.889   4.482  17.392  0.00  0.00    +0.000 OA
ATOM     20  C   UNL     1       5.114   5.252  18.323  0.00  0.00    +0.000 C 
ATOM     21  N   UNL     1       4.366   5.374  19.481  0.00  0.00    +0.000 N 
ATOM     22  H   UNL     1       4.605   6.174  20.073  0.00  0.00    +0.000 HD
BRANCH  20  23
ATOM     23  C   UNL     1       6.278   6.181  18.206  0.00  0.00    +0.000 A 
ATOM     24  C   UNL     1       7.371   5.990  19.049  0.00  0.00    +0.000 A 
ATOM     25  C   UNL     1       8.433   6.879  18.968  0.00  0.00    +0.000 A 
ATOM     26  C   UNL     1       8.372   7.926  18.055  0.00  0.00    +0.000 A 
ATOM     27  C   UNL     1       7.247   8.036  17.247  0.00  0.00    +0.000 A 
ATOM     28  N   UNL     1       6.194   7.186  17.293  0.00  0.00    +0.000 NA
ENDBRANCH  20  23
ENDBRANCH   1  21
TORSDOF 4
ENDMDL
MODEL 5
REMARK VINA RESULT:      -7.8      2.292      2.938
REMARK  Name = 
REMARK  4 active torsions:
REMARK  status: ('A' for Active; 'I' for Inactive)
REMARK    1  A    between atoms: C_2  and  C_22
REMARK    2  A    between atoms: N_3  and  C_4
REMARK    3  A    between atoms: C_9  and  C_10
REMARK    4  A    between atoms: C_13  and  C_14
REMARK                            x       y       z     vdW  Elec       q    Type
REMARK                         _______ _______ _______ _____ _____    ______ ____
ROOT
ATOM      1  C   UNL     1       3.177   4.281  19.665  0.00  0.00    +0.000 A 
ATOM      2  C   UNL     1       3.240   2.880  19.568  0.00  0.00    +0.000 A 
ATOM      3  C   UNL     1       2.140   2.071  19.855  0.00  0.00    +0.000 A 
ATOM      4  C   UNL     1       0.949   2.648  20.267  0.00  0.00    +0.000 A 
ATOM      5  C   UNL     1       0.865   4.035  20.386  0.00  0.00    +0.000 A 
ATOM      6  C   UNL     1       1.962   4.873  20.084  0.00  0.00    +0.000 A 
ENDROOT
BRANCH   6   7
ATOM      7  C   UNL     1       1.750   6.320  20.178  0.00  0.00    +0.000 A 
ATOM      8  N   UNL     1       2.407   7.241  19.452  0.00  0.00    +0.000 NA
ATOM      9  O   UNL     1       1.851   8.451  19.861  0.00  0.00    +0.000 OA
ATOM     10  C   UNL     1       0.911   8.156  20.806  0.00  0.00    +0.000 A 
ATOM     11  N   UNL     1       0.810   6.864  21.032  0.00  0.00    +0.000 NA
BRANCH  10  12
ATOM     12  C   UNL     1       0.213   9.284  21.406  0.00  0.00    +0.000 A 
ATOM     13  N   UNL     1       0.051   9.245  22.760  0.00  0.00    +0.000 NA
ATOM     14  C   UNL     1      -0.626  10.265  23.335  0.00  0.00    +0.000 A 
ATOM     15  C   UNL     1      -1.155  11.333  22.627  0.00  0.00    +0.000 A 
ATOM     16  C   UNL     1      -0.975  11.363  21.249  0.00  0.00    +0.000 A 
ATOM     17  C   UNL     1      -0.282  10.327  20.631  0.00  0.00    +0.000 A 
ATOM     18  F   UNL     1      -0.119  10.365  19.301  0.00  0.00    +0.000 F 
ENDBRANCH  10  12
ENDBRANCH   6   7
BRANCH   1  21
ATOM     19  O   UNL     1       4.531   4.745  17.068  0.00  0.00    +0.000 OA
ATOM     20  C   UNL     1       4.920   5.227  18.129  0.00  0.00    +0.000 C 
ATOM     21  N   UNL     1       4.317   5.076  19.366  0.00  0.00    +0.000 N 
ATOM     22  H   UNL     1       4.685   5.676  20.108  0.00  0.00    +0.000 HD
BRANCH  20  23
ATOM     23  C   UNL     1       6.136   6.096  18.107  0.00  0.00    +0.000 A 
ATOM     24  C   UNL     1       7.182   5.800  18.978  0.00  0.00    +0.000 A 
ATOM     25  C   UNL     1       8.293   6.631  18.986  0.00  0.00    +0.000 A 
ATOM     26  C   UNL     1       8.324   7.727  18.130  0.00  0.00    +0.000 A 
ATOM     27  C   UNL     1       7.240   7.942  17.288  0.00  0.00    +0.000 A 
ATOM     28  N   UNL     1       6.142   7.151  17.249  0.00  0.00    +0.000 NA
ENDBRANCH  20  23
ENDBRANCH   1  21
TORSDOF 4
ENDMDL
MODEL 6
REMARK VINA RESULT:      -7.8      3.408      7.996
REMARK  Name = 
REMARK  4 active torsions:
REMARK  status: ('A' for Active; 'I' for Inactive)
REMARK    1  A    between atoms: C_2  and  C_22
REMARK    2  A    between atoms: N_3  and  C_4
REMARK    3  A    between atoms: C_9  and  C_10
REMARK    4  A    between atoms: C_13  and  C_14
REMARK                            x       y       z     vdW  Elec       q    Type
REMARK                         _______ _______ _______ _____ _____    ______ ____
ROOT
ATOM      1  C   UNL     1      -0.434   9.655  20.805  0.00  0.00    +0.000 A 
ATOM      2  C   UNL     1      -0.947  10.167  22.009  0.00  0.00    +0.000 A 
ATOM      3  C   UNL     1      -0.252  10.055  23.214  0.00  0.00    +0.000 A 
ATOM      4  C   UNL     1       0.972   9.406  23.246  0.00  0.00    +0.000 A 
ATOM      5  C   UNL     1       1.497   8.876  22.068  0.00  0.00    +0.000 A 
ATOM      6  C   UNL     1       0.817   8.993  20.834  0.00  0.00    +0.000 A 
ENDROOT
BRANCH   6   7
ATOM      7  C   UNL     1       1.484   8.459  19.644  0.00  0.00    +0.000 A 
ATOM      8  N   UNL     1       1.560   9.088  18.459  0.00  0.00    +0.000 NA
ATOM      9  O   UNL     1       2.303   8.220  17.663  0.00  0.00    +0.000 OA
ATOM     10  C   UNL     1       2.606   7.135  18.436  0.00  0.00    +0.000 A 
ATOM     11  N   UNL     1       2.128   7.237  19.658  0.00  0.00    +0.000 NA
BRANCH  10  12
ATOM     12  C   UNL     1       3.362   6.069  17.796  0.00  0.00    +0.000 A 
ATOM     13  N   UNL     1       2.755   4.848  17.736  0.00  0.00    +0.000 NA
ATOM     14  C   UNL     1       3.453   3.833  17.178  0.00  0.00    +0.000 A 
ATOM     15  C   UNL     1       4.735   3.970  16.668  0.00  0.00    +0.000 A 
ATOM     16  C   UNL     1       5.337   5.222  16.727  0.00  0.00    +0.000 A 
ATOM     17  C   UNL     1       4.641   6.284  17.296  0.00  0.00    +0.000 A 
ATOM     18  F   UNL     1       5.235   7.485  17.352  0.00  0.00    +0.000 F 
ENDBRANCH  10  12
ENDBRANCH   6   7
BRANCH   1  21
ATOM     19  O   UNL     1      -1.209  12.099  19.318  0.00  0.00    +0.000 OA
ATOM     20  C   UNL     1      -1.523  10.965  18.965  0.00  0.00    +0.000 C 
ATOM     21  N   UNL     1      -1.168   9.785  19.596  0.00  0.00    +0.000 N 
ATOM     22  H   UNL     1      -1.383   8.931  19.076  0.00  0.00    +0.000 HD
BRANCH  20  23
ATOM     23  C   UNL     1      -2.335  10.812  17.720  0.00  0.00    +0.000 A 
ATOM     24  C   UNL     1      -1.878   9.944  16.730  0.00  0.00    +0.000 A 
ATOM     25  C   UNL     1      -2.611   9.834  15.557  0.00  0.00    +0.000 A 
ATOM     26  C   UNL     1      -3.768  10.590  15.408  0.00  0.00    +0.000 A 
ATOM     27  C   UNL     1      -4.154  11.424  16.451  0.00  0.00    +0.000 A 
ATOM     28  N   UNL     1      -3.469  11.554  17.611  0.00  0.00    +0.000 NA
ENDBRANCH  20  23
ENDBRANCH   1  21
TORSDOF 4
ENDMDL
MODEL 7
REMARK VINA RESULT:      -7.7      1.388      1.479
REMARK  Name = 
REMARK  4 active torsions:
REMARK  status: ('A' for Active; 'I' for Inactive)
REMARK    1  A    between atoms: C_2  and  C_22
REMARK    2  A    between atoms: N_3  and  C_4
REMARK    3  A    between atoms: C_9  and  C_10
REMARK    4  A    between atoms: C_13  and  C_14
REMARK                            x       y       z     vdW  Elec       q    Type
REMARK                         _______ _______ _______ _____ _____    ______ ____
ROOT
ATOM      1  C   UNL     1       3.622   3.875  19.681  0.00  0.00    +0.000 A 
ATOM      2  C   UNL     1       3.696   2.590  20.246  0.00  0.00    +0.000 A 
ATOM      3  C   UNL     1       2.907   2.217  21.335  0.00  0.00    +0.000 A 
ATOM      4  C   UNL     1       2.034   3.133  21.900  0.00  0.00    +0.000 A 
ATOM      5  C   UNL     1       1.953   4.420  21.367  0.00  0.00    +0.000 A 
ATOM      6  C   UNL     1       2.730   4.813  20.254  0.00  0.00    +0.000 A 
ENDROOT
BRANCH   6   7
ATOM      7  C   UNL     1       2.522   6.165  19.731  0.00  0.00    +0.000 A 
ATOM      8  N   UNL     1       3.103   6.657  18.623  0.00  0.00    +0.000 NA
ATOM      9  O   UNL     1       2.583   7.944  18.514  0.00  0.00    +0.000 OA
ATOM     10  C   UNL     1       1.739   8.122  19.573  0.00  0.00    +0.000 A 
ATOM     11  N   UNL     1       1.666   7.059  20.344  0.00  0.00    +0.000 NA
BRANCH  10  12
ATOM     12  C   UNL     1       1.096   9.423  19.683  0.00  0.00    +0.000 A 
ATOM     13  N   UNL     1       1.169  10.033  20.902  0.00  0.00    +0.000 NA
ATOM     14  C   UNL     1       0.548  11.227  21.038  0.00  0.00    +0.000 A 
ATOM     15  C   UNL     1      -0.147  11.854  20.016  0.00  0.00    +0.000 A 
ATOM     16  C   UNL     1      -0.205  11.225  18.777  0.00  0.00    +0.000 A 
ATOM     17  C   UNL     1       0.425   9.996  18.609  0.00  0.00    +0.000 A 
ATOM     18  F   UNL     1       0.357   9.398  17.411  0.00  0.00    +0.000 F 
ENDBRANCH  10  12
ENDBRANCH   6   7
BRANCH   1  21
ATOM     19  O   UNL     1       3.231   3.323  16.795  0.00  0.00    +0.000 OA
ATOM     20  C   UNL     1       4.214   3.907  17.244  0.00  0.00    +0.000 C 
ATOM     21  N   UNL     1       4.441   4.222  18.573  0.00  0.00    +0.000 N 
ATOM     22  H   UNL     1       5.232   4.848  18.744  0.00  0.00    +0.000 HD
BRANCH  20  23
ATOM     23  C   UNL     1       5.264   4.365  16.284  0.00  0.00    +0.000 A 
ATOM     24  C   UNL     1       5.195   3.928  14.963  0.00  0.00    +0.000 A 
ATOM     25  C   UNL     1       6.193   4.321  14.083  0.00  0.00    +0.000 A 
ATOM     26  C   UNL     1       7.223   5.131  14.546  0.00  0.00    +0.000 A 
ATOM     27  C   UNL     1       7.208   5.528  15.878  0.00  0.00    +0.000 A 
ATOM     28  N   UNL     1       6.249   5.170  16.764  0.00  0.00    +0.000 NA
ENDBRANCH  20  23
ENDBRANCH   1  21
TORSDOF 4
ENDMDL
MODEL 8
REMARK VINA RESULT:      -7.6      2.332      2.881
REMARK  Name = 
REMARK  4 active torsions:
REMARK  status: ('A' for Active; 'I' for Inactive)
REMARK    1  A    between atoms: C_2  and  C_22
REMARK    2  A    between atoms: N_3  and  C_4
REMARK    3  A    between atoms: C_9  and  C_10
REMARK    4  A    between atoms: C_13  and  C_14
REMARK                            x       y       z     vdW  Elec       q    Type
REMARK                         _______ _______ _______ _____ _____    ______ ____
ROOT
ATOM      1  C   UNL     1       3.426   3.899  18.659  0.00  0.00    +0.000 A 
ATOM      2  C   UNL     1       3.567   2.594  18.155  0.00  0.00    +0.000 A 
ATOM      3  C   UNL     1       2.512   1.681  18.168  0.00  0.00    +0.000 A 
ATOM      4  C   UNL     1       1.289   2.048  18.707  0.00  0.00    +0.000 A 
ATOM      5  C   UNL     1       1.127   3.332  19.227  0.00  0.00    +0.000 A 
ATOM      6  C   UNL     1       2.177   4.277  19.208  0.00  0.00    +0.000 A 
ENDROOT
BRANCH   6   7
ATOM      7  C   UNL     1       1.885   5.619  19.720  0.00  0.00    +0.000 A 
ATOM      8  N   UNL     1       1.515   5.896  20.981  0.00  0.00    +0.000 NA
ATOM      9  O   UNL     1       1.384   7.283  20.997  0.00  0.00    +0.000 OA
ATOM     10  C   UNL     1       1.679   7.723  19.738  0.00  0.00    +0.000 A 
ATOM     11  N   UNL     1       1.995   6.741  18.921  0.00  0.00    +0.000 NA
BRANCH  10  12
ATOM     12  C   UNL     1       1.577   9.157  19.508  0.00  0.00    +0.000 A 
ATOM     13  N   UNL     1       1.109   9.905  20.549  0.00  0.00    +0.000 NA
ATOM     14  C   UNL     1       0.972  11.235  20.347  0.00  0.00    +0.000 A 
ATOM     15  C   UNL     1       1.279  11.867  19.152  0.00  0.00    +0.000 A 
ATOM     16  C   UNL     1       1.763  11.093  18.103  0.00  0.00    +0.000 A 
ATOM     17  C   UNL     1       1.915   9.722  18.284  0.00  0.00    +0.000 A 
ATOM     18  F   UNL     1       2.377   8.986  17.263  0.00  0.00    +0.000 F 
ENDBRANCH  10  12
ENDBRANCH   6   7
BRANCH   1  21
ATOM     19  O   UNL     1       4.736   5.212  16.347  0.00  0.00    +0.000 OA
ATOM     20  C   UNL     1       5.107   5.362  17.509  0.00  0.00    +0.000 C 
ATOM     21  N   UNL     1       4.521   4.804  18.632  0.00  0.00    +0.000 N 
ATOM     22  H   UNL     1       4.862   5.164  19.527  0.00  0.00    +0.000 HD
BRANCH  20  23
ATOM     23  C   UNL     1       6.276   6.255  17.768  0.00  0.00    +0.000 A 
ATOM     24  C   UNL     1       7.199   5.879  18.742  0.00  0.00    +0.000 A 
ATOM     25  C   UNL     1       8.262   6.730  19.010  0.00  0.00    +0.000 A 
ATOM     26  C   UNL     1       8.369   7.923  18.305  0.00  0.00    +0.000 A 
ATOM     27  C   UNL     1       7.407   8.214  17.344  0.00  0.00    +0.000 A 
ATOM     28  N   UNL     1       6.360   7.408  17.051  0.00  0.00    +0.000 NA
ENDBRANCH  20  23
ENDBRANCH   1  21
TORSDOF 4
ENDMDL
MODEL 9
REMARK VINA RESULT:      -7.5      2.889      7.970
REMARK  Name = 
REMARK  4 active torsions:
REMARK  status: ('A' for Active; 'I' for Inactive)
REMARK    1  A    between atoms: C_2  and  C_22
REMARK    2  A    between atoms: N_3  and  C_4
REMARK    3  A    between atoms: C_9  and  C_10
REMARK    4  A    between atoms: C_13  and  C_14
REMARK                            x       y       z     vdW  Elec       q    Type
REMARK                         _______ _______ _______ _____ _____    ______ ____
ROOT
ATOM      1  C   UNL     1       0.430  11.260  20.933  0.00  0.00    +0.000 A 
ATOM      2  C   UNL     1      -0.273  11.641  22.089  0.00  0.00    +0.000 A 
ATOM      3  C   UNL     1      -0.848  10.700  22.945  0.00  0.00    +0.000 A 
ATOM      4  C   UNL     1      -0.750   9.349  22.651  0.00  0.00    +0.000 A 
ATOM      5  C   UNL     1      -0.070   8.947  21.502  0.00  0.00    +0.000 A 
ATOM      6  C   UNL     1       0.535   9.881  20.631  0.00  0.00    +0.000 A 
ENDROOT
BRANCH   6   7
ATOM      7  C   UNL     1       1.281   9.352  19.487  0.00  0.00    +0.000 A 
ATOM      8  N   UNL     1       1.423   9.978  18.307  0.00  0.00    +0.000 NA
ATOM      9  O   UNL     1       2.224   9.117  17.562  0.00  0.00    +0.000 OA
ATOM     10  C   UNL     1       2.491   8.038  18.356  0.00  0.00    +0.000 A 
ATOM     11  N   UNL     1       1.937   8.138  19.545  0.00  0.00    +0.000 NA
BRANCH  10  12
ATOM     12  C   UNL     1       3.298   6.979  17.768  0.00  0.00    +0.000 A 
ATOM     13  N   UNL     1       4.390   7.377  17.052  0.00  0.00    +0.000 NA
ATOM     14  C   UNL     1       5.135   6.412  16.466  0.00  0.00    +0.000 A 
ATOM     15  C   UNL     1       4.850   5.059  16.557  0.00  0.00    +0.000 A 
ATOM     16  C   UNL     1       3.740   4.668  17.297  0.00  0.00    +0.000 A 
ATOM     17  C   UNL     1       2.956   5.639  17.911  0.00  0.00    +0.000 A 
ATOM     18  F   UNL     1       1.885   5.250  18.618  0.00  0.00    +0.000 F 
ENDBRANCH  10  12
ENDBRANCH   6   7
BRANCH   1  21
ATOM     19  O   UNL     1       2.592  13.211  21.488  0.00  0.00    +0.000 OA
ATOM     20  C   UNL     1       1.997  13.149  20.415  0.00  0.00    +0.000 C 
ATOM     21  N   UNL     1       1.004  12.244  20.083  0.00  0.00    +0.000 N 
ATOM     22  H   UNL     1       0.733  12.235  19.096  0.00  0.00    +0.000 HD
BRANCH  20  23
ATOM     23  C   UNL     1       2.387  14.104  19.334  0.00  0.00    +0.000 A 
ATOM     24  C   UNL     1       3.486  13.793  18.535  0.00  0.00    +0.000 A 
ATOM     25  C   UNL     1       3.872  14.700  17.558  0.00  0.00    +0.000 A 
ATOM     26  C   UNL     1       3.156  15.882  17.411  0.00  0.00    +0.000 A 
ATOM     27  C   UNL     1       2.068  16.107  18.246  0.00  0.00    +0.000 A 
ATOM     28  N   UNL     1       1.658  15.244  19.206  0.00  0.00    +0.000 NA
ENDBRANCH  20  23
ENDBRANCH   1  21
TORSDOF 4
ENDMDL
