MODEL 1
REMARK VINA RESULT:      -8.2      0.000      0.000
REMARK  Name = 
REMARK  4 active torsions:
REMARK  status: ('A' for Active; 'I' for Inactive)
REMARK    1  A    between atoms: C_2  and  C_14
REMARK    2  A    between atoms: N_3  and  C_4
REMARK    3  A    between atoms: C_19  and  C_20
REMARK    4  A    between atoms: C_20  and  N_21
REMARK                            x       y       z     vdW  Elec       q    Type
REMARK                         _______ _______ _______ _____ _____    ______ ____
ROOT
ATOM      1  O   UNL     1       2.185   7.592  19.791  0.00  0.00    +0.000 OA
ATOM      2  C   UNL     1       2.438   7.628  18.593  0.00  0.00    +0.000 C 
ATOM      3  N   UNL     1       2.070   8.666  17.746  0.00  0.00    +0.000 N 
ATOM      4  H   UNL     1       2.549   8.745  16.859  0.00  0.00    +0.000 HD
ENDROOT
BRANCH   3   5
ATOM      5  C   UNL     1       1.121   9.681  18.035  0.00  0.00    +0.000 A 
ATOM      6  C   UNL     1       1.487  10.916  18.627  0.00  0.00    +0.000 A 
ATOM      7  C   UNL     1       0.542  11.897  18.945  0.00  0.00    +0.000 A 
ATOM      8  C   UNL     1      -0.768  11.600  18.672  0.00  0.00    +0.000 A 
ATOM      9  N   UNL     1      -1.910  12.354  18.899  0.00  0.00    +0.000 N 
ATOM     10  C   UNL     1      -3.025  11.615  18.482  0.00  0.00    +0.000 A 
ATOM     11  O   UNL     1      -4.191  11.957  18.550  0.00  0.00    +0.000 OA
ATOM     12  N   UNL     1      -2.536  10.398  17.980  0.00  0.00    +0.000 N 
ATOM     13  C   UNL     1      -1.148  10.388  18.102  0.00  0.00    +0.000 A 
ATOM     14  C   UNL     1      -0.232   9.411  17.771  0.00  0.00    +0.000 A 
ATOM     15  H   UNL     1      -1.964  13.270  19.314  0.00  0.00    +0.000 HD
ATOM     16  H   UNL     1      -3.129   9.671  17.619  0.00  0.00    +0.000 HD
ENDBRANCH   3   5
BRANCH   2  17
ATOM     17  C   UNL     1       3.230   6.503  17.990  0.00  0.00    +0.000 A 
ATOM     18  C   UNL     1       4.425   6.806  17.309  0.00  0.00    +0.000 A 
ATOM     19  C   UNL     1       5.205   5.800  16.735  0.00  0.00    +0.000 A 
ATOM     20  C   UNL     1       4.799   4.476  16.822  0.00  0.00    +0.000 A 
ATOM     21  C   UNL     1       3.596   4.161  17.451  0.00  0.00    +0.000 A 
ATOM     22  C   UNL     1       2.781   5.159  18.030  0.00  0.00    +0.000 A 
BRANCH  22  23
ATOM     23  C   UNL     1       1.453   4.704  18.606  0.00  0.00    +0.000 C 
BRANCH  23  24
ATOM     24  N   UNL     1       1.611   4.025  19.885  0.00  0.00    +0.000 N 
ATOM     25  C   UNL     1       2.247   4.468  21.004  0.00  0.00    +0.000 A 
ATOM     26  N   UNL     1       2.245   3.526  21.920  0.00  0.00    +0.000 NA
ATOM     27  C   UNL     1       1.605   2.497  21.296  0.00  0.00    +0.000 A 
ATOM     28  N   UNL     1       1.212   2.741  20.043  0.00  0.00    +0.000 NA
ENDBRANCH  23  24
ENDBRANCH  22  23
ENDBRANCH   2  17
TORSDOF 4
ENDMDL
MODEL 2
REMARK VINA RESULT:      -8.1      2.644      3.480
REMARK  Name = 
REMARK  4 active torsions:
REMARK  status: ('A' for Active; 'I' for Inactive)
REMARK    1  A    between atoms: C_2  and  C_14
REMARK    2  A    between atoms: N_3  and  C_4
REMARK    3  A    between atoms: C_19  and  C_20
REMARK    4  A    between atoms: C_20  and  N_21
REMARK                            x       y       z     vdW  Elec       q    Type
REMARK                         _______ _______ _______ _____ _____    ______ ____
ROOT
ATOM      1  O   UNL     1       5.145   7.774  17.778  0.00  0.00    +0.000 OA
ATOM      2  C   UNL     1       4.385   6.921  17.336  0.00  0.00    +0.000 C 
ATOM      3  N   UNL     1       3.002   6.967  17.456  0.00  0.00    +0.000 N 
ATOM      4  H   UNL     1       2.454   6.385  16.836  0.00  0.00    +0.000 HD
ENDROOT
BRANCH   3   5
ATOM      5  C   UNL     1       2.269   7.812  18.329  0.00  0.00    +0.000 A 
ATOM      6  C   UNL     1       1.591   8.971  17.874  0.00  0.00    +0.000 A 
ATOM      7  C   UNL     1       0.903   9.821  18.745  0.00  0.00    +0.000 A 
ATOM      8  C   UNL     1       0.927   9.489  20.074  0.00  0.00    +0.000 A 
ATOM      9  N   UNL     1       0.366  10.147  21.160  0.00  0.00    +0.000 N 
ATOM     10  C   UNL     1       0.688   9.441  22.327  0.00  0.00    +0.000 A 
ATOM     11  O   UNL     1       0.379   9.740  23.466  0.00  0.00    +0.000 OA
ATOM     12  N   UNL     1       1.445   8.328  21.928  0.00  0.00    +0.000 N 
ATOM     13  C   UNL     1       1.596   8.361  20.543  0.00  0.00    +0.000 A 
ATOM     14  C   UNL     1       2.273   7.503  19.700  0.00  0.00    +0.000 A 
ATOM     15  H   UNL     1      -0.166  11.001  21.147  0.00  0.00    +0.000 HD
ATOM     16  H   UNL     1       1.817   7.652  22.573  0.00  0.00    +0.000 HD
ENDBRANCH   3   5
BRANCH   2  17
ATOM     17  C   UNL     1       4.966   5.762  16.578  0.00  0.00    +0.000 A 
ATOM     18  C   UNL     1       5.318   5.945  15.226  0.00  0.00    +0.000 A 
ATOM     19  C   UNL     1       5.869   4.905  14.476  0.00  0.00    +0.000 A 
ATOM     20  C   UNL     1       6.068   3.661  15.059  0.00  0.00    +0.000 A 
ATOM     21  C   UNL     1       5.683   3.447  16.381  0.00  0.00    +0.000 A 
ATOM     22  C   UNL     1       5.112   4.478  17.161  0.00  0.00    +0.000 A 
BRANCH  22  23
ATOM     23  C   UNL     1       4.651   4.100  18.556  0.00  0.00    +0.000 C 
BRANCH  23  24
ATOM     24  N   UNL     1       3.270   3.640  18.575  0.00  0.00    +0.000 N 
ATOM     25  C   UNL     1       2.694   2.662  17.824  0.00  0.00    +0.000 A 
ATOM     26  N   UNL     1       1.406   2.606  18.074  0.00  0.00    +0.000 NA
ATOM     27  C   UNL     1       1.232   3.603  18.987  0.00  0.00    +0.000 A 
ATOM     28  N   UNL     1       2.335   4.281  19.316  0.00  0.00    +0.000 NA
ENDBRANCH  23  24
ENDBRANCH  22  23
ENDBRANCH   2  17
TORSDOF 4
ENDMDL
MODEL 3
REMARK VINA RESULT:      -7.9      1.310      1.930
REMARK  Name = 
REMARK  4 active torsions:
REMARK  status: ('A' for Active; 'I' for Inactive)
REMARK    1  A    between atoms: C_2  and  C_14
REMARK    2  A    between atoms: N_3  and  C_4
REMARK    3  A    between atoms: C_19  and  C_20
REMARK    4  A    between atoms: C_20  and  N_21
REMARK                            x       y       z     vdW  Elec       q    Type
REMARK                         _______ _______ _______ _____ _____    ______ ____
ROOT
ATOM      1  O   UNL     1       2.176   7.629  19.735  0.00  0.00    +0.000 OA
ATOM      2  C   UNL     1       2.450   7.713  18.544  0.00  0.00    +0.000 C 
ATOM      3  N   UNL     1       2.079   8.775  17.728  0.00  0.00    +0.000 N 
ATOM      4  H   UNL     1       2.573   8.893  16.853  0.00  0.00    +0.000 HD
ENDROOT
BRANCH   3   5
ATOM      5  C   UNL     1       1.108   9.762  18.036  0.00  0.00    +0.000 A 
ATOM      6  C   UNL     1      -0.279   9.556  17.824  0.00  0.00    +0.000 A 
ATOM      7  C   UNL     1      -1.228  10.547  18.093  0.00  0.00    +0.000 A 
ATOM      8  C   UNL     1      -0.751  11.744  18.560  0.00  0.00    +0.000 A 
ATOM      9  N   UNL     1      -1.441  12.904  18.884  0.00  0.00    +0.000 N 
ATOM     10  C   UNL     1      -0.516  13.877  19.286  0.00  0.00    +0.000 A 
ATOM     11  O   UNL     1      -0.764  15.021  19.622  0.00  0.00    +0.000 OA
ATOM     12  N   UNL     1       0.753  13.280  19.216  0.00  0.00    +0.000 N 
ATOM     13  C   UNL     1       0.608  11.970  18.764  0.00  0.00    +0.000 A 
ATOM     14  C   UNL     1       1.561  11.004  18.515  0.00  0.00    +0.000 A 
ATOM     15  H   UNL     1      -2.433  13.059  18.827  0.00  0.00    +0.000 HD
ATOM     16  H   UNL     1       1.605  13.763  19.444  0.00  0.00    +0.000 HD
ENDBRANCH   3   5
BRANCH   2  17
ATOM     17  C   UNL     1       3.271   6.624  17.916  0.00  0.00    +0.000 A 
ATOM     18  C   UNL     1       4.470   6.972  17.263  0.00  0.00    +0.000 A 
ATOM     19  C   UNL     1       5.277   6.000  16.667  0.00  0.00    +0.000 A 
ATOM     20  C   UNL     1       4.895   4.667  16.704  0.00  0.00    +0.000 A 
ATOM     21  C   UNL     1       3.689   4.308  17.304  0.00  0.00    +0.000 A 
ATOM     22  C   UNL     1       2.847   5.271  17.904  0.00  0.00    +0.000 A 
BRANCH  22  23
ATOM     23  C   UNL     1       1.520   4.772  18.445  0.00  0.00    +0.000 C 
BRANCH  23  24
ATOM     24  N   UNL     1       1.676   4.033  19.690  0.00  0.00    +0.000 N 
ATOM     25  C   UNL     1       1.034   2.901  20.087  0.00  0.00    +0.000 A 
ATOM     26  N   UNL     1       1.390   2.592  21.313  0.00  0.00    +0.000 NA
ATOM     27  C   UNL     1       2.252   3.596  21.640  0.00  0.00    +0.000 A 
ATOM     28  N   UNL     1       2.450   4.514  20.691  0.00  0.00    +0.000 NA
ENDBRANCH  23  24
ENDBRANCH  22  23
ENDBRANCH   2  17
TORSDOF 4
ENDMDL
MODEL 4
REMARK VINA RESULT:      -7.8      2.160      2.907
REMARK  Name = 
REMARK  4 active torsions:
REMARK  status: ('A' for Active; 'I' for Inactive)
REMARK    1  A    between atoms: C_2  and  C_14
REMARK    2  A    between atoms: N_3  and  C_4
REMARK    3  A    between atoms: C_19  and  C_20
REMARK    4  A    between atoms: C_20  and  N_21
REMARK                            x       y       z     vdW  Elec       q    Type
REMARK                         _______ _______ _______ _____ _____    ______ ____
ROOT
ATOM      1  O   UNL     1       5.196   7.807  17.704  0.00  0.00    +0.000 OA
ATOM      2  C   UNL     1       4.432   6.926  17.329  0.00  0.00    +0.000 C 
ATOM      3  N   UNL     1       3.055   6.951  17.518  0.00  0.00    +0.000 N 
ATOM      4  H   UNL     1       2.489   6.338  16.947  0.00  0.00    +0.000 HD
ENDROOT
BRANCH   3   5
ATOM      5  C   UNL     1       2.351   7.812  18.398  0.00  0.00    +0.000 A 
ATOM      6  C   UNL     1       2.138   7.494  19.764  0.00  0.00    +0.000 A 
ATOM      7  C   UNL     1       1.410   8.329  20.617  0.00  0.00    +0.000 A 
ATOM      8  C   UNL     1       0.892   9.471  20.065  0.00  0.00    +0.000 A 
ATOM      9  N   UNL     1       0.116  10.462  20.650  0.00  0.00    +0.000 N 
ATOM     10  C   UNL     1      -0.201  11.417  19.675  0.00  0.00    +0.000 A 
ATOM     11  O   UNL     1      -0.884  12.413  19.828  0.00  0.00    +0.000 OA
ATOM     12  N   UNL     1       0.412  10.995  18.485  0.00  0.00    +0.000 N 
ATOM     13  C   UNL     1       1.080   9.796  18.725  0.00  0.00    +0.000 A 
ATOM     14  C   UNL     1       1.803   8.992  17.867  0.00  0.00    +0.000 A 
ATOM     15  H   UNL     1      -0.203  10.503  21.604  0.00  0.00    +0.000 HD
ATOM     16  H   UNL     1       0.339  11.497  17.617  0.00  0.00    +0.000 HD
ENDBRANCH   3   5
BRANCH   2  17
ATOM     17  C   UNL     1       4.997   5.752  16.583  0.00  0.00    +0.000 A 
ATOM     18  C   UNL     1       5.320   5.908  15.221  0.00  0.00    +0.000 A 
ATOM     19  C   UNL     1       5.855   4.853  14.479  0.00  0.00    +0.000 A 
ATOM     20  C   UNL     1       6.067   3.621  15.083  0.00  0.00    +0.000 A 
ATOM     21  C   UNL     1       5.710   3.433  16.417  0.00  0.00    +0.000 A 
ATOM     22  C   UNL     1       5.155   4.480  17.187  0.00  0.00    +0.000 A 
BRANCH  22  23
ATOM     23  C   UNL     1       4.725   4.130  18.600  0.00  0.00    +0.000 C 
BRANCH  23  24
ATOM     24  N   UNL     1       3.428   3.468  18.632  0.00  0.00    +0.000 N 
ATOM     25  C   UNL     1       3.155   2.153  18.851  0.00  0.00    +0.000 A 
ATOM     26  N   UNL     1       1.867   1.935  18.714  0.00  0.00    +0.000 NA
ATOM     27  C   UNL     1       1.385   3.166  18.384  0.00  0.00    +0.000 A 
ATOM     28  N   UNL     1       2.298   4.137  18.301  0.00  0.00    +0.000 NA
ENDBRANCH  23  24
ENDBRANCH  22  23
ENDBRANCH   2  17
TORSDOF 4
ENDMDL
MODEL 5
REMARK VINA RESULT:      -7.7      1.837      2.482
REMARK  Name = 
REMARK  4 active torsions:
REMARK  status: ('A' for Active; 'I' for Inactive)
REMARK    1  A    between atoms: C_2  and  C_14
REMARK    2  A    between atoms: N_3  and  C_4
REMARK    3  A    between atoms: C_19  and  C_20
REMARK    4  A    between atoms: C_20  and  N_21
REMARK                            x       y       z     vdW  Elec       q    Type
REMARK                         _______ _______ _______ _____ _____    ______ ____
ROOT
ATOM      1  O   UNL     1       2.182   5.549  17.715  0.00  0.00    +0.000 OA
ATOM      2  C   UNL     1       3.224   6.172  17.875  0.00  0.00    +0.000 C 
ATOM      3  N   UNL     1       3.329   7.351  18.603  0.00  0.00    +0.000 N 
ATOM      4  H   UNL     1       4.250   7.637  18.909  0.00  0.00    +0.000 HD
ENDROOT
BRANCH   3   5
ATOM      5  C   UNL     1       2.249   8.170  19.021  0.00  0.00    +0.000 A 
ATOM      6  C   UNL     1       1.726   8.124  20.339  0.00  0.00    +0.000 A 
ATOM      7  C   UNL     1       0.637   8.906  20.735  0.00  0.00    +0.000 A 
ATOM      8  C   UNL     1       0.081   9.714  19.778  0.00  0.00    +0.000 A 
ATOM      9  N   UNL     1      -1.009  10.568  19.868  0.00  0.00    +0.000 N 
ATOM     10  C   UNL     1      -1.221  11.158  18.615  0.00  0.00    +0.000 A 
ATOM     11  O   UNL     1      -2.102  11.945  18.321  0.00  0.00    +0.000 OA
ATOM     12  N   UNL     1      -0.225  10.657  17.761  0.00  0.00    +0.000 N 
ATOM     13  C   UNL     1       0.572   9.765  18.476  0.00  0.00    +0.000 A 
ATOM     14  C   UNL     1       1.652   9.010  18.066  0.00  0.00    +0.000 A 
ATOM     15  H   UNL     1      -1.586  10.738  20.675  0.00  0.00    +0.000 HD
ATOM     16  H   UNL     1      -0.148  10.912  16.792  0.00  0.00    +0.000 HD
ENDBRANCH   3   5
BRANCH   2  17
ATOM     17  C   UNL     1       4.490   5.620  17.285  0.00  0.00    +0.000 A 
ATOM     18  C   UNL     1       4.819   5.955  15.956  0.00  0.00    +0.000 A 
ATOM     19  C   UNL     1       5.986   5.476  15.358  0.00  0.00    +0.000 A 
ATOM     20  C   UNL     1       6.839   4.646  16.072  0.00  0.00    +0.000 A 
ATOM     21  C   UNL     1       6.507   4.265  17.371  0.00  0.00    +0.000 A 
ATOM     22  C   UNL     1       5.327   4.724  17.997  0.00  0.00    +0.000 A 
BRANCH  22  23
ATOM     23  C   UNL     1       5.029   4.170  19.378  0.00  0.00    +0.000 C 
BRANCH  23  24
ATOM     24  N   UNL     1       3.897   3.254  19.371  0.00  0.00    +0.000 N 
ATOM     25  C   UNL     1       3.602   2.282  18.465  0.00  0.00    +0.000 A 
ATOM     26  N   UNL     1       2.448   1.729  18.763  0.00  0.00    +0.000 NA
ATOM     27  C   UNL     1       2.056   2.424  19.869  0.00  0.00    +0.000 A 
ATOM     28  N   UNL     1       2.896   3.380  20.273  0.00  0.00    +0.000 NA
ENDBRANCH  23  24
ENDBRANCH  22  23
ENDBRANCH   2  17
TORSDOF 4
ENDMDL
MODEL 6
REMARK VINA RESULT:      -7.7      2.166      2.392
REMARK  Name = 
REMARK  4 active torsions:
REMARK  status: ('A' for Active; 'I' for Inactive)
REMARK    1  A    between atoms: C_2  and  C_14
REMARK    2  A    between atoms: N_3  and  C_4
REMARK    3  A    between atoms: C_19  and  C_20
REMARK    4  A    between atoms: C_20  and  N_21
REMARK                            x       y       z     vdW  Elec       q    Type
REMARK                         _______ _______ _______ _____ _____    ______ ____
ROOT
ATOM      1  O   UNL     1       3.055   6.384  19.992  0.00  0.00    +0.000 OA
ATOM      2  C   UNL     1       3.088   6.658  18.798  0.00  0.00    +0.000 C 
ATOM      3  N   UNL     1       2.532   7.804  18.242  0.00  0.00    +0.000 N 
ATOM      4  H   UNL     1       2.842   8.078  17.319  0.00  0.00    +0.000 HD
ENDROOT
BRANCH   3   5
ATOM      5  C   UNL     1       1.609   8.674  18.876  0.00  0.00    +0.000 A 
ATOM      6  C   UNL     1       0.834   9.617  18.154  0.00  0.00    +0.000 A 
ATOM      7  C   UNL     1      -0.046  10.498  18.789  0.00  0.00    +0.000 A 
ATOM      8  C   UNL     1      -0.113  10.422  20.156  0.00  0.00    +0.000 A 
ATOM      9  N   UNL     1      -0.864  11.176  21.047  0.00  0.00    +0.000 N 
ATOM     10  C   UNL     1      -0.572  10.751  22.350  0.00  0.00    +0.000 A 
ATOM     11  O   UNL     1      -1.032  11.203  23.382  0.00  0.00    +0.000 OA
ATOM     12  N   UNL     1       0.363   9.709  22.233  0.00  0.00    +0.000 N 
ATOM     13  C   UNL     1       0.648   9.512  20.884  0.00  0.00    +0.000 A 
ATOM     14  C   UNL     1       1.515   8.625  20.277  0.00  0.00    +0.000 A 
ATOM     15  H   UNL     1      -1.501  11.923  20.828  0.00  0.00    +0.000 HD
ATOM     16  H   UNL     1       0.753   9.226  23.024  0.00  0.00    +0.000 HD
ENDBRANCH   3   5
BRANCH   2  17
ATOM     17  C   UNL     1       3.805   5.725  17.866  0.00  0.00    +0.000 A 
ATOM     18  C   UNL     1       5.016   6.148  17.284  0.00  0.00    +0.000 A 
ATOM     19  C   UNL     1       5.729   5.319  16.415  0.00  0.00    +0.000 A 
ATOM     20  C   UNL     1       5.239   4.059  16.104  0.00  0.00    +0.000 A 
ATOM     21  C   UNL     1       4.019   3.640  16.632  0.00  0.00    +0.000 A 
ATOM     22  C   UNL     1       3.271   4.462  17.504  0.00  0.00    +0.000 A 
BRANCH  22  23
ATOM     23  C   UNL     1       1.917   3.935  17.943  0.00  0.00    +0.000 C 
BRANCH  23  24
ATOM     24  N   UNL     1       1.936   3.444  19.314  0.00  0.00    +0.000 N 
ATOM     25  C   UNL     1       0.973   3.564  20.268  0.00  0.00    +0.000 A 
ATOM     26  N   UNL     1       1.403   3.062  21.403  0.00  0.00    +0.000 NA
ATOM     27  C   UNL     1       2.668   2.659  21.095  0.00  0.00    +0.000 A 
ATOM     28  N   UNL     1       3.053   2.884  19.836  0.00  0.00    +0.000 NA
ENDBRANCH  23  24
ENDBRANCH  22  23
ENDBRANCH   2  17
TORSDOF 4
ENDMDL
MODEL 7
REMARK VINA RESULT:      -7.7      2.061      2.354
REMARK  Name = 
REMARK  4 active torsions:
REMARK  status: ('A' for Active; 'I' for Inactive)
REMARK    1  A    between atoms: C_2  and  C_14
REMARK    2  A    between atoms: N_3  and  C_4
REMARK    3  A    between atoms: C_19  and  C_20
REMARK    4  A    between atoms: C_20  and  N_21
REMARK                            x       y       z     vdW  Elec       q    Type
REMARK                         _______ _______ _______ _____ _____    ______ ____
ROOT
ATOM      1  O   UNL     1       2.137   8.426  17.488  0.00  0.00    +0.000 OA
ATOM      2  C   UNL     1       2.522   7.567  18.271  0.00  0.00    +0.000 C 
ATOM      3  N   UNL     1       2.119   7.479  19.598  0.00  0.00    +0.000 N 
ATOM      4  H   UNL     1       2.263   6.602  20.079  0.00  0.00    +0.000 HD
ENDROOT
BRANCH   3   5
ATOM      5  C   UNL     1       1.455   8.494  20.336  0.00  0.00    +0.000 A 
ATOM      6  C   UNL     1       1.303   8.433  21.744  0.00  0.00    +0.000 A 
ATOM      7  C   UNL     1       0.615   9.417  22.461  0.00  0.00    +0.000 A 
ATOM      8  C   UNL     1       0.074  10.444  21.732  0.00  0.00    +0.000 A 
ATOM      9  N   UNL     1      -0.674  11.532  22.159  0.00  0.00    +0.000 N 
ATOM     10  C   UNL     1      -1.033  12.294  21.040  0.00  0.00    +0.000 A 
ATOM     11  O   UNL     1      -1.708  13.308  21.037  0.00  0.00    +0.000 OA
ATOM     12  N   UNL     1      -0.474  11.656  19.921  0.00  0.00    +0.000 N 
ATOM     13  C   UNL     1       0.203  10.515  20.348  0.00  0.00    +0.000 A 
ATOM     14  C   UNL     1       0.886   9.561  19.621  0.00  0.00    +0.000 A 
ATOM     15  H   UNL     1      -0.950  11.750  23.101  0.00  0.00    +0.000 HD
ATOM     16  H   UNL     1      -0.585  11.992  18.980  0.00  0.00    +0.000 HD
ENDBRANCH   3   5
BRANCH   2  17
ATOM     17  C   UNL     1       3.462   6.507  17.772  0.00  0.00    +0.000 A 
ATOM     18  C   UNL     1       4.716   6.900  17.264  0.00  0.00    +0.000 A 
ATOM     19  C   UNL     1       5.632   5.958  16.793  0.00  0.00    +0.000 A 
ATOM     20  C   UNL     1       5.308   4.609  16.812  0.00  0.00    +0.000 A 
ATOM     21  C   UNL     1       4.054   4.204  17.267  0.00  0.00    +0.000 A 
ATOM     22  C   UNL     1       3.103   5.136  17.737  0.00  0.00    +0.000 A 
BRANCH  22  23
ATOM     23  C   UNL     1       1.742   4.585  18.122  0.00  0.00    +0.000 C 
BRANCH  23  24
ATOM     24  N   UNL     1       1.745   3.992  19.452  0.00  0.00    +0.000 N 
ATOM     25  C   UNL     1       1.029   2.926  19.904  0.00  0.00    +0.000 A 
ATOM     26  N   UNL     1       1.245   2.755  21.188  0.00  0.00    +0.000 NA
ATOM     27  C   UNL     1       2.099   3.773  21.490  0.00  0.00    +0.000 A 
ATOM     28  N   UNL     1       2.424   4.572  20.470  0.00  0.00    +0.000 NA
ENDBRANCH  23  24
ENDBRANCH  22  23
ENDBRANCH   2  17
TORSDOF 4
ENDMDL
MODEL 8
REMARK VINA RESULT:      -7.7      1.836      2.276
REMARK  Name = 
REMARK  4 active torsions:
REMARK  status: ('A' for Active; 'I' for Inactive)
REMARK    1  A    between atoms: C_2  and  C_14
REMARK    2  A    between atoms: N_3  and  C_4
REMARK    3  A    between atoms: C_19  and  C_20
REMARK    4  A    between atoms: C_20  and  N_21
REMARK                            x       y       z     vdW  Elec       q    Type
REMARK                         _______ _______ _______ _____ _____    ______ ____
ROOT
ATOM      1  O   UNL     1       1.678   5.496  17.776  0.00  0.00    +0.000 OA
ATOM      2  C   UNL     1       2.792   5.990  17.894  0.00  0.00    +0.000 C 
ATOM      3  N   UNL     1       3.072   7.120  18.653  0.00  0.00    +0.000 N 
ATOM      4  H   UNL     1       4.035   7.288  18.914  0.00  0.00    +0.000 HD
ENDROOT
BRANCH   3   5
ATOM      5  C   UNL     1       2.118   8.038  19.163  0.00  0.00    +0.000 A 
ATOM      6  C   UNL     1       1.619   7.959  20.488  0.00  0.00    +0.000 A 
ATOM      7  C   UNL     1       0.651   8.844  20.972  0.00  0.00    +0.000 A 
ATOM      8  C   UNL     1       0.188   9.789  20.094  0.00  0.00    +0.000 A 
ATOM      9  N   UNL     1      -0.778  10.768  20.279  0.00  0.00    +0.000 N 
ATOM     10  C   UNL     1      -0.934  11.475  19.080  0.00  0.00    +0.000 A 
ATOM     11  O   UNL     1      -1.709  12.390  18.870  0.00  0.00    +0.000 OA
ATOM     12  N   UNL     1      -0.030  10.915  18.162  0.00  0.00    +0.000 N 
ATOM     13  C   UNL     1       0.655   9.875  18.786  0.00  0.00    +0.000 A 
ATOM     14  C   UNL     1       1.618   9.019  18.290  0.00  0.00    +0.000 A 
ATOM     15  H   UNL     1      -1.311  10.949  21.113  0.00  0.00    +0.000 HD
ATOM     16  H   UNL     1       0.061  11.232  17.212  0.00  0.00    +0.000 HD
ENDBRANCH   3   5
BRANCH   2  17
ATOM     17  C   UNL     1       3.951   5.323  17.211  0.00  0.00    +0.000 A 
ATOM     18  C   UNL     1       4.887   6.124  16.528  0.00  0.00    +0.000 A 
ATOM     19  C   UNL     1       5.987   5.560  15.881  0.00  0.00    +0.000 A 
ATOM     20  C   UNL     1       6.167   4.183  15.896  0.00  0.00    +0.000 A 
ATOM     21  C   UNL     1       5.227   3.369  16.526  0.00  0.00    +0.000 A 
ATOM     22  C   UNL     1       4.098   3.913  17.178  0.00  0.00    +0.000 A 
BRANCH  22  23
ATOM     23  C   UNL     1       3.100   2.923  17.750  0.00  0.00    +0.000 C 
BRANCH  23  24
ATOM     24  N   UNL     1       3.235   2.776  19.192  0.00  0.00    +0.000 N 
ATOM     25  C   UNL     1       4.298   2.300  19.898  0.00  0.00    +0.000 A 
ATOM     26  N   UNL     1       3.998   2.246  21.175  0.00  0.00    +0.000 NA
ATOM     27  C   UNL     1       2.708   2.685  21.202  0.00  0.00    +0.000 A 
ATOM     28  N   UNL     1       2.185   3.006  20.015  0.00  0.00    +0.000 NA
ENDBRANCH  23  24
ENDBRANCH  22  23
ENDBRANCH   2  17
TORSDOF 4
ENDMDL
MODEL 9
REMARK VINA RESULT:      -7.6      2.393      2.724
REMARK  Name = 
REMARK  4 active torsions:
REMARK  status: ('A' for Active; 'I' for Inactive)
REMARK    1  A    between atoms: C_2  and  C_14
REMARK    2  A    between atoms: N_3  and  C_4
REMARK    3  A    between atoms: C_19  and  C_20
REMARK    4  A    between atoms: C_20  and  N_21
REMARK                            x       y       z     vdW  Elec       q    Type
REMARK                         _______ _______ _______ _____ _____    ______ ____
ROOT
ATOM      1  O   UNL     1       1.367   5.734  17.790  0.00  0.00    +0.000 OA
ATOM      2  C   UNL     1       2.510   6.080  18.062  0.00  0.00    +0.000 C 
ATOM      3  N   UNL     1       2.829   7.109  18.941  0.00  0.00    +0.000 N 
ATOM      4  H   UNL     1       3.770   7.140  19.310  0.00  0.00    +0.000 HD
ENDROOT
BRANCH   3   5
ATOM      5  C   UNL     1       1.934   8.095  19.429  0.00  0.00    +0.000 A 
ATOM      6  C   UNL     1       1.458   9.157  18.619  0.00  0.00    +0.000 A 
ATOM      7  C   UNL     1       0.606  10.148  19.117  0.00  0.00    +0.000 A 
ATOM      8  C   UNL     1       0.260  10.054  20.440  0.00  0.00    +0.000 A 
ATOM      9  N   UNL     1      -0.536  10.893  21.206  0.00  0.00    +0.000 N 
ATOM     10  C   UNL     1      -0.569  10.402  22.518  0.00  0.00    +0.000 A 
ATOM     11  O   UNL     1      -1.154  10.897  23.465  0.00  0.00    +0.000 OA
ATOM     12  N   UNL     1       0.212   9.235  22.532  0.00  0.00    +0.000 N 
ATOM     13  C   UNL     1       0.726   9.025  21.254  0.00  0.00    +0.000 A 
ATOM     14  C   UNL     1       1.560   8.031  20.782  0.00  0.00    +0.000 A 
ATOM     15  H   UNL     1      -1.003  11.732  20.907  0.00  0.00    +0.000 HD
ATOM     16  H   UNL     1       0.366   8.682  23.357  0.00  0.00    +0.000 HD
ENDBRANCH   3   5
BRANCH   2  17
ATOM     17  C   UNL     1       3.655   5.331  17.444  0.00  0.00    +0.000 A 
ATOM     18  C   UNL     1       4.684   6.063  16.818  0.00  0.00    +0.000 A 
ATOM     19  C   UNL     1       5.776   5.420  16.232  0.00  0.00    +0.000 A 
ATOM     20  C   UNL     1       5.855   4.035  16.253  0.00  0.00    +0.000 A 
ATOM     21  C   UNL     1       4.825   3.291  16.826  0.00  0.00    +0.000 A 
ATOM     22  C   UNL     1       3.702   3.915  17.415  0.00  0.00    +0.000 A 
BRANCH  22  23
ATOM     23  C   UNL     1       2.605   2.999  17.926  0.00  0.00    +0.000 C 
BRANCH  23  24
ATOM     24  N   UNL     1       2.571   2.940  19.380  0.00  0.00    +0.000 N 
ATOM     25  C   UNL     1       3.570   2.591  20.236  0.00  0.00    +0.000 A 
ATOM     26  N   UNL     1       3.118   2.579  21.469  0.00  0.00    +0.000 NA
ATOM     27  C   UNL     1       1.805   2.912  21.314  0.00  0.00    +0.000 A 
ATOM     28  N   UNL     1       1.412   3.126  20.056  0.00  0.00    +0.000 NA
ENDBRANCH  23  24
ENDBRANCH  22  23
ENDBRANCH   2  17
TORSDOF 4
ENDMDL
