MODEL 1
REMARK VINA RESULT:      -8.9      0.000      0.000
REMARK  Name = 
REMARK  4 active torsions:
REMARK  status: ('A' for Active; 'I' for Inactive)
REMARK    1  A    between atoms: C_2  and  C_3
REMARK    2  A    between atoms: C_3  and  C_4
REMARK    3  A    between atoms: N_9  and  C_10
REMARK    4  A    between atoms: C_14  and  C_15
REMARK                            x       y       z     vdW  Elec       q    Type
REMARK                         _______ _______ _______ _____ _____    ______ ____
ROOT
ATOM      1  C   UNL     1       6.370   6.537  16.713  0.00  0.00    +0.000 A 
ATOM      2  C   UNL     1       6.484   5.882  15.485  0.00  0.00    +0.000 A 
ATOM      3  C   UNL     1       5.900   4.632  15.284  0.00  0.00    +0.000 A 
ATOM      4  C   UNL     1       5.239   4.010  16.331  0.00  0.00    +0.000 A 
ATOM      5  C   UNL     1       5.244   4.575  17.612  0.00  0.00    +0.000 A 
ATOM      6  C   UNL     1       5.764   5.869  17.788  0.00  0.00    +0.000 A 
ENDROOT
BRANCH   5   7
ATOM      7  C   UNL     1       4.790   3.800  18.772  0.00  0.00    +0.000 A 
ATOM      8  N   UNL     1       5.545   3.069  19.572  0.00  0.00    +0.000 NA
ATOM      9  N   UNL     1       4.733   2.457  20.493  0.00  0.00    +0.000 NA
ATOM     10  C   UNL     1       3.485   2.789  20.237  0.00  0.00    +0.000 A 
ATOM     11  N   UNL     1       3.469   3.617  19.141  0.00  0.00    +0.000 N 
ATOM     12  C   UNL     1       2.309   4.166  18.471  0.00  0.00    +0.000 C 
ATOM     13  C   UNL     1       1.111   3.232  18.390  0.00  0.00    +0.000 C 
ATOM     14  C   UNL     1       0.288   3.188  19.672  0.00  0.00    +0.000 C 
ATOM     15  C   UNL     1       1.093   3.241  20.972  0.00  0.00    +0.000 C 
ATOM     16  C   UNL     1       2.289   2.297  20.987  0.00  0.00    +0.000 C 
ENDBRANCH   5   7
BRANCH   1  19
ATOM     17  O   UNL     1       8.406   7.402  18.630  0.00  0.00    +0.000 OA
ATOM     18  C   UNL     1       7.824   8.187  17.882  0.00  0.00    +0.000 C 
ATOM     19  N   UNL     1       6.874   7.840  16.932  0.00  0.00    +0.000 N 
ATOM     20  H   UNL     1       6.624   8.542  16.246  0.00  0.00    +0.000 HD
BRANCH  18  21
ATOM     21  C   UNL     1       8.070   9.684  17.957  0.00  0.00    +0.000 C 
BRANCH  21  22
ATOM     22  C   UNL     1       9.411  10.026  18.619  0.00  0.00    +0.000 C 
ATOM     23  C   UNL     1      10.111  11.157  17.923  0.00  0.00    +0.000 C 
ATOM     24  C   UNL     1      10.585  12.066  18.781  0.00  0.00    +0.000 C 
ATOM     25  C   UNL     1      10.296  11.699  20.197  0.00  0.00    +0.000 C 
ATOM     26  C   UNL     1       9.287  10.562  20.059  0.00  0.00    +0.000 C 
ENDBRANCH  21  22
ENDBRANCH  18  21
ENDBRANCH   1  19
TORSDOF 4
ENDMDL
MODEL 2
REMARK VINA RESULT:      -8.5      3.652      6.490
REMARK  Name = 
REMARK  4 active torsions:
REMARK  status: ('A' for Active; 'I' for Inactive)
REMARK    1  A    between atoms: C_2  and  C_3
REMARK    2  A    between atoms: C_3  and  C_4
REMARK    3  A    between atoms: N_9  and  C_10
REMARK    4  A    between atoms: C_14  and  C_15
REMARK                            x       y       z     vdW  Elec       q    Type
REMARK                         _______ _______ _______ _____ _____    ______ ____
ROOT
ATOM      1  C   UNL     1       6.597   4.548  16.042  0.00  0.00    +0.000 A 
ATOM      2  C   UNL     1       7.759   4.775  16.783  0.00  0.00    +0.000 A 
ATOM      3  C   UNL     1       7.695   5.042  18.150  0.00  0.00    +0.000 A 
ATOM      4  C   UNL     1       6.460   5.134  18.772  0.00  0.00    +0.000 A 
ATOM      5  C   UNL     1       5.279   5.064  18.023  0.00  0.00    +0.000 A 
ATOM      6  C   UNL     1       5.350   4.716  16.663  0.00  0.00    +0.000 A 
ENDROOT
BRANCH   5   7
ATOM      7  C   UNL     1       3.991   5.430  18.623  0.00  0.00    +0.000 A 
ATOM      8  N   UNL     1       3.452   6.635  18.649  0.00  0.00    +0.000 NA
ATOM      9  N   UNL     1       2.277   6.569  19.356  0.00  0.00    +0.000 NA
ATOM     10  C   UNL     1       2.117   5.335  19.786  0.00  0.00    +0.000 A 
ATOM     11  N   UNL     1       3.190   4.584  19.369  0.00  0.00    +0.000 N 
ATOM     12  C   UNL     1       3.461   3.194  19.672  0.00  0.00    +0.000 C 
ATOM     13  C   UNL     1       3.080   2.756  21.077  0.00  0.00    +0.000 C 
ATOM     14  C   UNL     1       1.596   2.450  21.237  0.00  0.00    +0.000 C 
ATOM     15  C   UNL     1       0.648   3.376  20.472  0.00  0.00    +0.000 C 
ATOM     16  C   UNL     1       0.983   4.855  20.631  0.00  0.00    +0.000 C 
ENDBRANCH   5   7
BRANCH   1  19
ATOM     17  O   UNL     1       8.208   5.705  13.890  0.00  0.00    +0.000 OA
ATOM     18  C   UNL     1       7.394   4.803  13.697  0.00  0.00    +0.000 C 
ATOM     19  N   UNL     1       6.623   4.191  14.675  0.00  0.00    +0.000 N 
ATOM     20  H   UNL     1       6.149   3.332  14.424  0.00  0.00    +0.000 HD
BRANCH  18  21
ATOM     21  C   UNL     1       7.111   4.276  12.301  0.00  0.00    +0.000 C 
BRANCH  21  22
ATOM     22  C   UNL     1       6.320   2.961  12.319  0.00  0.00    +0.000 C 
ATOM     23  C   UNL     1       4.934   3.131  11.767  0.00  0.00    +0.000 C 
ATOM     24  C   UNL     1       4.609   2.162  10.905  0.00  0.00    +0.000 C 
ATOM     25  C   UNL     1       5.710   1.173  10.738  0.00  0.00    +0.000 C 
ATOM     26  C   UNL     1       6.897   1.863  11.406  0.00  0.00    +0.000 C 
ENDBRANCH  21  22
ENDBRANCH  18  21
ENDBRANCH   1  19
TORSDOF 4
ENDMDL
MODEL 3
REMARK VINA RESULT:      -8.3      6.114      7.551
REMARK  Name = 
REMARK  4 active torsions:
REMARK  status: ('A' for Active; 'I' for Inactive)
REMARK    1  A    between atoms: C_2  and  C_3
REMARK    2  A    between atoms: C_3  and  C_4
REMARK    3  A    between atoms: N_9  and  C_10
REMARK    4  A    between atoms: C_14  and  C_15
REMARK                            x       y       z     vdW  Elec       q    Type
REMARK                         _______ _______ _______ _____ _____    ______ ____
ROOT
ATOM      1  C   UNL     1       1.217   9.358  20.074  0.00  0.00    +0.000 A 
ATOM      2  C   UNL     1       1.248  10.010  18.839  0.00  0.00    +0.000 A 
ATOM      3  C   UNL     1       1.727   9.363  17.701  0.00  0.00    +0.000 A 
ATOM      4  C   UNL     1       2.226   8.074  17.805  0.00  0.00    +0.000 A 
ATOM      5  C   UNL     1       2.349   7.457  19.056  0.00  0.00    +0.000 A 
ATOM      6  C   UNL     1       1.791   8.082  20.185  0.00  0.00    +0.000 A 
ENDROOT
BRANCH   5   7
ATOM      7  C   UNL     1       3.119   6.218  19.206  0.00  0.00    +0.000 A 
ATOM      8  N   UNL     1       4.290   5.951  18.657  0.00  0.00    +0.000 NA
ATOM      9  N   UNL     1       4.642   4.667  18.991  0.00  0.00    +0.000 NA
ATOM     10  C   UNL     1       3.675   4.143  19.715  0.00  0.00    +0.000 A 
ATOM     11  N   UNL     1       2.678   5.078  19.855  0.00  0.00    +0.000 N 
ATOM     12  C   UNL     1       1.401   4.909  20.515  0.00  0.00    +0.000 C 
ATOM     13  C   UNL     1       0.760   3.542  20.335  0.00  0.00    +0.000 C 
ATOM     14  C   UNL     1       1.326   2.478  21.267  0.00  0.00    +0.000 C 
ATOM     15  C   UNL     1       2.834   2.557  21.515  0.00  0.00    +0.000 C 
ATOM     16  C   UNL     1       3.651   2.746  20.243  0.00  0.00    +0.000 C 
ENDBRANCH   5   7
BRANCH   1  19
ATOM     17  O   UNL     1      -0.838   8.278  21.856  0.00  0.00    +0.000 OA
ATOM     18  C   UNL     1      -0.336   9.389  22.020  0.00  0.00    +0.000 C 
ATOM     19  N   UNL     1       0.662   9.947  21.233  0.00  0.00    +0.000 N 
ATOM     20  H   UNL     1       1.130  10.771  21.590  0.00  0.00    +0.000 HD
BRANCH  18  21
ATOM     21  C   UNL     1      -0.809  10.317  23.125  0.00  0.00    +0.000 C 
BRANCH  21  22
ATOM     22  C   UNL     1      -1.527  11.559  22.580  0.00  0.00    +0.000 C 
ATOM     23  C   UNL     1      -2.725  11.925  23.408  0.00  0.00    +0.000 C 
ATOM     24  C   UNL     1      -2.776  13.234  23.677  0.00  0.00    +0.000 C 
ATOM     25  C   UNL     1      -1.632  13.972  23.070  0.00  0.00    +0.000 C 
ATOM     26  C   UNL     1      -0.689  12.851  22.639  0.00  0.00    +0.000 C 
ENDBRANCH  21  22
ENDBRANCH  18  21
ENDBRANCH   1  19
TORSDOF 4
ENDMDL
MODEL 4
REMARK VINA RESULT:      -8.3      1.176      1.467
REMARK  Name = 
REMARK  4 active torsions:
REMARK  status: ('A' for Active; 'I' for Inactive)
REMARK    1  A    between atoms: C_2  and  C_3
REMARK    2  A    between atoms: C_3  and  C_4
REMARK    3  A    between atoms: N_9  and  C_10
REMARK    4  A    between atoms: C_14  and  C_15
REMARK                            x       y       z     vdW  Elec       q    Type
REMARK                         _______ _______ _______ _____ _____    ______ ____
ROOT
ATOM      1  C   UNL     1       6.575   6.171  16.432  0.00  0.00    +0.000 A 
ATOM      2  C   UNL     1       7.241   5.442  15.443  0.00  0.00    +0.000 A 
ATOM      3  C   UNL     1       6.794   4.176  15.065  0.00  0.00    +0.000 A 
ATOM      4  C   UNL     1       5.706   3.614  15.713  0.00  0.00    +0.000 A 
ATOM      5  C   UNL     1       5.119   4.257  16.809  0.00  0.00    +0.000 A 
ATOM      6  C   UNL     1       5.522   5.564  17.132  0.00  0.00    +0.000 A 
ENDROOT
BRANCH   5   7
ATOM      7  C   UNL     1       4.157   3.551  17.663  0.00  0.00    +0.000 A 
ATOM      8  N   UNL     1       3.755   2.300  17.524  0.00  0.00    +0.000 NA
ATOM      9  N   UNL     1       2.807   2.042  18.483  0.00  0.00    +0.000 NA
ATOM     10  C   UNL     1       2.610   3.140  19.183  0.00  0.00    +0.000 A 
ATOM     11  N   UNL     1       3.423   4.128  18.684  0.00  0.00    +0.000 N 
ATOM     12  C   UNL     1       3.484   5.512  19.105  0.00  0.00    +0.000 C 
ATOM     13  C   UNL     1       2.146   6.129  19.482  0.00  0.00    +0.000 C 
ATOM     14  C   UNL     1       1.689   5.772  20.891  0.00  0.00    +0.000 C 
ATOM     15  C   UNL     1       1.990   4.340  21.337  0.00  0.00    +0.000 C 
ATOM     16  C   UNL     1       1.624   3.289  20.296  0.00  0.00    +0.000 C 
ENDBRANCH   5   7
BRANCH   1  19
ATOM     17  O   UNL     1       8.325   7.050  18.607  0.00  0.00    +0.000 OA
ATOM     18  C   UNL     1       7.760   7.839  17.851  0.00  0.00    +0.000 C 
ATOM     19  N   UNL     1       6.944   7.489  16.784  0.00  0.00    +0.000 N 
ATOM     20  H   UNL     1       6.708   8.217  16.120  0.00  0.00    +0.000 HD
BRANCH  18  21
ATOM     21  C   UNL     1       7.871   9.341  18.046  0.00  0.00    +0.000 C 
BRANCH  21  22
ATOM     22  C   UNL     1       9.221   9.757  18.644  0.00  0.00    +0.000 C 
ATOM     23  C   UNL     1       9.854  10.883  17.878  0.00  0.00    +0.000 C 
ATOM     24  C   UNL     1      10.324  11.843  18.681  0.00  0.00    +0.000 C 
ATOM     25  C   UNL     1      10.100  11.524  20.120  0.00  0.00    +0.000 C 
ATOM     26  C   UNL     1       9.128  10.348  20.065  0.00  0.00    +0.000 C 
ENDBRANCH  21  22
ENDBRANCH  18  21
ENDBRANCH   1  19
TORSDOF 4
ENDMDL
MODEL 5
REMARK VINA RESULT:      -8.1      1.278      1.659
REMARK  Name = 
REMARK  4 active torsions:
REMARK  status: ('A' for Active; 'I' for Inactive)
REMARK    1  A    between atoms: C_2  and  C_3
REMARK    2  A    between atoms: C_3  and  C_4
REMARK    3  A    between atoms: N_9  and  C_10
REMARK    4  A    between atoms: C_14  and  C_15
REMARK                            x       y       z     vdW  Elec       q    Type
REMARK                         _______ _______ _______ _____ _____    ______ ____
ROOT
ATOM      1  C   UNL     1       7.065   5.848  17.191  0.00  0.00    +0.000 A 
ATOM      2  C   UNL     1       7.254   5.691  15.815  0.00  0.00    +0.000 A 
ATOM      3  C   UNL     1       6.373   4.921  15.056  0.00  0.00    +0.000 A 
ATOM      4  C   UNL     1       5.327   4.262  15.681  0.00  0.00    +0.000 A 
ATOM      5  C   UNL     1       5.208   4.278  17.076  0.00  0.00    +0.000 A 
ATOM      6  C   UNL     1       6.048   5.119  17.826  0.00  0.00    +0.000 A 
ENDROOT
BRANCH   5   7
ATOM      7  C   UNL     1       4.278   3.370  17.757  0.00  0.00    +0.000 A 
ATOM      8  N   UNL     1       4.025   2.116  17.429  0.00  0.00    +0.000 NA
ATOM      9  N   UNL     1       3.053   1.636  18.273  0.00  0.00    +0.000 NA
ATOM     10  C   UNL     1       2.695   2.603  19.091  0.00  0.00    +0.000 A 
ATOM     11  N   UNL     1       3.424   3.727  18.785  0.00  0.00    +0.000 N 
ATOM     12  C   UNL     1       3.307   5.040  19.384  0.00  0.00    +0.000 C 
ATOM     13  C   UNL     1       1.890   5.463  19.736  0.00  0.00    +0.000 C 
ATOM     14  C   UNL     1       1.388   4.874  21.049  0.00  0.00    +0.000 C 
ATOM     15  C   UNL     1       1.816   3.432  21.328  0.00  0.00    +0.000 C 
ATOM     16  C   UNL     1       1.632   2.501  20.136  0.00  0.00    +0.000 C 
ENDBRANCH   5   7
BRANCH   1  19
ATOM     17  O   UNL     1       7.167   8.772  17.231  0.00  0.00    +0.000 OA
ATOM     18  C   UNL     1       7.901   8.074  17.929  0.00  0.00    +0.000 C 
ATOM     19  N   UNL     1       7.883   6.687  17.981  0.00  0.00    +0.000 N 
ATOM     20  H   UNL     1       8.387   6.243  18.739  0.00  0.00    +0.000 HD
BRANCH  18  21
ATOM     21  C   UNL     1       8.974   8.687  18.812  0.00  0.00    +0.000 C 
BRANCH  21  22
ATOM     22  C   UNL     1       8.892  10.219  18.858  0.00  0.00    +0.000 C 
ATOM     23  C   UNL     1       9.363  10.769  20.173  0.00  0.00    +0.000 C 
ATOM     24  C   UNL     1      10.192  11.807  20.021  0.00  0.00    +0.000 C 
ATOM     25  C   UNL     1      10.410  12.140  18.585  0.00  0.00    +0.000 C 
ATOM     26  C   UNL     1       9.822  10.932  17.858  0.00  0.00    +0.000 C 
ENDBRANCH  21  22
ENDBRANCH  18  21
ENDBRANCH   1  19
TORSDOF 4
ENDMDL
MODEL 6
REMARK VINA RESULT:      -8.1      6.094      7.706
REMARK  Name = 
REMARK  4 active torsions:
REMARK  status: ('A' for Active; 'I' for Inactive)
REMARK    1  A    between atoms: C_2  and  C_3
REMARK    2  A    between atoms: C_3  and  C_4
REMARK    3  A    between atoms: N_9  and  C_10
REMARK    4  A    between atoms: C_14  and  C_15
REMARK                            x       y       z     vdW  Elec       q    Type
REMARK                         _______ _______ _______ _____ _____    ______ ____
ROOT
ATOM      1  C   UNL     1       0.912   9.218  19.880  0.00  0.00    +0.000 A 
ATOM      2  C   UNL     1       1.225  10.039  18.793  0.00  0.00    +0.000 A 
ATOM      3  C   UNL     1       2.019   9.570  17.748  0.00  0.00    +0.000 A 
ATOM      4  C   UNL     1       2.546   8.290  17.811  0.00  0.00    +0.000 A 
ATOM      5  C   UNL     1       2.375   7.505  18.958  0.00  0.00    +0.000 A 
ATOM      6  C   UNL     1       1.509   7.952  19.971  0.00  0.00    +0.000 A 
ENDROOT
BRANCH   5   7
ATOM      7  C   UNL     1       3.150   6.273  19.143  0.00  0.00    +0.000 A 
ATOM      8  N   UNL     1       4.335   6.006  18.625  0.00  0.00    +0.000 NA
ATOM      9  N   UNL     1       4.687   4.729  18.985  0.00  0.00    +0.000 NA
ATOM     10  C   UNL     1       3.707   4.209  19.694  0.00  0.00    +0.000 A 
ATOM     11  N   UNL     1       2.702   5.140  19.798  0.00  0.00    +0.000 N 
ATOM     12  C   UNL     1       1.411   4.971  20.431  0.00  0.00    +0.000 C 
ATOM     13  C   UNL     1       0.783   3.597  20.256  0.00  0.00    +0.000 C 
ATOM     14  C   UNL     1       1.334   2.551  21.216  0.00  0.00    +0.000 C 
ATOM     15  C   UNL     1       2.836   2.643  21.498  0.00  0.00    +0.000 C 
ATOM     16  C   UNL     1       3.681   2.819  20.241  0.00  0.00    +0.000 C 
ENDBRANCH   5   7
BRANCH   1  19
ATOM     17  O   UNL     1       1.152  11.536  21.650  0.00  0.00    +0.000 OA
ATOM     18  C   UNL     1       0.231  10.726  21.741  0.00  0.00    +0.000 C 
ATOM     19  N   UNL     1       0.041   9.626  20.916  0.00  0.00    +0.000 N 
ATOM     20  H   UNL     1      -0.857   9.159  20.962  0.00  0.00    +0.000 HD
BRANCH  18  21
ATOM     21  C   UNL     1      -0.812  10.832  22.839  0.00  0.00    +0.000 C 
BRANCH  21  22
ATOM     22  C   UNL     1      -1.622  12.133  22.757  0.00  0.00    +0.000 C 
ATOM     23  C   UNL     1      -2.083  12.421  21.357  0.00  0.00    +0.000 C 
ATOM     24  C   UNL     1      -3.370  12.782  21.312  0.00  0.00    +0.000 C 
ATOM     25  C   UNL     1      -3.989  12.810  22.667  0.00  0.00    +0.000 C 
ATOM     26  C   UNL     1      -2.952  12.100  23.534  0.00  0.00    +0.000 C 
ENDBRANCH  21  22
ENDBRANCH  18  21
ENDBRANCH   1  19
TORSDOF 4
ENDMDL
MODEL 7
REMARK VINA RESULT:      -8.0      4.298      7.317
REMARK  Name = 
REMARK  4 active torsions:
REMARK  status: ('A' for Active; 'I' for Inactive)
REMARK    1  A    between atoms: C_2  and  C_3
REMARK    2  A    between atoms: C_3  and  C_4
REMARK    3  A    between atoms: N_9  and  C_10
REMARK    4  A    between atoms: C_14  and  C_15
REMARK                            x       y       z     vdW  Elec       q    Type
REMARK                         _______ _______ _______ _____ _____    ______ ____
ROOT
ATOM      1  C   UNL     1       1.611   5.298  20.474  0.00  0.00    +0.000 A 
ATOM      2  C   UNL     1       0.801   4.160  20.514  0.00  0.00    +0.000 A 
ATOM      3  C   UNL     1       1.150   3.008  19.810  0.00  0.00    +0.000 A 
ATOM      4  C   UNL     1       2.289   3.009  19.019  0.00  0.00    +0.000 A 
ATOM      5  C   UNL     1       3.030   4.183  18.840  0.00  0.00    +0.000 A 
ATOM      6  C   UNL     1       2.719   5.314  19.614  0.00  0.00    +0.000 A 
ENDROOT
BRANCH   5   7
ATOM      7  C   UNL     1       4.064   4.263  17.802  0.00  0.00    +0.000 A 
ATOM      8  N   UNL     1       4.086   3.594  16.664  0.00  0.00    +0.000 NA
ATOM      9  N   UNL     1       5.249   3.902  16.003  0.00  0.00    +0.000 NA
ATOM     10  C   UNL     1       5.947   4.732  16.749  0.00  0.00    +0.000 A 
ATOM     11  N   UNL     1       5.249   4.969  17.909  0.00  0.00    +0.000 N 
ATOM     12  C   UNL     1       5.672   5.764  19.042  0.00  0.00    +0.000 C 
ATOM     13  C   UNL     1       7.152   5.670  19.378  0.00  0.00    +0.000 C 
ATOM     14  C   UNL     1       8.032   6.548  18.497  0.00  0.00    +0.000 C 
ATOM     15  C   UNL     1       7.615   6.631  17.027  0.00  0.00    +0.000 C 
ATOM     16  C   UNL     1       7.296   5.275  16.407  0.00  0.00    +0.000 C 
ENDBRANCH   5   7
BRANCH   1  19
ATOM     17  O   UNL     1       1.796   8.103  19.660  0.00  0.00    +0.000 OA
ATOM     18  C   UNL     1       1.474   7.763  20.798  0.00  0.00    +0.000 C 
ATOM     19  N   UNL     1       1.338   6.454  21.240  0.00  0.00    +0.000 N 
ATOM     20  H   UNL     1       0.873   6.308  22.128  0.00  0.00    +0.000 HD
BRANCH  18  21
ATOM     21  C   UNL     1       1.225   8.787  21.891  0.00  0.00    +0.000 C 
BRANCH  21  22
ATOM     22  C   UNL     1      -0.179   9.401  21.811  0.00  0.00    +0.000 C 
ATOM     23  C   UNL     1      -0.643   9.924  23.140  0.00  0.00    +0.000 C 
ATOM     24  C   UNL     1      -1.183  11.143  23.045  0.00  0.00    +0.000 C 
ATOM     25  C   UNL     1      -1.187  11.643  21.642  0.00  0.00    +0.000 C 
ATOM     26  C   UNL     1      -0.270  10.657  20.922  0.00  0.00    +0.000 C 
ENDBRANCH  21  22
ENDBRANCH  18  21
ENDBRANCH   1  19
TORSDOF 4
ENDMDL
MODEL 8
REMARK VINA RESULT:      -7.9      1.419      1.858
REMARK  Name = 
REMARK  4 active torsions:
REMARK  status: ('A' for Active; 'I' for Inactive)
REMARK    1  A    between atoms: C_2  and  C_3
REMARK    2  A    between atoms: C_3  and  C_4
REMARK    3  A    between atoms: N_9  and  C_10
REMARK    4  A    between atoms: C_14  and  C_15
REMARK                            x       y       z     vdW  Elec       q    Type
REMARK                         _______ _______ _______ _____ _____    ______ ____
ROOT
ATOM      1  C   UNL     1       6.744   7.172  17.095  0.00  0.00    +0.000 A 
ATOM      2  C   UNL     1       7.268   6.095  16.378  0.00  0.00    +0.000 A 
ATOM      3  C   UNL     1       6.530   4.924  16.204  0.00  0.00    +0.000 A 
ATOM      4  C   UNL     1       5.281   4.810  16.792  0.00  0.00    +0.000 A 
ATOM      5  C   UNL     1       4.800   5.813  17.642  0.00  0.00    +0.000 A 
ATOM      6  C   UNL     1       5.511   7.020  17.748  0.00  0.00    +0.000 A 
ENDROOT
BRANCH   5   7
ATOM      7  C   UNL     1       3.616   5.581  18.477  0.00  0.00    +0.000 A 
ATOM      8  N   UNL     1       3.102   6.417  19.360  0.00  0.00    +0.000 NA
ATOM      9  N   UNL     1       2.039   5.801  19.972  0.00  0.00    +0.000 NA
ATOM     10  C   UNL     1       1.925   4.582  19.486  0.00  0.00    +0.000 A 
ATOM     11  N   UNL     1       2.917   4.389  18.556  0.00  0.00    +0.000 N 
ATOM     12  C   UNL     1       3.210   3.175  17.823  0.00  0.00    +0.000 C 
ATOM     13  C   UNL     1       3.028   1.888  18.612  0.00  0.00    +0.000 C 
ATOM     14  C   UNL     1       1.578   1.427  18.697  0.00  0.00    +0.000 C 
ATOM     15  C   UNL     1       0.543   2.543  18.859  0.00  0.00    +0.000 C 
ATOM     16  C   UNL     1       0.916   3.570  19.921  0.00  0.00    +0.000 C 
ENDBRANCH   5   7
BRANCH   1  19
ATOM     17  O   UNL     1       8.769   7.939  19.063  0.00  0.00    +0.000 OA
ATOM     18  C   UNL     1       8.356   8.714  18.201  0.00  0.00    +0.000 C 
ATOM     19  N   UNL     1       7.422   8.406  17.222  0.00  0.00    +0.000 N 
ATOM     20  H   UNL     1       7.321   9.058  16.454  0.00  0.00    +0.000 HD
BRANCH  18  21
ATOM     21  C   UNL     1       8.818  10.160  18.148  0.00  0.00    +0.000 C 
BRANCH  21  22
ATOM     22  C   UNL     1       9.871  10.479  19.217  0.00  0.00    +0.000 C 
ATOM     23  C   UNL     1      10.813  11.562  18.774  0.00  0.00    +0.000 C 
ATOM     24  C   UNL     1      11.009  12.483  19.723  0.00  0.00    +0.000 C 
ATOM     25  C   UNL     1      10.246  12.174  20.965  0.00  0.00    +0.000 C 
ATOM     26  C   UNL     1       9.293  11.068  20.518  0.00  0.00    +0.000 C 
ENDBRANCH  21  22
ENDBRANCH  18  21
ENDBRANCH   1  19
TORSDOF 4
ENDMDL
MODEL 9
REMARK VINA RESULT:      -7.9      4.578      7.111
REMARK  Name = 
REMARK  4 active torsions:
REMARK  status: ('A' for Active; 'I' for Inactive)
REMARK    1  A    between atoms: C_2  and  C_3
REMARK    2  A    between atoms: C_3  and  C_4
REMARK    3  A    between atoms: N_9  and  C_10
REMARK    4  A    between atoms: C_14  and  C_15
REMARK                            x       y       z     vdW  Elec       q    Type
REMARK                         _______ _______ _______ _____ _____    ______ ____
ROOT
ATOM      1  C   UNL     1       2.098   6.976  19.879  0.00  0.00    +0.000 A 
ATOM      2  C   UNL     1       1.341   5.945  20.439  0.00  0.00    +0.000 A 
ATOM      3  C   UNL     1       1.912   4.701  20.704  0.00  0.00    +0.000 A 
ATOM      4  C   UNL     1       3.235   4.469  20.361  0.00  0.00    +0.000 A 
ATOM      5  C   UNL     1       3.968   5.433  19.659  0.00  0.00    +0.000 A 
ATOM      6  C   UNL     1       3.413   6.710  19.468  0.00  0.00    +0.000 A 
ENDROOT
BRANCH   5   7
ATOM      7  C   UNL     1       5.263   5.096  19.058  0.00  0.00    +0.000 A 
ATOM      8  N   UNL     1       6.406   4.930  19.698  0.00  0.00    +0.000 NA
ATOM      9  N   UNL     1       7.390   4.687  18.772  0.00  0.00    +0.000 NA
ATOM     10  C   UNL     1       6.854   4.736  17.570  0.00  0.00    +0.000 A 
ATOM     11  N   UNL     1       5.515   5.018  17.700  0.00  0.00    +0.000 N 
ATOM     12  C   UNL     1       4.555   5.231  16.637  0.00  0.00    +0.000 C 
ATOM     13  C   UNL     1       5.092   5.976  15.425  0.00  0.00    +0.000 C 
ATOM     14  C   UNL     1       5.880   5.090  14.468  0.00  0.00    +0.000 C 
ATOM     15  C   UNL     1       6.762   4.029  15.130  0.00  0.00    +0.000 C 
ATOM     16  C   UNL     1       7.597   4.566  16.285  0.00  0.00    +0.000 C 
ENDBRANCH   5   7
BRANCH   1  19
ATOM     17  O   UNL     1       2.121   8.577  17.429  0.00  0.00    +0.000 OA
ATOM     18  C   UNL     1       1.651   8.992  18.487  0.00  0.00    +0.000 C 
ATOM     19  N   UNL     1       1.581   8.276  19.674  0.00  0.00    +0.000 N 
ATOM     20  H   UNL     1       0.992   8.649  20.409  0.00  0.00    +0.000 HD
BRANCH  18  21
ATOM     21  C   UNL     1       1.115  10.408  18.616  0.00  0.00    +0.000 C 
BRANCH  21  22
ATOM     22  C   UNL     1      -0.356  10.441  19.048  0.00  0.00    +0.000 C 
ATOM     23  C   UNL     1      -0.739  11.766  19.642  0.00  0.00    +0.000 C 
ATOM     24  C   UNL     1      -1.900  12.222  19.160  0.00  0.00    +0.000 C 
ATOM     25  C   UNL     1      -2.500  11.282  18.172  0.00  0.00    +0.000 C 
ATOM     26  C   UNL     1      -1.360  10.308  17.886  0.00  0.00    +0.000 C 
ENDBRANCH  21  22
ENDBRANCH  18  21
ENDBRANCH   1  19
TORSDOF 4
ENDMDL
