MODEL 1
REMARK VINA RESULT:      -8.9      0.000      0.000
REMARK  Name = 
REMARK  6 active torsions:
REMARK  status: ('A' for Active; 'I' for Inactive)
REMARK    1  A    between atoms: C_2  and  C_16
REMARK    2  A    between atoms: N_3  and  C_4
REMARK    3  A    between atoms: C_4  and  C_5
REMARK    4  A    between atoms: C_5  and  C_6
REMARK    5  A    between atoms: C_20  and  C_21
REMARK    6  A    between atoms: C_21  and  N_22
REMARK                            x       y       z     vdW  Elec       q    Type
REMARK                         _______ _______ _______ _____ _____    ______ ____
ROOT
ATOM      1  O   UNL     1       8.145   6.413  19.045  0.00  0.00    +0.000 OA
ATOM      2  C   UNL     1       7.500   6.779  18.068  0.00  0.00    +0.000 C 
ATOM      3  N   UNL     1       7.661   8.007  17.457  0.00  0.00    +0.000 N 
ATOM      4  H   UNL     1       6.920   8.337  16.852  0.00  0.00    +0.000 HD
ENDROOT
BRANCH   2   5
ATOM      5  C   UNL     1       6.431   5.912  17.505  0.00  0.00    +0.000 A 
ATOM      6  C   UNL     1       6.792   4.864  16.653  0.00  0.00    +0.000 A 
ATOM      7  C   UNL     1       5.811   4.020  16.131  0.00  0.00    +0.000 A 
ATOM      8  C   UNL     1       4.471   4.204  16.483  0.00  0.00    +0.000 A 
ATOM      9  C   UNL     1       4.100   5.232  17.362  0.00  0.00    +0.000 A 
ATOM     10  C   UNL     1       5.084   6.115  17.831  0.00  0.00    +0.000 A 
BRANCH   9  11
ATOM     11  C   UNL     1       2.682   5.365  17.859  0.00  0.00    +0.000 C 
BRANCH  11  12
ATOM     12  N   UNL     1       2.394   4.584  19.044  0.00  0.00    +0.000 N 
ATOM     13  C   UNL     1       2.539   5.120  20.374  0.00  0.00    +0.000 C 
ATOM     14  C   UNL     1       2.128   3.960  21.259  0.00  0.00    +0.000 C 
ATOM     15  C   UNL     1       1.069   3.243  20.434  0.00  0.00    +0.000 C 
ATOM     16  C   UNL     1       1.528   3.496  19.016  0.00  0.00    +0.000 C 
ATOM     17  O   UNL     1       1.136   2.897  18.033  0.00  0.00    +0.000 OA
ENDBRANCH  11  12
ENDBRANCH   9  11
ENDBRANCH   2   5
BRANCH   3  18
ATOM     18  C   UNL     1       8.612   8.973  17.978  0.00  0.00    +0.000 C 
BRANCH  18  19
ATOM     19  C   UNL     1       8.019  10.382  18.017  0.00  0.00    +0.000 C 
BRANCH  19  20
ATOM     20  C   UNL     1       9.072  11.459  17.979  0.00  0.00    +0.000 A 
ATOM     21  C   UNL     1      10.433  11.118  17.997  0.00  0.00    +0.000 A 
ATOM     22  C   UNL     1      11.414  12.111  17.967  0.00  0.00    +0.000 A 
ATOM     23  C   UNL     1      11.045  13.454  17.918  0.00  0.00    +0.000 A 
ATOM     24  C   UNL     1       9.693  13.803  17.870  0.00  0.00    +0.000 A 
ATOM     25  C   UNL     1       8.710  12.813  17.911  0.00  0.00    +0.000 A 
ATOM     26  O   UNL     1       9.256  15.101  17.794  0.00  0.00    +0.000 OA
ATOM     27  C   UNL     1      10.317  15.984  17.407  0.00  0.00    +0.000 C 
ATOM     28  C   UNL     1      11.583  15.690  18.192  0.00  0.00    +0.000 C 
ATOM     29  O   UNL     1      12.063  14.370  17.909  0.00  0.00    +0.000 OA
ENDBRANCH  19  20
ENDBRANCH  18  19
ENDBRANCH   3  18
TORSDOF 6
ENDMDL
MODEL 2
REMARK VINA RESULT:      -8.7      1.368      1.533
REMARK  Name = 
REMARK  6 active torsions:
REMARK  status: ('A' for Active; 'I' for Inactive)
REMARK    1  A    between atoms: C_2  and  C_16
REMARK    2  A    between atoms: N_3  and  C_4
REMARK    3  A    between atoms: C_4  and  C_5
REMARK    4  A    between atoms: C_5  and  C_6
REMARK    5  A    between atoms: C_20  and  C_21
REMARK    6  A    between atoms: C_21  and  N_22
REMARK                            x       y       z     vdW  Elec       q    Type
REMARK                         _______ _______ _______ _____ _____    ______ ____
ROOT
ATOM      1  O   UNL     1       7.847   6.268  19.121  0.00  0.00    +0.000 OA
ATOM      2  C   UNL     1       7.478   6.610  18.002  0.00  0.00    +0.000 C 
ATOM      3  N   UNL     1       7.705   7.863  17.469  0.00  0.00    +0.000 N 
ATOM      4  H   UNL     1       7.141   8.152  16.680  0.00  0.00    +0.000 HD
ENDROOT
BRANCH   2   5
ATOM      5  C   UNL     1       6.687   5.680  17.153  0.00  0.00    +0.000 A 
ATOM      6  C   UNL     1       7.069   5.494  15.821  0.00  0.00    +0.000 A 
ATOM      7  C   UNL     1       6.360   4.608  15.010  0.00  0.00    +0.000 A 
ATOM      8  C   UNL     1       5.287   3.884  15.536  0.00  0.00    +0.000 A 
ATOM      9  C   UNL     1       4.914   4.038  16.880  0.00  0.00    +0.000 A 
ATOM     10  C   UNL     1       5.591   4.978  17.670  0.00  0.00    +0.000 A 
BRANCH   9  11
ATOM     11  C   UNL     1       3.848   3.171  17.502  0.00  0.00    +0.000 C 
BRANCH  11  12
ATOM     12  N   UNL     1       3.356   3.658  18.774  0.00  0.00    +0.000 N 
ATOM     13  C   UNL     1       2.130   4.407  18.891  0.00  0.00    +0.000 C 
ATOM     14  C   UNL     1       2.036   4.684  20.377  0.00  0.00    +0.000 C 
ATOM     15  C   UNL     1       2.682   3.458  21.008  0.00  0.00    +0.000 C 
ATOM     16  C   UNL     1       3.717   3.064  19.979  0.00  0.00    +0.000 C 
ATOM     17  O   UNL     1       4.643   2.300  20.171  0.00  0.00    +0.000 OA
ENDBRANCH  11  12
ENDBRANCH   9  11
ENDBRANCH   2   5
BRANCH   3  18
ATOM     18  C   UNL     1       8.386   8.885  18.245  0.00  0.00    +0.000 C 
BRANCH  18  19
ATOM     19  C   UNL     1       8.222  10.270  17.618  0.00  0.00    +0.000 C 
BRANCH  19  20
ATOM     20  C   UNL     1       9.121  11.304  18.246  0.00  0.00    +0.000 A 
ATOM     21  C   UNL     1      10.070  10.925  19.207  0.00  0.00    +0.000 A 
ATOM     22  C   UNL     1      10.903  11.879  19.796  0.00  0.00    +0.000 A 
ATOM     23  C   UNL     1      10.796  13.219  19.431  0.00  0.00    +0.000 A 
ATOM     24  C   UNL     1       9.875  13.602  18.452  0.00  0.00    +0.000 A 
ATOM     25  C   UNL     1       9.033  12.653  17.870  0.00  0.00    +0.000 A 
ATOM     26  O   UNL     1       9.733  14.897  18.023  0.00  0.00    +0.000 OA
ATOM     27  C   UNL     1      10.854  15.700  18.412  0.00  0.00    +0.000 C 
ATOM     28  C   UNL     1      11.219  15.453  19.866  0.00  0.00    +0.000 C 
ATOM     29  O   UNL     1      11.634  14.097  20.065  0.00  0.00    +0.000 OA
ENDBRANCH  19  20
ENDBRANCH  18  19
ENDBRANCH   3  18
TORSDOF 6
ENDMDL
MODEL 3
REMARK VINA RESULT:      -8.6      6.108      8.211
REMARK  Name = 
REMARK  6 active torsions:
REMARK  status: ('A' for Active; 'I' for Inactive)
REMARK    1  A    between atoms: C_2  and  C_16
REMARK    2  A    between atoms: N_3  and  C_4
REMARK    3  A    between atoms: C_4  and  C_5
REMARK    4  A    between atoms: C_5  and  C_6
REMARK    5  A    between atoms: C_20  and  C_21
REMARK    6  A    between atoms: C_21  and  N_22
REMARK                            x       y       z     vdW  Elec       q    Type
REMARK                         _______ _______ _______ _____ _____    ______ ____
ROOT
ATOM      1  O   UNL     1       2.484   8.501  17.243  0.00  0.00    +0.000 OA
ATOM      2  C   UNL     1       2.655   7.578  18.033  0.00  0.00    +0.000 C 
ATOM      3  N   UNL     1       2.272   7.622  19.359  0.00  0.00    +0.000 N 
ATOM      4  H   UNL     1       2.688   6.954  19.995  0.00  0.00    +0.000 HD
ENDROOT
BRANCH   2   5
ATOM      5  C   UNL     1       3.360   6.342  17.604  0.00  0.00    +0.000 A 
ATOM      6  C   UNL     1       4.619   6.457  17.005  0.00  0.00    +0.000 A 
ATOM      7  C   UNL     1       5.314   5.312  16.616  0.00  0.00    +0.000 A 
ATOM      8  C   UNL     1       4.766   4.048  16.851  0.00  0.00    +0.000 A 
ATOM      9  C   UNL     1       3.518   3.918  17.479  0.00  0.00    +0.000 A 
ATOM     10  C   UNL     1       2.799   5.075  17.809  0.00  0.00    +0.000 A 
BRANCH   9  11
ATOM     11  C   UNL     1       2.971   2.565  17.863  0.00  0.00    +0.000 C 
BRANCH  11  12
ATOM     12  N   UNL     1       2.556   2.464  19.246  0.00  0.00    +0.000 N 
ATOM     13  C   UNL     1       3.426   2.821  20.339  0.00  0.00    +0.000 C 
ATOM     14  C   UNL     1       2.569   2.557  21.560  0.00  0.00    +0.000 C 
ATOM     15  C   UNL     1       1.160   2.876  21.081  0.00  0.00    +0.000 C 
ATOM     16  C   UNL     1       1.217   2.499  19.618  0.00  0.00    +0.000 C 
ATOM     17  O   UNL     1       0.251   2.341  18.895  0.00  0.00    +0.000 OA
ENDBRANCH  11  12
ENDBRANCH   9  11
ENDBRANCH   2   5
BRANCH   3  18
ATOM     18  C   UNL     1       1.658   8.815  19.913  0.00  0.00    +0.000 C 
BRANCH  18  19
ATOM     19  C   UNL     1       0.755   8.484  21.101  0.00  0.00    +0.000 C 
BRANCH  19  20
ATOM     20  C   UNL     1      -0.096   9.651  21.530  0.00  0.00    +0.000 A 
ATOM     21  C   UNL     1      -0.489   9.786  22.869  0.00  0.00    +0.000 A 
ATOM     22  C   UNL     1      -1.282  10.862  23.272  0.00  0.00    +0.000 A 
ATOM     23  C   UNL     1      -1.689  11.815  22.341  0.00  0.00    +0.000 A 
ATOM     24  C   UNL     1      -1.278  11.707  21.010  0.00  0.00    +0.000 A 
ATOM     25  C   UNL     1      -0.495  10.625  20.602  0.00  0.00    +0.000 A 
ATOM     26  O   UNL     1      -1.617  12.620  20.044  0.00  0.00    +0.000 OA
ATOM     27  C   UNL     1      -2.103  13.836  20.626  0.00  0.00    +0.000 C 
ATOM     28  C   UNL     1      -3.102  13.546  21.733  0.00  0.00    +0.000 C 
ATOM     29  O   UNL     1      -2.479  12.831  22.808  0.00  0.00    +0.000 OA
ENDBRANCH  19  20
ENDBRANCH  18  19
ENDBRANCH   3  18
TORSDOF 6
ENDMDL
MODEL 4
REMARK VINA RESULT:      -8.5      6.128      8.082
REMARK  Name = 
REMARK  6 active torsions:
REMARK  status: ('A' for Active; 'I' for Inactive)
REMARK    1  A    between atoms: C_2  and  C_16
REMARK    2  A    between atoms: N_3  and  C_4
REMARK    3  A    between atoms: C_4  and  C_5
REMARK    4  A    between atoms: C_5  and  C_6
REMARK    5  A    between atoms: C_20  and  C_21
REMARK    6  A    between atoms: C_21  and  N_22
REMARK                            x       y       z     vdW  Elec       q    Type
REMARK                         _______ _______ _______ _____ _____    ______ ____
ROOT
ATOM      1  O   UNL     1       2.358   7.607  19.598  0.00  0.00    +0.000 OA
ATOM      2  C   UNL     1       2.683   7.636  18.416  0.00  0.00    +0.000 C 
ATOM      3  N   UNL     1       2.476   8.723  17.590  0.00  0.00    +0.000 N 
ATOM      4  H   UNL     1       2.513   8.573  16.590  0.00  0.00    +0.000 HD
ENDROOT
BRANCH   2   5
ATOM      5  C   UNL     1       3.286   6.440  17.771  0.00  0.00    +0.000 A 
ATOM      6  C   UNL     1       4.424   6.604  16.976  0.00  0.00    +0.000 A 
ATOM      7  C   UNL     1       5.024   5.494  16.380  0.00  0.00    +0.000 A 
ATOM      8  C   UNL     1       4.506   4.216  16.601  0.00  0.00    +0.000 A 
ATOM      9  C   UNL     1       3.383   4.034  17.422  0.00  0.00    +0.000 A 
ATOM     10  C   UNL     1       2.748   5.161  17.966  0.00  0.00    +0.000 A 
BRANCH   9  11
ATOM     11  C   UNL     1       2.888   2.655  17.782  0.00  0.00    +0.000 C 
BRANCH  11  12
ATOM     12  N   UNL     1       2.517   2.503  19.173  0.00  0.00    +0.000 N 
ATOM     13  C   UNL     1       3.418   2.826  20.251  0.00  0.00    +0.000 C 
ATOM     14  C   UNL     1       2.601   2.514  21.487  0.00  0.00    +0.000 C 
ATOM     15  C   UNL     1       1.176   2.840  21.063  0.00  0.00    +0.000 C 
ATOM     16  C   UNL     1       1.189   2.516  19.587  0.00  0.00    +0.000 C 
ATOM     17  O   UNL     1       0.203   2.377  18.888  0.00  0.00    +0.000 OA
ENDBRANCH  11  12
ENDBRANCH   9  11
ENDBRANCH   2   5
BRANCH   3  18
ATOM     18  C   UNL     1       1.811   9.914  18.087  0.00  0.00    +0.000 C 
BRANCH  18  19
ATOM     19  C   UNL     1       0.311   9.685  18.274  0.00  0.00    +0.000 C 
BRANCH  19  20
ATOM     20  C   UNL     1      -0.208  10.255  19.570  0.00  0.00    +0.000 A 
ATOM     21  C   UNL     1       0.253   9.755  20.797  0.00  0.00    +0.000 A 
ATOM     22  C   UNL     1      -0.226  10.275  22.001  0.00  0.00    +0.000 A 
ATOM     23  C   UNL     1      -1.172  11.299  21.990  0.00  0.00    +0.000 A 
ATOM     24  C   UNL     1      -1.615  11.824  20.773  0.00  0.00    +0.000 A 
ATOM     25  C   UNL     1      -1.146  11.298  19.568  0.00  0.00    +0.000 A 
ATOM     26  O   UNL     1      -2.523  12.849  20.686  0.00  0.00    +0.000 OA
ATOM     27  C   UNL     1      -2.660  13.530  21.939  0.00  0.00    +0.000 C 
ATOM     28  C   UNL     1      -2.793  12.540  23.083  0.00  0.00    +0.000 C 
ATOM     29  O   UNL     1      -1.608  11.744  23.209  0.00  0.00    +0.000 OA
ENDBRANCH  19  20
ENDBRANCH  18  19
ENDBRANCH   3  18
TORSDOF 6
ENDMDL
MODEL 5
REMARK VINA RESULT:      -8.5      6.136      8.964
REMARK  Name = 
REMARK  6 active torsions:
REMARK  status: ('A' for Active; 'I' for Inactive)
REMARK    1  A    between atoms: C_2  and  C_16
REMARK    2  A    between atoms: N_3  and  C_4
REMARK    3  A    between atoms: C_4  and  C_5
REMARK    4  A    between atoms: C_5  and  C_6
REMARK    5  A    between atoms: C_20  and  C_21
REMARK    6  A    between atoms: C_21  and  N_22
REMARK                            x       y       z     vdW  Elec       q    Type
REMARK                         _______ _______ _______ _____ _____    ______ ____
ROOT
ATOM      1  O   UNL     1       2.011   7.836  19.733  0.00  0.00    +0.000 OA
ATOM      2  C   UNL     1       2.412   7.927  18.577  0.00  0.00    +0.000 C 
ATOM      3  N   UNL     1       2.244   9.050  17.792  0.00  0.00    +0.000 N 
ATOM      4  H   UNL     1       2.348   8.949  16.791  0.00  0.00    +0.000 HD
ENDROOT
BRANCH   2   5
ATOM      5  C   UNL     1       3.072   6.769  17.917  0.00  0.00    +0.000 A 
ATOM      6  C   UNL     1       4.247   6.987  17.190  0.00  0.00    +0.000 A 
ATOM      7  C   UNL     1       4.899   5.915  16.582  0.00  0.00    +0.000 A 
ATOM      8  C   UNL     1       4.396   4.619  16.723  0.00  0.00    +0.000 A 
ATOM      9  C   UNL     1       3.236   4.383  17.475  0.00  0.00    +0.000 A 
ATOM     10  C   UNL     1       2.551   5.474  18.030  0.00  0.00    +0.000 A 
BRANCH   9  11
ATOM     11  C   UNL     1       2.751   2.981  17.751  0.00  0.00    +0.000 C 
BRANCH  11  12
ATOM     12  N   UNL     1       2.473   2.714  19.146  0.00  0.00    +0.000 N 
ATOM     13  C   UNL     1       3.417   3.016  20.192  0.00  0.00    +0.000 C 
ATOM     14  C   UNL     1       2.693   2.575  21.448  0.00  0.00    +0.000 C 
ATOM     15  C   UNL     1       1.230   2.846  21.127  0.00  0.00    +0.000 C 
ATOM     16  C   UNL     1       1.173   2.623  19.634  0.00  0.00    +0.000 C 
ATOM     17  O   UNL     1       0.156   2.474  18.984  0.00  0.00    +0.000 OA
ENDBRANCH  11  12
ENDBRANCH   9  11
ENDBRANCH   2   5
BRANCH   3  18
ATOM     18  C   UNL     1       1.532  10.209  18.301  0.00  0.00    +0.000 C 
BRANCH  18  19
ATOM     19  C   UNL     1       0.301   9.802  19.112  0.00  0.00    +0.000 C 
BRANCH  19  20
ATOM     20  C   UNL     1      -0.993  10.148  18.420  0.00  0.00    +0.000 A 
ATOM     21  C   UNL     1      -1.274   9.632  17.147  0.00  0.00    +0.000 A 
ATOM     22  C   UNL     1      -2.468   9.952  16.499  0.00  0.00    +0.000 A 
ATOM     23  C   UNL     1      -3.393  10.791  17.117  0.00  0.00    +0.000 A 
ATOM     24  C   UNL     1      -3.137  11.285  18.398  0.00  0.00    +0.000 A 
ATOM     25  C   UNL     1      -1.938  10.976  19.044  0.00  0.00    +0.000 A 
ATOM     26  O   UNL     1      -4.012  12.093  19.079  0.00  0.00    +0.000 OA
ATOM     27  C   UNL     1      -5.319  12.054  18.493  0.00  0.00    +0.000 C 
ATOM     28  C   UNL     1      -5.240  12.182  16.981  0.00  0.00    +0.000 C 
ATOM     29  O   UNL     1      -4.533  11.073  16.412  0.00  0.00    +0.000 OA
ENDBRANCH  19  20
ENDBRANCH  18  19
ENDBRANCH   3  18
TORSDOF 6
ENDMDL
MODEL 6
REMARK VINA RESULT:      -8.5      0.954      1.042
REMARK  Name = 
REMARK  6 active torsions:
REMARK  status: ('A' for Active; 'I' for Inactive)
REMARK    1  A    between atoms: C_2  and  C_16
REMARK    2  A    between atoms: N_3  and  C_4
REMARK    3  A    between atoms: C_4  and  C_5
REMARK    4  A    between atoms: C_5  and  C_6
REMARK    5  A    between atoms: C_20  and  C_21
REMARK    6  A    between atoms: C_21  and  N_22
REMARK                            x       y       z     vdW  Elec       q    Type
REMARK                         _______ _______ _______ _____ _____    ______ ____
ROOT
ATOM      1  O   UNL     1       8.423   6.695  19.050  0.00  0.00    +0.000 OA
ATOM      2  C   UNL     1       7.626   7.042  18.184  0.00  0.00    +0.000 C 
ATOM      3  N   UNL     1       7.663   8.272  17.558  0.00  0.00    +0.000 N 
ATOM      4  H   UNL     1       6.830   8.583  17.074  0.00  0.00    +0.000 HD
ENDROOT
BRANCH   2   5
ATOM      5  C   UNL     1       6.504   6.150  17.792  0.00  0.00    +0.000 A 
ATOM      6  C   UNL     1       5.997   6.237  16.492  0.00  0.00    +0.000 A 
ATOM      7  C   UNL     1       4.961   5.393  16.090  0.00  0.00    +0.000 A 
ATOM      8  C   UNL     1       4.450   4.441  16.976  0.00  0.00    +0.000 A 
ATOM      9  C   UNL     1       4.972   4.323  18.273  0.00  0.00    +0.000 A 
ATOM     10  C   UNL     1       5.969   5.217  18.689  0.00  0.00    +0.000 A 
BRANCH   9  11
ATOM     11  C   UNL     1       4.529   3.217  19.199  0.00  0.00    +0.000 C 
BRANCH  11  12
ATOM     12  N   UNL     1       3.168   3.352  19.674  0.00  0.00    +0.000 N 
ATOM     13  C   UNL     1       2.715   4.514  20.395  0.00  0.00    +0.000 C 
ATOM     14  C   UNL     1       1.258   4.203  20.669  0.00  0.00    +0.000 C 
ATOM     15  C   UNL     1       0.836   3.383  19.457  0.00  0.00    +0.000 C 
ATOM     16  C   UNL     1       2.112   2.662  19.087  0.00  0.00    +0.000 C 
ATOM     17  O   UNL     1       2.186   1.703  18.343  0.00  0.00    +0.000 OA
ENDBRANCH  11  12
ENDBRANCH   9  11
ENDBRANCH   2   5
BRANCH   3  18
ATOM     18  C   UNL     1       8.659   9.262  17.927  0.00  0.00    +0.000 C 
BRANCH  18  19
ATOM     19  C   UNL     1       8.067  10.671  17.962  0.00  0.00    +0.000 C 
BRANCH  19  20
ATOM     20  C   UNL     1       9.120  11.748  17.898  0.00  0.00    +0.000 A 
ATOM     21  C   UNL     1      10.478  11.405  17.833  0.00  0.00    +0.000 A 
ATOM     22  C   UNL     1      11.459  12.397  17.778  0.00  0.00    +0.000 A 
ATOM     23  C   UNL     1      11.092  13.741  17.787  0.00  0.00    +0.000 A 
ATOM     24  C   UNL     1       9.740  14.093  17.822  0.00  0.00    +0.000 A 
ATOM     25  C   UNL     1       8.758  13.103  17.889  0.00  0.00    +0.000 A 
ATOM     26  O   UNL     1       9.304  15.393  17.807  0.00  0.00    +0.000 OA
ATOM     27  C   UNL     1      10.344  16.286  17.388  0.00  0.00    +0.000 C 
ATOM     28  C   UNL     1      11.650  15.967  18.095  0.00  0.00    +0.000 C 
ATOM     29  O   UNL     1      12.111  14.656  17.749  0.00  0.00    +0.000 OA
ENDBRANCH  19  20
ENDBRANCH  18  19
ENDBRANCH   3  18
TORSDOF 6
ENDMDL
MODEL 7
REMARK VINA RESULT:      -8.5      1.499      2.050
REMARK  Name = 
REMARK  6 active torsions:
REMARK  status: ('A' for Active; 'I' for Inactive)
REMARK    1  A    between atoms: C_2  and  C_16
REMARK    2  A    between atoms: N_3  and  C_4
REMARK    3  A    between atoms: C_4  and  C_5
REMARK    4  A    between atoms: C_5  and  C_6
REMARK    5  A    between atoms: C_20  and  C_21
REMARK    6  A    between atoms: C_21  and  N_22
REMARK                            x       y       z     vdW  Elec       q    Type
REMARK                         _______ _______ _______ _____ _____    ______ ____
ROOT
ATOM      1  O   UNL     1       7.486   5.946  17.492  0.00  0.00    +0.000 OA
ATOM      2  C   UNL     1       6.585   6.778  17.511  0.00  0.00    +0.000 C 
ATOM      3  N   UNL     1       6.798   8.141  17.464  0.00  0.00    +0.000 N 
ATOM      4  H   UNL     1       6.045   8.749  17.760  0.00  0.00    +0.000 HD
ENDROOT
BRANCH   2   5
ATOM      5  C   UNL     1       5.168   6.349  17.649  0.00  0.00    +0.000 A 
ATOM      6  C   UNL     1       4.157   7.301  17.484  0.00  0.00    +0.000 A 
ATOM      7  C   UNL     1       2.818   6.920  17.583  0.00  0.00    +0.000 A 
ATOM      8  C   UNL     1       2.487   5.583  17.818  0.00  0.00    +0.000 A 
ATOM      9  C   UNL     1       3.491   4.613  17.954  0.00  0.00    +0.000 A 
ATOM     10  C   UNL     1       4.835   5.015  17.916  0.00  0.00    +0.000 A 
BRANCH   9  11
ATOM     11  C   UNL     1       3.156   3.147  18.073  0.00  0.00    +0.000 C 
BRANCH  11  12
ATOM     12  N   UNL     1       2.640   2.761  19.370  0.00  0.00    +0.000 N 
ATOM     13  C   UNL     1       3.365   3.005  20.591  0.00  0.00    +0.000 C 
ATOM     14  C   UNL     1       2.444   2.444  21.656  0.00  0.00    +0.000 C 
ATOM     15  C   UNL     1       1.053   2.698  21.092  0.00  0.00    +0.000 C 
ATOM     16  C   UNL     1       1.278   2.594  19.601  0.00  0.00    +0.000 C 
ATOM     17  O   UNL     1       0.403   2.468  18.765  0.00  0.00    +0.000 OA
ENDBRANCH  11  12
ENDBRANCH   9  11
ENDBRANCH   2   5
BRANCH   3  18
ATOM     18  C   UNL     1       8.146   8.678  17.423  0.00  0.00    +0.000 C 
BRANCH  18  19
ATOM     19  C   UNL     1       8.720   8.869  18.827  0.00  0.00    +0.000 C 
BRANCH  19  20
ATOM     20  C   UNL     1       9.283  10.250  19.043  0.00  0.00    +0.000 A 
ATOM     21  C   UNL     1       9.494  10.732  20.344  0.00  0.00    +0.000 A 
ATOM     22  C   UNL     1      10.012  12.012  20.552  0.00  0.00    +0.000 A 
ATOM     23  C   UNL     1      10.323  12.823  19.462  0.00  0.00    +0.000 A 
ATOM     24  C   UNL     1      10.145  12.341  18.163  0.00  0.00    +0.000 A 
ATOM     25  C   UNL     1       9.618  11.066  17.952  0.00  0.00    +0.000 A 
ATOM     26  O   UNL     1      10.455  13.072  17.043  0.00  0.00    +0.000 OA
ATOM     27  C   UNL     1      11.296  14.186  17.367  0.00  0.00    +0.000 C 
ATOM     28  C   UNL     1      10.778  14.920  18.592  0.00  0.00    +0.000 C 
ATOM     29  O   UNL     1      10.809  14.072  19.746  0.00  0.00    +0.000 OA
ENDBRANCH  19  20
ENDBRANCH  18  19
ENDBRANCH   3  18
TORSDOF 6
ENDMDL
MODEL 8
REMARK VINA RESULT:      -8.4      1.681      2.041
REMARK  Name = 
REMARK  6 active torsions:
REMARK  status: ('A' for Active; 'I' for Inactive)
REMARK    1  A    between atoms: C_2  and  C_16
REMARK    2  A    between atoms: N_3  and  C_4
REMARK    3  A    between atoms: C_4  and  C_5
REMARK    4  A    between atoms: C_5  and  C_6
REMARK    5  A    between atoms: C_20  and  C_21
REMARK    6  A    between atoms: C_21  and  N_22
REMARK                            x       y       z     vdW  Elec       q    Type
REMARK                         _______ _______ _______ _____ _____    ______ ____
ROOT
ATOM      1  O   UNL     1       7.988   7.076  16.199  0.00  0.00    +0.000 OA
ATOM      2  C   UNL     1       7.392   6.647  17.182  0.00  0.00    +0.000 C 
ATOM      3  N   UNL     1       7.641   7.066  18.474  0.00  0.00    +0.000 N 
ATOM      4  H   UNL     1       7.318   6.481  19.233  0.00  0.00    +0.000 HD
ENDROOT
BRANCH   2   5
ATOM      5  C   UNL     1       6.375   5.572  17.035  0.00  0.00    +0.000 A 
ATOM      6  C   UNL     1       6.063   5.110  15.753  0.00  0.00    +0.000 A 
ATOM      7  C   UNL     1       5.131   4.085  15.589  0.00  0.00    +0.000 A 
ATOM      8  C   UNL     1       4.532   3.500  16.707  0.00  0.00    +0.000 A 
ATOM      9  C   UNL     1       4.860   3.933  18.000  0.00  0.00    +0.000 A 
ATOM     10  C   UNL     1       5.749   5.006  18.153  0.00  0.00    +0.000 A 
BRANCH   9  11
ATOM     11  C   UNL     1       4.327   3.227  19.223  0.00  0.00    +0.000 C 
BRANCH  11  12
ATOM     12  N   UNL     1       2.884   3.252  19.340  0.00  0.00    +0.000 N 
ATOM     13  C   UNL     1       2.076   2.073  19.154  0.00  0.00    +0.000 C 
ATOM     14  C   UNL     1       0.667   2.585  19.375  0.00  0.00    +0.000 C 
ATOM     15  C   UNL     1       0.847   3.685  20.411  0.00  0.00    +0.000 C 
ATOM     16  C   UNL     1       2.223   4.222  20.086  0.00  0.00    +0.000 C 
ATOM     17  O   UNL     1       2.678   5.277  20.484  0.00  0.00    +0.000 OA
ENDBRANCH  11  12
ENDBRANCH   9  11
ENDBRANCH   2   5
BRANCH   3  18
ATOM     18  C   UNL     1       8.678   8.045  18.747  0.00  0.00    +0.000 C 
BRANCH  18  19
ATOM     19  C   UNL     1       8.360   9.396  18.106  0.00  0.00    +0.000 C 
BRANCH  19  20
ATOM     20  C   UNL     1       9.232  10.509  18.629  0.00  0.00    +0.000 A 
ATOM     21  C   UNL     1       9.430  10.663  20.009  0.00  0.00    +0.000 A 
ATOM     22  C   UNL     1      10.233  11.694  20.501  0.00  0.00    +0.000 A 
ATOM     23  C   UNL     1      10.846  12.581  19.618  0.00  0.00    +0.000 A 
ATOM     24  C   UNL     1      10.679  12.418  18.240  0.00  0.00    +0.000 A 
ATOM     25  C   UNL     1       9.868  11.396  17.746  0.00  0.00    +0.000 A 
ATOM     26  O   UNL     1      11.272  13.236  17.312  0.00  0.00    +0.000 OA
ATOM     27  C   UNL     1      12.333  14.002  17.896  0.00  0.00    +0.000 C 
ATOM     28  C   UNL     1      11.902  14.604  19.222  0.00  0.00    +0.000 C 
ATOM     29  O   UNL     1      11.603  13.577  20.175  0.00  0.00    +0.000 OA
ENDBRANCH  19  20
ENDBRANCH  18  19
ENDBRANCH   3  18
TORSDOF 6
ENDMDL
MODEL 9
REMARK VINA RESULT:      -8.4      1.722      2.045
REMARK  Name = 
REMARK  6 active torsions:
REMARK  status: ('A' for Active; 'I' for Inactive)
REMARK    1  A    between atoms: C_2  and  C_16
REMARK    2  A    between atoms: N_3  and  C_4
REMARK    3  A    between atoms: C_4  and  C_5
REMARK    4  A    between atoms: C_5  and  C_6
REMARK    5  A    between atoms: C_20  and  C_21
REMARK    6  A    between atoms: C_21  and  N_22
REMARK                            x       y       z     vdW  Elec       q    Type
REMARK                         _______ _______ _______ _____ _____    ______ ____
ROOT
ATOM      1  O   UNL     1       5.405   7.818  17.979  0.00  0.00    +0.000 OA
ATOM      2  C   UNL     1       6.274   7.214  17.357  0.00  0.00    +0.000 C 
ATOM      3  N   UNL     1       7.531   7.727  17.102  0.00  0.00    +0.000 N 
ATOM      4  H   UNL     1       8.076   7.300  16.365  0.00  0.00    +0.000 HD
ENDROOT
BRANCH   2   5
ATOM      5  C   UNL     1       5.990   5.877  16.774  0.00  0.00    +0.000 A 
ATOM      6  C   UNL     1       6.813   5.400  15.749  0.00  0.00    +0.000 A 
ATOM      7  C   UNL     1       6.584   4.137  15.201  0.00  0.00    +0.000 A 
ATOM      8  C   UNL     1       5.552   3.337  15.696  0.00  0.00    +0.000 A 
ATOM      9  C   UNL     1       4.739   3.791  16.746  0.00  0.00    +0.000 A 
ATOM     10  C   UNL     1       4.935   5.086  17.247  0.00  0.00    +0.000 A 
BRANCH   9  11
ATOM     11  C   UNL     1       3.708   2.894  17.384  0.00  0.00    +0.000 C 
BRANCH  11  12
ATOM     12  N   UNL     1       3.189   3.388  18.642  0.00  0.00    +0.000 N 
ATOM     13  C   UNL     1       1.845   3.891  18.777  0.00  0.00    +0.000 C 
ATOM     14  C   UNL     1       1.769   4.278  20.240  0.00  0.00    +0.000 C 
ATOM     15  C   UNL     1       2.675   3.263  20.923  0.00  0.00    +0.000 C 
ATOM     16  C   UNL     1       3.717   2.987  19.865  0.00  0.00    +0.000 C 
ATOM     17  O   UNL     1       4.786   2.438  20.057  0.00  0.00    +0.000 OA
ENDBRANCH  11  12
ENDBRANCH   9  11
ENDBRANCH   2   5
BRANCH   3  18
ATOM     18  C   UNL     1       7.889   9.063  17.543  0.00  0.00    +0.000 C 
BRANCH  18  19
ATOM     19  C   UNL     1       8.713   9.029  18.831  0.00  0.00    +0.000 C 
BRANCH  19  20
ATOM     20  C   UNL     1       9.414  10.334  19.109  0.00  0.00    +0.000 A 
ATOM     21  C   UNL     1       9.628  10.754  20.429  0.00  0.00    +0.000 A 
ATOM     22  C   UNL     1      10.273  11.964  20.694  0.00  0.00    +0.000 A 
ATOM     23  C   UNL     1      10.708  12.766  19.641  0.00  0.00    +0.000 A 
ATOM     24  C   UNL     1      10.527  12.343  18.323  0.00  0.00    +0.000 A 
ATOM     25  C   UNL     1       9.873  11.139  18.054  0.00  0.00    +0.000 A 
ATOM     26  O   UNL     1      10.953  13.066  17.237  0.00  0.00    +0.000 OA
ATOM     27  C   UNL     1      11.897  14.073  17.623  0.00  0.00    +0.000 C 
ATOM     28  C   UNL     1      11.417  14.825  18.852  0.00  0.00    +0.000 C 
ATOM     29  O   UNL     1      11.315  13.946  19.980  0.00  0.00    +0.000 OA
ENDBRANCH  19  20
ENDBRANCH  18  19
ENDBRANCH   3  18
TORSDOF 6
ENDMDL
