MODEL 1
REMARK VINA RESULT:      -8.4      0.000      0.000
REMARK  Name = 
REMARK  6 active torsions:
REMARK  status: ('A' for Active; 'I' for Inactive)
REMARK    1  A    between atoms: C_1  and  C_2
REMARK    2  A    between atoms: C_4  and  C_5
REMARK    3  A    between atoms: C_6  and  C_7
REMARK    4  A    between atoms: C_7  and  N_8
REMARK    5  A    between atoms: C_9  and  C_11
REMARK    6  A    between atoms: C_13  and  C_14
REMARK                            x       y       z     vdW  Elec       q    Type
REMARK                         _______ _______ _______ _____ _____    ______ ____
ROOT
ATOM      1  N   UNL     1       1.708   8.419  18.840  0.00  0.00    +0.000 N 
ATOM      2  C   UNL     1       1.480   9.707  18.396  0.00  0.00    +0.000 C 
ATOM      3  O   UNL     1       2.103  10.237  17.482  0.00  0.00    +0.000 OA
ATOM      4  H   UNL     1       1.160   8.036  19.605  0.00  0.00    +0.000 HD
ENDROOT
BRANCH   2   5
ATOM      5  C   UNL     1       0.333  10.418  19.031  0.00  0.00    +0.000 A 
ATOM      6  C   UNL     1       0.487  10.909  20.336  0.00  0.00    +0.000 A 
ATOM      7  C   UNL     1      -0.522  11.698  20.873  0.00  0.00    +0.000 A 
ATOM      8  N   UNL     1      -1.485  12.196  20.062  0.00  0.00    +0.000 NA
ATOM      9  C   UNL     1      -1.718  11.594  18.896  0.00  0.00    +0.000 A 
ATOM     10  C   UNL     1      -2.884  11.903  18.234  0.00  0.00    +0.000 A 
ATOM     11  C   UNL     1      -3.560  10.913  17.544  0.00  0.00    +0.000 A 
ATOM     12  C   UNL     1      -2.838   9.815  17.109  0.00  0.00    +0.000 A 
ATOM     13  C   UNL     1      -1.481   9.715  17.415  0.00  0.00    +0.000 A 
ATOM     14  C   UNL     1      -0.919  10.565  18.403  0.00  0.00    +0.000 A 
BRANCH   7  15
ATOM     15  C   UNL     1      -0.759  11.887  22.357  0.00  0.00    +0.000 C 
ATOM     16  C   UNL     1      -1.147  10.664  23.158  0.00  0.00    +0.000 C 
ATOM     17  C   UNL     1      -2.083  11.832  23.061  0.00  0.00    +0.000 C 
ENDBRANCH   7  15
ENDBRANCH   2   5
BRANCH   1  18
ATOM     18  C   UNL     1       2.725   7.526  18.308  0.00  0.00    +0.000 C 
BRANCH  18  24
ATOM     19  C   UNL     1       2.568   2.641  21.484  0.00  0.00    +0.000 C 
ATOM     20  C   UNL     1       2.635   3.849  20.600  0.00  0.00    +0.000 A 
ATOM     21  C   UNL     1       3.186   3.835  19.381  0.00  0.00    +0.000 A 
ATOM     22  C   UNL     1       3.233   5.044  18.568  0.00  0.00    +0.000 A 
ATOM     23  C   UNL     1       3.823   4.885  17.189  0.00  0.00    +0.000 C 
ATOM     24  C   UNL     1       2.749   6.201  19.032  0.00  0.00    +0.000 A 
ATOM     25  C   UNL     1       2.082   6.196  20.383  0.00  0.00    +0.000 A 
ATOM     26  O   UNL     1       1.548   7.189  20.865  0.00  0.00    +0.000 OA
ATOM     27  N   UNL     1       2.095   5.015  21.080  0.00  0.00    +0.000 N 
ATOM     28  H   UNL     1       1.638   5.044  21.988  0.00  0.00    +0.000 HD
ENDBRANCH  18  24
ENDBRANCH   1  18
TORSDOF 4
ENDMDL
MODEL 2
REMARK VINA RESULT:      -8.3      2.361      8.031
REMARK  Name = 
REMARK  6 active torsions:
REMARK  status: ('A' for Active; 'I' for Inactive)
REMARK    1  A    between atoms: C_1  and  C_2
REMARK    2  A    between atoms: C_4  and  C_5
REMARK    3  A    between atoms: C_6  and  C_7
REMARK    4  A    between atoms: C_7  and  N_8
REMARK    5  A    between atoms: C_9  and  C_11
REMARK    6  A    between atoms: C_13  and  C_14
REMARK                            x       y       z     vdW  Elec       q    Type
REMARK                         _______ _______ _______ _____ _____    ______ ____
ROOT
ATOM      1  N   UNL     1       1.292   8.530  19.251  0.00  0.00    +0.000 N 
ATOM      2  C   UNL     1       1.785   7.648  20.194  0.00  0.00    +0.000 C 
ATOM      3  O   UNL     1       1.561   7.737  21.396  0.00  0.00    +0.000 OA
ATOM      4  H   UNL     1       1.516   8.405  18.268  0.00  0.00    +0.000 HD
ENDROOT
BRANCH   2   5
ATOM      5  C   UNL     1       2.545   6.483  19.658  0.00  0.00    +0.000 A 
ATOM      6  C   UNL     1       3.531   6.714  18.687  0.00  0.00    +0.000 A 
ATOM      7  C   UNL     1       4.340   5.655  18.296  0.00  0.00    +0.000 A 
ATOM      8  N   UNL     1       4.352   4.517  19.028  0.00  0.00    +0.000 NA
ATOM      9  C   UNL     1       3.311   4.248  19.816  0.00  0.00    +0.000 A 
ATOM     10  C   UNL     1       3.187   2.967  20.303  0.00  0.00    +0.000 A 
ATOM     11  C   UNL     1       1.930   2.404  20.428  0.00  0.00    +0.000 A 
ATOM     12  C   UNL     1       0.846   3.255  20.555  0.00  0.00    +0.000 A 
ATOM     13  C   UNL     1       1.041   4.635  20.506  0.00  0.00    +0.000 A 
ATOM     14  C   UNL     1       2.277   5.154  20.037  0.00  0.00    +0.000 A 
BRANCH   7  15
ATOM     15  C   UNL     1       5.076   5.587  16.974  0.00  0.00    +0.000 C 
ATOM     16  C   UNL     1       6.280   6.487  16.803  0.00  0.00    +0.000 C 
ATOM     17  C   UNL     1       5.088   6.642  15.906  0.00  0.00    +0.000 C 
ENDBRANCH   7  15
ENDBRANCH   2   5
BRANCH   1  18
ATOM     18  C   UNL     1       0.467   9.689  19.549  0.00  0.00    +0.000 C 
BRANCH  18  24
ATOM     19  C   UNL     1       3.466  14.469  18.091  0.00  0.00    +0.000 C 
ATOM     20  C   UNL     1       2.652  13.288  18.524  0.00  0.00    +0.000 A 
ATOM     21  C   UNL     1       1.864  13.298  19.605  0.00  0.00    +0.000 A 
ATOM     22  C   UNL     1       1.102  12.116  19.986  0.00  0.00    +0.000 A 
ATOM     23  C   UNL     1       0.203  12.273  21.188  0.00  0.00    +0.000 C 
ATOM     24  C   UNL     1       1.193  10.985  19.279  0.00  0.00    +0.000 A 
ATOM     25  C   UNL     1       2.041  10.997  18.033  0.00  0.00    +0.000 A 
ATOM     26  O   UNL     1       2.134  10.033  17.282  0.00  0.00    +0.000 OA
ATOM     27  N   UNL     1       2.729  12.151  17.760  0.00  0.00    +0.000 N 
ATOM     28  H   UNL     1       3.292  12.128  16.914  0.00  0.00    +0.000 HD
ENDBRANCH  18  24
ENDBRANCH   1  18
TORSDOF 4
ENDMDL
MODEL 3
REMARK VINA RESULT:      -8.2      2.585      8.186
REMARK  Name = 
REMARK  6 active torsions:
REMARK  status: ('A' for Active; 'I' for Inactive)
REMARK    1  A    between atoms: C_1  and  C_2
REMARK    2  A    between atoms: C_4  and  C_5
REMARK    3  A    between atoms: C_6  and  C_7
REMARK    4  A    between atoms: C_7  and  N_8
REMARK    5  A    between atoms: C_9  and  C_11
REMARK    6  A    between atoms: C_13  and  C_14
REMARK                            x       y       z     vdW  Elec       q    Type
REMARK                         _______ _______ _______ _____ _____    ______ ____
ROOT
ATOM      1  N   UNL     1       1.891   7.964  19.321  0.00  0.00    +0.000 N 
ATOM      2  C   UNL     1       2.090   6.763  19.974  0.00  0.00    +0.000 C 
ATOM      3  O   UNL     1       1.428   6.390  20.937  0.00  0.00    +0.000 OA
ATOM      4  H   UNL     1       2.475   8.219  18.530  0.00  0.00    +0.000 HD
ENDROOT
BRANCH   2   5
ATOM      5  C   UNL     1       3.115   5.861  19.375  0.00  0.00    +0.000 A 
ATOM      6  C   UNL     1       4.358   6.403  19.014  0.00  0.00    +0.000 A 
ATOM      7  C   UNL     1       5.362   5.541  18.596  0.00  0.00    +0.000 A 
ATOM      8  N   UNL     1       5.227   4.209  18.796  0.00  0.00    +0.000 NA
ATOM      9  C   UNL     1       4.005   3.705  18.968  0.00  0.00    +0.000 A 
ATOM     10  C   UNL     1       3.850   2.342  18.855  0.00  0.00    +0.000 A 
ATOM     11  C   UNL     1       2.703   1.832  18.274  0.00  0.00    +0.000 A 
ATOM     12  C   UNL     1       1.563   2.618  18.287  0.00  0.00    +0.000 A 
ATOM     13  C   UNL     1       1.613   3.900  18.834  0.00  0.00    +0.000 A 
ATOM     14  C   UNL     1       2.870   4.502  19.099  0.00  0.00    +0.000 A 
BRANCH   7  15
ATOM     15  C   UNL     1       6.535   5.953  17.731  0.00  0.00    +0.000 C 
ATOM     16  C   UNL     1       7.772   6.463  18.437  0.00  0.00    +0.000 C 
ATOM     17  C   UNL     1       7.018   7.355  17.496  0.00  0.00    +0.000 C 
ENDBRANCH   7  15
ENDBRANCH   2   5
BRANCH   1  18
ATOM     18  C   UNL     1       0.895   8.956  19.692  0.00  0.00    +0.000 C 
BRANCH  18  24
ATOM     19  C   UNL     1       2.818  14.187  17.983  0.00  0.00    +0.000 C 
ATOM     20  C   UNL     1       2.279  12.882  18.485  0.00  0.00    +0.000 A 
ATOM     21  C   UNL     1       1.616  12.759  19.641  0.00  0.00    +0.000 A 
ATOM     22  C   UNL     1       1.123  11.462  20.086  0.00  0.00    +0.000 A 
ATOM     23  C   UNL     1       0.338  11.465  21.374  0.00  0.00    +0.000 C 
ATOM     24  C   UNL     1       1.344  10.360  19.362  0.00  0.00    +0.000 A 
ATOM     25  C   UNL     1       2.044  10.514  18.036  0.00  0.00    +0.000 A 
ATOM     26  O   UNL     1       2.232   9.576  17.270  0.00  0.00    +0.000 OA
ATOM     27  N   UNL     1       2.481  11.771  17.706  0.00  0.00    +0.000 N 
ATOM     28  H   UNL     1       2.950  11.843  16.807  0.00  0.00    +0.000 HD
ENDBRANCH  18  24
ENDBRANCH   1  18
TORSDOF 4
ENDMDL
MODEL 4
REMARK VINA RESULT:      -8.2      2.570      8.289
REMARK  Name = 
REMARK  6 active torsions:
REMARK  status: ('A' for Active; 'I' for Inactive)
REMARK    1  A    between atoms: C_1  and  C_2
REMARK    2  A    between atoms: C_4  and  C_5
REMARK    3  A    between atoms: C_6  and  C_7
REMARK    4  A    between atoms: C_7  and  N_8
REMARK    5  A    between atoms: C_9  and  C_11
REMARK    6  A    between atoms: C_13  and  C_14
REMARK                            x       y       z     vdW  Elec       q    Type
REMARK                         _______ _______ _______ _____ _____    ______ ____
ROOT
ATOM      1  N   UNL     1       1.756   8.134  19.096  0.00  0.00    +0.000 N 
ATOM      2  C   UNL     1       2.133   6.975  19.747  0.00  0.00    +0.000 C 
ATOM      3  O   UNL     1       1.736   6.656  20.862  0.00  0.00    +0.000 OA
ATOM      4  H   UNL     1       2.123   8.345  18.172  0.00  0.00    +0.000 HD
ENDROOT
BRANCH   2   5
ATOM      5  C   UNL     1       2.998   6.045  18.965  0.00  0.00    +0.000 A 
ATOM      6  C   UNL     1       4.100   6.572  18.275  0.00  0.00    +0.000 A 
ATOM      7  C   UNL     1       4.989   5.692  17.672  0.00  0.00    +0.000 A 
ATOM      8  N   UNL     1       4.938   4.375  17.977  0.00  0.00    +0.000 NA
ATOM      9  C   UNL     1       3.808   3.874  18.476  0.00  0.00    +0.000 A 
ATOM     10  C   UNL     1       3.660   2.506  18.486  0.00  0.00    +0.000 A 
ATOM     11  C   UNL     1       2.417   1.952  18.239  0.00  0.00    +0.000 A 
ATOM     12  C   UNL     1       1.298   2.729  18.489  0.00  0.00    +0.000 A 
ATOM     13  C   UNL     1       1.453   4.043  18.931  0.00  0.00    +0.000 A 
ATOM     14  C   UNL     1       2.723   4.669  18.839  0.00  0.00    +0.000 A 
BRANCH   7  15
ATOM     15  C   UNL     1       5.901   6.059  16.519  0.00  0.00    +0.000 C 
ATOM     16  C   UNL     1       5.480   5.616  15.135  0.00  0.00    +0.000 C 
ATOM     17  C   UNL     1       6.763   5.115  15.731  0.00  0.00    +0.000 C 
ENDBRANCH   7  15
ENDBRANCH   2   5
BRANCH   1  18
ATOM     18  C   UNL     1       0.862   9.140  19.645  0.00  0.00    +0.000 C 
BRANCH  18  24
ATOM     19  C   UNL     1       2.864  14.364  18.006  0.00  0.00    +0.000 C 
ATOM     20  C   UNL     1       2.303  13.061  18.489  0.00  0.00    +0.000 A 
ATOM     21  C   UNL     1       1.603  12.940  19.623  0.00  0.00    +0.000 A 
ATOM     22  C   UNL     1       1.090  11.644  20.051  0.00  0.00    +0.000 A 
ATOM     23  C   UNL     1       0.265  11.649  21.313  0.00  0.00    +0.000 C 
ATOM     24  C   UNL     1       1.328  10.542  19.332  0.00  0.00    +0.000 A 
ATOM     25  C   UNL     1       2.070  10.695  18.029  0.00  0.00    +0.000 A 
ATOM     26  O   UNL     1       2.278   9.758  17.267  0.00  0.00    +0.000 OA
ATOM     27  N   UNL     1       2.524  11.951  17.715  0.00  0.00    +0.000 N 
ATOM     28  H   UNL     1       3.021  12.021  16.831  0.00  0.00    +0.000 HD
ENDBRANCH  18  24
ENDBRANCH   1  18
TORSDOF 4
ENDMDL
MODEL 5
REMARK VINA RESULT:      -8.1      1.906      7.469
REMARK  Name = 
REMARK  6 active torsions:
REMARK  status: ('A' for Active; 'I' for Inactive)
REMARK    1  A    between atoms: C_1  and  C_2
REMARK    2  A    between atoms: C_4  and  C_5
REMARK    3  A    between atoms: C_6  and  C_7
REMARK    4  A    between atoms: C_7  and  N_8
REMARK    5  A    between atoms: C_9  and  C_11
REMARK    6  A    between atoms: C_13  and  C_14
REMARK                            x       y       z     vdW  Elec       q    Type
REMARK                         _______ _______ _______ _____ _____    ______ ____
ROOT
ATOM      1  N   UNL     1       1.520   8.922  19.375  0.00  0.00    +0.000 N 
ATOM      2  C   UNL     1       2.157   8.270  18.337  0.00  0.00    +0.000 C 
ATOM      3  O   UNL     1       2.500   8.816  17.293  0.00  0.00    +0.000 OA
ATOM      4  H   UNL     1       1.257   8.414  20.214  0.00  0.00    +0.000 HD
ENDROOT
BRANCH   2   5
ATOM      5  C   UNL     1       2.514   6.845  18.589  0.00  0.00    +0.000 A 
ATOM      6  C   UNL     1       1.966   6.202  19.709  0.00  0.00    +0.000 A 
ATOM      7  C   UNL     1       2.176   4.839  19.863  0.00  0.00    +0.000 A 
ATOM      8  N   UNL     1       2.658   4.115  18.827  0.00  0.00    +0.000 NA
ATOM      9  C   UNL     1       3.326   4.743  17.858  0.00  0.00    +0.000 A 
ATOM     10  C   UNL     1       4.070   3.978  16.990  0.00  0.00    +0.000 A 
ATOM     11  C   UNL     1       5.282   4.457  16.527  0.00  0.00    +0.000 A 
ATOM     12  C   UNL     1       5.480   5.828  16.520  0.00  0.00    +0.000 A 
ATOM     13  C   UNL     1       4.487   6.672  17.016  0.00  0.00    +0.000 A 
ATOM     14  C   UNL     1       3.425   6.131  17.786  0.00  0.00    +0.000 A 
BRANCH   7  15
ATOM     15  C   UNL     1       2.103   4.109  21.189  0.00  0.00    +0.000 C 
ATOM     16  C   UNL     1       2.806   2.773  21.283  0.00  0.00    +0.000 C 
ATOM     17  C   UNL     1       1.321   2.860  21.475  0.00  0.00    +0.000 C 
ENDBRANCH   7  15
ENDBRANCH   2   5
BRANCH   1  18
ATOM     18  C   UNL     1       1.148  10.328  19.368  0.00  0.00    +0.000 C 
BRANCH  18  24
ATOM     19  C   UNL     1      -2.640  11.972  23.483  0.00  0.00    +0.000 C 
ATOM     20  C   UNL     1      -1.638  11.488  22.479  0.00  0.00    +0.000 A 
ATOM     21  C   UNL     1      -0.676  10.606  22.772  0.00  0.00    +0.000 A 
ATOM     22  C   UNL     1       0.280  10.177  21.758  0.00  0.00    +0.000 A 
ATOM     23  C   UNL     1       1.277   9.133  22.195  0.00  0.00    +0.000 C 
ATOM     24  C   UNL     1       0.233  10.676  20.518  0.00  0.00    +0.000 A 
ATOM     25  C   UNL     1      -0.886  11.628  20.182  0.00  0.00    +0.000 A 
ATOM     26  O   UNL     1      -1.055  12.086  19.057  0.00  0.00    +0.000 OA
ATOM     27  N   UNL     1      -1.731  11.982  21.203  0.00  0.00    +0.000 N 
ATOM     28  H   UNL     1      -2.474  12.625  20.945  0.00  0.00    +0.000 HD
ENDBRANCH  18  24
ENDBRANCH   1  18
TORSDOF 4
ENDMDL
MODEL 6
REMARK VINA RESULT:      -8.1      1.736      7.433
REMARK  Name = 
REMARK  6 active torsions:
REMARK  status: ('A' for Active; 'I' for Inactive)
REMARK    1  A    between atoms: C_1  and  C_2
REMARK    2  A    between atoms: C_4  and  C_5
REMARK    3  A    between atoms: C_6  and  C_7
REMARK    4  A    between atoms: C_7  and  N_8
REMARK    5  A    between atoms: C_9  and  C_11
REMARK    6  A    between atoms: C_13  and  C_14
REMARK                            x       y       z     vdW  Elec       q    Type
REMARK                         _______ _______ _______ _____ _____    ______ ____
ROOT
ATOM      1  N   UNL     1       1.613   8.923  19.129  0.00  0.00    +0.000 N 
ATOM      2  C   UNL     1       2.261   8.210  18.139  0.00  0.00    +0.000 C 
ATOM      3  O   UNL     1       2.770   8.722  17.148  0.00  0.00    +0.000 OA
ATOM      4  H   UNL     1       1.208   8.440  19.926  0.00  0.00    +0.000 HD
ENDROOT
BRANCH   2   5
ATOM      5  C   UNL     1       2.409   6.747  18.386  0.00  0.00    +0.000 A 
ATOM      6  C   UNL     1       1.599   6.144  19.360  0.00  0.00    +0.000 A 
ATOM      7  C   UNL     1       1.628   4.762  19.487  0.00  0.00    +0.000 A 
ATOM      8  N   UNL     1       2.210   4.013  18.521  0.00  0.00    +0.000 NA
ATOM      9  C   UNL     1       3.108   4.584  17.718  0.00  0.00    +0.000 A 
ATOM     10  C   UNL     1       3.911   3.761  16.963  0.00  0.00    +0.000 A 
ATOM     11  C   UNL     1       5.232   4.109  16.746  0.00  0.00    +0.000 A 
ATOM     12  C   UNL     1       5.575   5.447  16.836  0.00  0.00    +0.000 A 
ATOM     13  C   UNL     1       4.606   6.388  17.185  0.00  0.00    +0.000 A 
ATOM     14  C   UNL     1       3.368   5.953  17.728  0.00  0.00    +0.000 A 
BRANCH   7  15
ATOM     15  C   UNL     1       1.236   4.012  20.744  0.00  0.00    +0.000 C 
ATOM     16  C   UNL     1       2.339   3.673  21.721  0.00  0.00    +0.000 C 
ATOM     17  C   UNL     1       1.552   2.580  21.061  0.00  0.00    +0.000 C 
ENDBRANCH   7  15
ENDBRANCH   2   5
BRANCH   1  18
ATOM     18  C   UNL     1       1.424  10.365  19.125  0.00  0.00    +0.000 C 
BRANCH  18  24
ATOM     19  C   UNL     1      -2.397  11.800  23.286  0.00  0.00    +0.000 C 
ATOM     20  C   UNL     1      -1.455  11.487  22.164  0.00  0.00    +0.000 A 
ATOM     21  C   UNL     1      -1.643  11.912  20.909  0.00  0.00    +0.000 A 
ATOM     22  C   UNL     1      -0.699  11.568  19.854  0.00  0.00    +0.000 A 
ATOM     23  C   UNL     1      -0.989  12.158  18.496  0.00  0.00    +0.000 C 
ATOM     24  C   UNL     1       0.364  10.799  20.109  0.00  0.00    +0.000 A 
ATOM     25  C   UNL     1       0.599  10.369  21.535  0.00  0.00    +0.000 A 
ATOM     26  O   UNL     1       1.580   9.721  21.882  0.00  0.00    +0.000 OA
ATOM     27  N   UNL     1      -0.349  10.731  22.458  0.00  0.00    +0.000 N 
ATOM     28  H   UNL     1      -0.163  10.426  23.410  0.00  0.00    +0.000 HD
ENDBRANCH  18  24
ENDBRANCH   1  18
TORSDOF 4
ENDMDL
MODEL 7
REMARK VINA RESULT:      -8.0      1.349      1.808
REMARK  Name = 
REMARK  6 active torsions:
REMARK  status: ('A' for Active; 'I' for Inactive)
REMARK    1  A    between atoms: C_1  and  C_2
REMARK    2  A    between atoms: C_4  and  C_5
REMARK    3  A    between atoms: C_6  and  C_7
REMARK    4  A    between atoms: C_7  and  N_8
REMARK    5  A    between atoms: C_9  and  C_11
REMARK    6  A    between atoms: C_13  and  C_14
REMARK                            x       y       z     vdW  Elec       q    Type
REMARK                         _______ _______ _______ _____ _____    ______ ____
ROOT
ATOM      1  N   UNL     1       1.830   8.606  18.467  0.00  0.00    +0.000 N 
ATOM      2  C   UNL     1       1.584   9.948  18.251  0.00  0.00    +0.000 C 
ATOM      3  O   UNL     1       2.212  10.640  17.456  0.00  0.00    +0.000 OA
ATOM      4  H   UNL     1       1.276   8.087  19.142  0.00  0.00    +0.000 HD
ENDROOT
BRANCH   2   5
ATOM      5  C   UNL     1       0.413  10.518  18.977  0.00  0.00    +0.000 A 
ATOM      6  C   UNL     1       0.585  10.937  20.305  0.00  0.00    +0.000 A 
ATOM      7  C   UNL     1      -0.460  11.603  20.932  0.00  0.00    +0.000 A 
ATOM      8  N   UNL     1      -1.495  12.068  20.196  0.00  0.00    +0.000 NA
ATOM      9  C   UNL     1      -1.732  11.523  19.002  0.00  0.00    +0.000 A 
ATOM     10  C   UNL     1      -2.948  11.775  18.410  0.00  0.00    +0.000 A 
ATOM     11  C   UNL     1      -3.571  10.777  17.682  0.00  0.00    +0.000 A 
ATOM     12  C   UNL     1      -2.782   9.773  17.147  0.00  0.00    +0.000 A 
ATOM     13  C   UNL     1      -1.409   9.768  17.391  0.00  0.00    +0.000 A 
ATOM     14  C   UNL     1      -0.874  10.599  18.410  0.00  0.00    +0.000 A 
BRANCH   7  15
ATOM     15  C   UNL     1      -0.644  11.677  22.434  0.00  0.00    +0.000 C 
ATOM     16  C   UNL     1      -0.986  10.392  23.155  0.00  0.00    +0.000 C 
ATOM     17  C   UNL     1      -1.941  11.549  23.179  0.00  0.00    +0.000 C 
ENDBRANCH   7  15
ENDBRANCH   2   5
BRANCH   1  18
ATOM     18  C   UNL     1       2.872   7.837  17.808  0.00  0.00    +0.000 C 
BRANCH  18  24
ATOM     19  C   UNL     1       3.995   2.533  19.951  0.00  0.00    +0.000 C 
ATOM     20  C   UNL     1       3.671   3.918  19.477  0.00  0.00    +0.000 A 
ATOM     21  C   UNL     1       2.900   4.766  20.165  0.00  0.00    +0.000 A 
ATOM     22  C   UNL     1       2.609   6.098  19.651  0.00  0.00    +0.000 A 
ATOM     23  C   UNL     1       1.780   6.983  20.548  0.00  0.00    +0.000 C 
ATOM     24  C   UNL     1       3.086   6.494  18.466  0.00  0.00    +0.000 A 
ATOM     25  C   UNL     1       3.997   5.553  17.721  0.00  0.00    +0.000 A 
ATOM     26  O   UNL     1       4.538   5.849  16.662  0.00  0.00    +0.000 OA
ATOM     27  N   UNL     1       4.205   4.317  18.278  0.00  0.00    +0.000 N 
ATOM     28  H   UNL     1       4.823   3.705  17.752  0.00  0.00    +0.000 HD
ENDBRANCH  18  24
ENDBRANCH   1  18
TORSDOF 4
ENDMDL
MODEL 8
REMARK VINA RESULT:      -7.9      3.445      6.409
REMARK  Name = 
REMARK  6 active torsions:
REMARK  status: ('A' for Active; 'I' for Inactive)
REMARK    1  A    between atoms: C_1  and  C_2
REMARK    2  A    between atoms: C_4  and  C_5
REMARK    3  A    between atoms: C_6  and  C_7
REMARK    4  A    between atoms: C_7  and  N_8
REMARK    5  A    between atoms: C_9  and  C_11
REMARK    6  A    between atoms: C_13  and  C_14
REMARK                            x       y       z     vdW  Elec       q    Type
REMARK                         _______ _______ _______ _____ _____    ______ ____
ROOT
ATOM      1  N   UNL     1       5.455   5.598  17.925  0.00  0.00    +0.000 N 
ATOM      2  C   UNL     1       4.450   6.502  17.636  0.00  0.00    +0.000 C 
ATOM      3  O   UNL     1       4.428   7.201  16.629  0.00  0.00    +0.000 OA
ATOM      4  H   UNL     1       5.419   5.048  18.779  0.00  0.00    +0.000 HD
ENDROOT
BRANCH   2   5
ATOM      5  C   UNL     1       3.301   6.519  18.586  0.00  0.00    +0.000 A 
ATOM      6  C   UNL     1       2.947   5.326  19.235  0.00  0.00    +0.000 A 
ATOM      7  C   UNL     1       1.978   5.372  20.228  0.00  0.00    +0.000 A 
ATOM      8  N   UNL     1       1.595   6.567  20.734  0.00  0.00    +0.000 NA
ATOM      9  C   UNL     1       1.795   7.667  20.009  0.00  0.00    +0.000 A 
ATOM     10  C   UNL     1       1.131   8.813  20.381  0.00  0.00    +0.000 A 
ATOM     11  C   UNL     1       0.658   9.674  19.407  0.00  0.00    +0.000 A 
ATOM     12  C   UNL     1       1.273   9.653  18.167  0.00  0.00    +0.000 A 
ATOM     13  C   UNL     1       2.303   8.745  17.920  0.00  0.00    +0.000 A 
ATOM     14  C   UNL     1       2.516   7.665  18.817  0.00  0.00    +0.000 A 
BRANCH   7  15
ATOM     15  C   UNL     1       1.145   4.183  20.662  0.00  0.00    +0.000 C 
ATOM     16  C   UNL     1       1.836   3.114  21.479  0.00  0.00    +0.000 C 
ATOM     17  C   UNL     1       1.254   2.781  20.137  0.00  0.00    +0.000 C 
ENDBRANCH   7  15
ENDBRANCH   2   5
BRANCH   1  18
ATOM     18  C   UNL     1       6.627   5.367  17.096  0.00  0.00    +0.000 C 
BRANCH  18  24
ATOM     19  C   UNL     1       5.642   3.074  11.829  0.00  0.00    +0.000 C 
ATOM     20  C   UNL     1       5.840   3.605  13.216  0.00  0.00    +0.000 A 
ATOM     21  C   UNL     1       5.079   3.242  14.255  0.00  0.00    +0.000 A 
ATOM     22  C   UNL     1       5.309   3.799  15.581  0.00  0.00    +0.000 A 
ATOM     23  C   UNL     1       4.426   3.265  16.681  0.00  0.00    +0.000 C 
ATOM     24  C   UNL     1       6.271   4.706  15.786  0.00  0.00    +0.000 A 
ATOM     25  C   UNL     1       7.158   5.070  14.623  0.00  0.00    +0.000 A 
ATOM     26  O   UNL     1       8.107   5.838  14.724  0.00  0.00    +0.000 OA
ATOM     27  N   UNL     1       6.858   4.503  13.410  0.00  0.00    +0.000 N 
ATOM     28  H   UNL     1       7.473   4.768  12.646  0.00  0.00    +0.000 HD
ENDBRANCH  18  24
ENDBRANCH   1  18
TORSDOF 4
ENDMDL
MODEL 9
REMARK VINA RESULT:      -7.9      1.297      3.214
REMARK  Name = 
REMARK  6 active torsions:
REMARK  status: ('A' for Active; 'I' for Inactive)
REMARK    1  A    between atoms: C_1  and  C_2
REMARK    2  A    between atoms: C_4  and  C_5
REMARK    3  A    between atoms: C_6  and  C_7
REMARK    4  A    between atoms: C_7  and  N_8
REMARK    5  A    between atoms: C_9  and  C_11
REMARK    6  A    between atoms: C_13  and  C_14
REMARK                            x       y       z     vdW  Elec       q    Type
REMARK                         _______ _______ _______ _____ _____    ______ ____
ROOT
ATOM      1  N   UNL     1       1.670   8.313  18.413  0.00  0.00    +0.000 N 
ATOM      2  C   UNL     1       1.542   9.627  18.004  0.00  0.00    +0.000 C 
ATOM      3  O   UNL     1       2.439  10.266  17.466  0.00  0.00    +0.000 OA
ATOM      4  H   UNL     1       0.890   7.837  18.858  0.00  0.00    +0.000 HD
ENDROOT
BRANCH   2   5
ATOM      5  C   UNL     1       0.185  10.225  18.160  0.00  0.00    +0.000 A 
ATOM      6  C   UNL     1      -0.874   9.693  17.410  0.00  0.00    +0.000 A 
ATOM      7  C   UNL     1      -2.162  10.147  17.663  0.00  0.00    +0.000 A 
ATOM      8  N   UNL     1      -2.409  10.871  18.779  0.00  0.00    +0.000 NA
ATOM      9  C   UNL     1      -1.397  11.506  19.371  0.00  0.00    +0.000 A 
ATOM     10  C   UNL     1      -1.700  12.476  20.298  0.00  0.00    +0.000 A 
ATOM     11  C   UNL     1      -0.919  13.615  20.375  0.00  0.00    +0.000 A 
ATOM     12  C   UNL     1       0.385  13.541  19.915  0.00  0.00    +0.000 A 
ATOM     13  C   UNL     1       0.853  12.354  19.351  0.00  0.00    +0.000 A 
ATOM     14  C   UNL     1      -0.069  11.340  18.982  0.00  0.00    +0.000 A 
BRANCH   7  15
ATOM     15  C   UNL     1      -3.302  10.073  16.669  0.00  0.00    +0.000 C 
ATOM     16  C   UNL     1      -3.161  10.872  15.392  0.00  0.00    +0.000 C 
ATOM     17  C   UNL     1      -4.277  11.169  16.349  0.00  0.00    +0.000 C 
ENDBRANCH   7  15
ENDBRANCH   2   5
BRANCH   1  18
ATOM     18  C   UNL     1       2.880   7.518  18.285  0.00  0.00    +0.000 C 
BRANCH  18  24
ATOM     19  C   UNL     1       2.273   2.749  21.581  0.00  0.00    +0.000 C 
ATOM     20  C   UNL     1       2.453   3.923  20.668  0.00  0.00    +0.000 A 
ATOM     21  C   UNL     1       3.021   3.832  19.460  0.00  0.00    +0.000 A 
ATOM     22  C   UNL     1       3.180   5.011  18.618  0.00  0.00    +0.000 A 
ATOM     23  C   UNL     1       3.779   4.768  17.255  0.00  0.00    +0.000 C 
ATOM     24  C   UNL     1       2.784   6.215  19.043  0.00  0.00    +0.000 A 
ATOM     25  C   UNL     1       2.096   6.301  20.381  0.00  0.00    +0.000 A 
ATOM     26  O   UNL     1       1.637   7.346  20.828  0.00  0.00    +0.000 OA
ATOM     27  N   UNL     1       2.002   5.142  21.108  0.00  0.00    +0.000 N 
ATOM     28  H   UNL     1       1.533   5.232  22.005  0.00  0.00    +0.000 HD
ENDBRANCH  18  24
ENDBRANCH   1  18
TORSDOF 4
ENDMDL
