MODEL 1
REMARK VINA RESULT:      -9.1      0.000      0.000
REMARK  Name = 
REMARK  2 active torsions:
REMARK  status: ('A' for Active; 'I' for Inactive)
REMARK    1  A    between atoms: C_4  and  C_5
REMARK    2  A    between atoms: C_13  and  C_14
REMARK                            x       y       z     vdW  Elec       q    Type
REMARK                         _______ _______ _______ _____ _____    ______ ____
ROOT
ATOM      1  C   UNL     1       4.253   5.930  17.469  0.00  0.00    +0.000 C 
ATOM      2  O   UNL     1       4.716   6.913  16.881  0.00  0.00    +0.000 OA
ATOM      3  N   UNL     1       3.166   6.003  18.359  0.00  0.00    +0.000 N 
ATOM      4  C   UNL     1       2.659   4.853  19.121  0.00  0.00    +0.000 C 
ATOM      5  C   UNL     1       2.568   5.167  20.599  0.00  0.00    +0.000 C 
ATOM      6  C   UNL     1       1.579   6.294  20.818  0.00  0.00    +0.000 C 
ATOM      7  C   UNL     1       1.744   7.408  19.816  0.00  0.00    +0.000 A 
ATOM      8  C   UNL     1       1.121   8.638  20.111  0.00  0.00    +0.000 A 
ATOM      9  C   UNL     1       1.220   9.732  19.245  0.00  0.00    +0.000 A 
ATOM     10  C   UNL     1       1.924   9.568  18.051  0.00  0.00    +0.000 A 
ATOM     11  C   UNL     1       2.535   8.347  17.745  0.00  0.00    +0.000 A 
ATOM     12  C   UNL     1       2.484   7.254  18.625  0.00  0.00    +0.000 A 
ENDROOT
BRANCH   1  16
ATOM     13  O   UNL     1       7.808   5.838  19.127  0.00  0.00    +0.000 OA
ATOM     14  C   UNL     1       7.185   5.343  18.185  0.00  0.00    +0.000 C 
ATOM     15  C   UNL     1       6.012   4.412  18.398  0.00  0.00    +0.000 C 
ATOM     16  C   UNL     1       4.969   4.577  17.295  0.00  0.00    +0.000 C 
ATOM     17  C   UNL     1       5.638   4.462  15.946  0.00  0.00    +0.000 A 
ATOM     18  C   UNL     1       4.952   3.926  14.849  0.00  0.00    +0.000 A 
ATOM     19  C   UNL     1       5.562   3.900  13.598  0.00  0.00    +0.000 A 
ATOM     20  C   UNL     1       6.841   4.436  13.434  0.00  0.00    +0.000 A 
ATOM     21  C   UNL     1       7.523   4.987  14.523  0.00  0.00    +0.000 A 
ATOM     22  C   UNL     1       6.928   4.975  15.782  0.00  0.00    +0.000 A 
ATOM     23  N   UNL     1       7.609   5.494  16.890  0.00  0.00    +0.000 N 
ATOM     24  H   UNL     1       8.453   6.039  16.757  0.00  0.00    +0.000 HD
ENDBRANCH   1  16
BRANCH   9  25
ATOM     25  C   UNL     1       0.592  11.062  19.580  0.00  0.00    +0.000 C 
ATOM     26  F   UNL     1      -0.730  10.973  19.900  0.00  0.00    +0.000 F 
ATOM     27  F   UNL     1       1.190  11.669  20.642  0.00  0.00    +0.000 F 
ATOM     28  F   UNL     1       0.666  11.949  18.551  0.00  0.00    +0.000 F 
ENDBRANCH   9  25
TORSDOF 2
ENDMDL
MODEL 2
REMARK VINA RESULT:      -8.3      4.111      8.029
REMARK  Name = 
REMARK  2 active torsions:
REMARK  status: ('A' for Active; 'I' for Inactive)
REMARK    1  A    between atoms: C_4  and  C_5
REMARK    2  A    between atoms: C_13  and  C_14
REMARK                            x       y       z     vdW  Elec       q    Type
REMARK                         _______ _______ _______ _____ _____    ______ ____
ROOT
ATOM      1  C   UNL     1       1.366   9.311  18.931  0.00  0.00    +0.000 C 
ATOM      2  O   UNL     1       1.582   9.675  17.771  0.00  0.00    +0.000 OA
ATOM      3  N   UNL     1       1.901   8.133  19.482  0.00  0.00    +0.000 N 
ATOM      4  C   UNL     1       1.587   7.651  20.836  0.00  0.00    +0.000 C 
ATOM      5  C   UNL     1       1.122   6.210  20.815  0.00  0.00    +0.000 C 
ATOM      6  C   UNL     1       2.236   5.326  20.294  0.00  0.00    +0.000 C 
ATOM      7  C   UNL     1       2.927   5.916  19.091  0.00  0.00    +0.000 A 
ATOM      8  C   UNL     1       3.740   5.053  18.328  0.00  0.00    +0.000 A 
ATOM      9  C   UNL     1       4.419   5.507  17.191  0.00  0.00    +0.000 A 
ATOM     10  C   UNL     1       4.303   6.855  16.847  0.00  0.00    +0.000 A 
ATOM     11  C   UNL     1       3.507   7.720  17.607  0.00  0.00    +0.000 A 
ATOM     12  C   UNL     1       2.783   7.269  18.723  0.00  0.00    +0.000 A 
ENDROOT
BRANCH   1  16
ATOM     13  O   UNL     1      -2.068   9.938  17.137  0.00  0.00    +0.000 OA
ATOM     14  C   UNL     1      -1.313  10.465  17.957  0.00  0.00    +0.000 C 
ATOM     15  C   UNL     1      -1.047   9.851  19.315  0.00  0.00    +0.000 C 
ATOM     16  C   UNL     1       0.379  10.136  19.779  0.00  0.00    +0.000 C 
ATOM     17  C   UNL     1       0.655  11.617  19.684  0.00  0.00    +0.000 A 
ATOM     18  C   UNL     1       1.524  12.244  20.586  0.00  0.00    +0.000 A 
ATOM     19  C   UNL     1       1.822  13.595  20.433  0.00  0.00    +0.000 A 
ATOM     20  C   UNL     1       1.281  14.312  19.364  0.00  0.00    +0.000 A 
ATOM     21  C   UNL     1       0.427  13.687  18.452  0.00  0.00    +0.000 A 
ATOM     22  C   UNL     1       0.096  12.346  18.630  0.00  0.00    +0.000 A 
ATOM     23  N   UNL     1      -0.783  11.712  17.744  0.00  0.00    +0.000 N 
ATOM     24  H   UNL     1      -1.041  12.163  16.875  0.00  0.00    +0.000 HD
ENDBRANCH   1  16
BRANCH   9  25
ATOM     25  C   UNL     1       5.253   4.576  16.348  0.00  0.00    +0.000 C 
ATOM     26  F   UNL     1       4.938   3.261  16.517  0.00  0.00    +0.000 F 
ATOM     27  F   UNL     1       5.124   4.821  15.015  0.00  0.00    +0.000 F 
ATOM     28  F   UNL     1       6.583   4.677  16.620  0.00  0.00    +0.000 F 
ENDBRANCH   9  25
TORSDOF 2
ENDMDL
MODEL 3
REMARK VINA RESULT:      -7.9      4.221      8.354
REMARK  Name = 
REMARK  2 active torsions:
REMARK  status: ('A' for Active; 'I' for Inactive)
REMARK    1  A    between atoms: C_4  and  C_5
REMARK    2  A    between atoms: C_13  and  C_14
REMARK                            x       y       z     vdW  Elec       q    Type
REMARK                         _______ _______ _______ _____ _____    ______ ____
ROOT
ATOM      1  C   UNL     1       0.667  10.053  18.964  0.00  0.00    +0.000 C 
ATOM      2  O   UNL     1       0.806  10.235  17.750  0.00  0.00    +0.000 OA
ATOM      3  N   UNL     1       1.275   8.993  19.661  0.00  0.00    +0.000 N 
ATOM      4  C   UNL     1       1.053   8.724  21.089  0.00  0.00    +0.000 C 
ATOM      5  C   UNL     1       0.643   7.285  21.322  0.00  0.00    +0.000 C 
ATOM      6  C   UNL     1       1.760   6.361  20.881  0.00  0.00    +0.000 C 
ATOM      7  C   UNL     1       2.361   6.773  19.561  0.00  0.00    +0.000 A 
ATOM      8  C   UNL     1       3.165   5.824  18.896  0.00  0.00    +0.000 A 
ATOM      9  C   UNL     1       3.763   6.111  17.664  0.00  0.00    +0.000 A 
ATOM     10  C   UNL     1       3.578   7.383  17.120  0.00  0.00    +0.000 A 
ATOM     11  C   UNL     1       2.792   8.334  17.781  0.00  0.00    +0.000 A 
ATOM     12  C   UNL     1       2.147   8.046  18.995  0.00  0.00    +0.000 A 
ENDROOT
BRANCH   1  16
ATOM     13  O   UNL     1      -2.352  11.281  16.777  0.00  0.00    +0.000 OA
ATOM     14  C   UNL     1      -1.654  11.646  17.726  0.00  0.00    +0.000 C 
ATOM     15  C   UNL     1      -1.674  10.931  19.060  0.00  0.00    +0.000 C 
ATOM     16  C   UNL     1      -0.303  10.974  19.730  0.00  0.00    +0.000 C 
ATOM     17  C   UNL     1       0.192  12.399  19.778  0.00  0.00    +0.000 A 
ATOM     18  C   UNL     1       1.004  12.841  20.830  0.00  0.00    +0.000 A 
ATOM     19  C   UNL     1       1.510  14.137  20.814  0.00  0.00    +0.000 A 
ATOM     20  C   UNL     1       1.235  14.981  19.737  0.00  0.00    +0.000 A 
ATOM     21  C   UNL     1       0.439  14.539  18.676  0.00  0.00    +0.000 A 
ATOM     22  C   UNL     1      -0.102  13.256  18.714  0.00  0.00    +0.000 A 
ATOM     23  N   UNL     1      -0.927  12.807  17.675  0.00  0.00    +0.000 N 
ATOM     24  H   UNL     1      -0.992  13.336  16.814  0.00  0.00    +0.000 HD
ENDBRANCH   1  16
BRANCH   9  25
ATOM     25  C   UNL     1       4.585   5.083  16.929  0.00  0.00    +0.000 C 
ATOM     26  F   UNL     1       5.710   4.705  17.600  0.00  0.00    +0.000 F 
ATOM     27  F   UNL     1       3.894   3.934  16.689  0.00  0.00    +0.000 F 
ATOM     28  F   UNL     1       5.009   5.525  15.713  0.00  0.00    +0.000 F 
ENDBRANCH   9  25
TORSDOF 2
ENDMDL
MODEL 4
REMARK VINA RESULT:      -7.9      2.851      3.860
REMARK  Name = 
REMARK  2 active torsions:
REMARK  status: ('A' for Active; 'I' for Inactive)
REMARK    1  A    between atoms: C_4  and  C_5
REMARK    2  A    between atoms: C_13  and  C_14
REMARK                            x       y       z     vdW  Elec       q    Type
REMARK                         _______ _______ _______ _____ _____    ______ ____
ROOT
ATOM      1  C   UNL     1       2.601   6.417  19.304  0.00  0.00    +0.000 C 
ATOM      2  O   UNL     1       2.330   5.850  20.367  0.00  0.00    +0.000 OA
ATOM      3  N   UNL     1       2.216   7.739  19.013  0.00  0.00    +0.000 N 
ATOM      4  C   UNL     1       2.467   8.394  17.720  0.00  0.00    +0.000 C 
ATOM      5  C   UNL     1       1.196   8.986  17.147  0.00  0.00    +0.000 C 
ATOM      6  C   UNL     1       0.672  10.060  18.077  0.00  0.00    +0.000 C 
ATOM      7  C   UNL     1       0.727   9.646  19.525  0.00  0.00    +0.000 A 
ATOM      8  C   UNL     1      -0.025  10.409  20.442  0.00  0.00    +0.000 A 
ATOM      9  C   UNL     1      -0.041  10.100  21.807  0.00  0.00    +0.000 A 
ATOM     10  C   UNL     1       0.742   9.034  22.252  0.00  0.00    +0.000 A 
ATOM     11  C   UNL     1       1.501   8.280  21.350  0.00  0.00    +0.000 A 
ATOM     12  C   UNL     1       1.491   8.548  19.971  0.00  0.00    +0.000 A 
ENDROOT
BRANCH   1  16
ATOM     13  O   UNL     1       3.325   2.707  20.359  0.00  0.00    +0.000 OA
ATOM     14  C   UNL     1       3.781   3.597  19.638  0.00  0.00    +0.000 C 
ATOM     15  C   UNL     1       3.035   4.114  18.428  0.00  0.00    +0.000 C 
ATOM     16  C   UNL     1       3.306   5.599  18.204  0.00  0.00    +0.000 C 
ATOM     17  C   UNL     1       4.796   5.844  18.187  0.00  0.00    +0.000 A 
ATOM     18  C   UNL     1       5.346   6.861  17.397  0.00  0.00    +0.000 A 
ATOM     19  C   UNL     1       6.713   7.118  17.454  0.00  0.00    +0.000 A 
ATOM     20  C   UNL     1       7.524   6.384  18.321  0.00  0.00    +0.000 A 
ATOM     21  C   UNL     1       6.977   5.379  19.124  0.00  0.00    +0.000 A 
ATOM     22  C   UNL     1       5.617   5.095  19.035  0.00  0.00    +0.000 A 
ATOM     23  N   UNL     1       5.057   4.071  19.808  0.00  0.00    +0.000 N 
ATOM     24  H   UNL     1       5.591   3.653  20.561  0.00  0.00    +0.000 HD
ENDBRANCH   1  16
BRANCH   9  25
ATOM     25  C   UNL     1      -0.880  10.886  22.782  0.00  0.00    +0.000 C 
ATOM     26  F   UNL     1      -2.134  11.160  22.323  0.00  0.00    +0.000 F 
ATOM     27  F   UNL     1      -1.053  10.237  23.967  0.00  0.00    +0.000 F 
ATOM     28  F   UNL     1      -0.328  12.091  23.094  0.00  0.00    +0.000 F 
ENDBRANCH   9  25
TORSDOF 2
ENDMDL
MODEL 5
REMARK VINA RESULT:      -7.4      2.461      4.104
REMARK  Name = 
REMARK  2 active torsions:
REMARK  status: ('A' for Active; 'I' for Inactive)
REMARK    1  A    between atoms: C_4  and  C_5
REMARK    2  A    between atoms: C_13  and  C_14
REMARK                            x       y       z     vdW  Elec       q    Type
REMARK                         _______ _______ _______ _____ _____    ______ ____
ROOT
ATOM      1  C   UNL     1       2.543   7.094  19.025  0.00  0.00    +0.000 C 
ATOM      2  O   UNL     1       2.728   7.446  17.855  0.00  0.00    +0.000 OA
ATOM      3  N   UNL     1       1.700   7.784  19.915  0.00  0.00    +0.000 N 
ATOM      4  C   UNL     1       1.536   7.417  21.329  0.00  0.00    +0.000 C 
ATOM      5  C   UNL     1       1.762   8.608  22.237  0.00  0.00    +0.000 C 
ATOM      6  C   UNL     1       0.723   9.672  21.947  0.00  0.00    +0.000 C 
ATOM      7  C   UNL     1       0.505   9.877  20.470  0.00  0.00    +0.000 A 
ATOM      8  C   UNL     1      -0.176  11.047  20.076  0.00  0.00    +0.000 A 
ATOM      9  C   UNL     1      -0.423  11.328  18.728  0.00  0.00    +0.000 A 
ATOM     10  C   UNL     1      -0.010  10.398  17.773  0.00  0.00    +0.000 A 
ATOM     11  C   UNL     1       0.656   9.228  18.157  0.00  0.00    +0.000 A 
ATOM     12  C   UNL     1       0.953   8.954  19.502  0.00  0.00    +0.000 A 
ENDROOT
BRANCH   1  16
ATOM     13  O   UNL     1       5.210   5.768  16.468  0.00  0.00    +0.000 OA
ATOM     14  C   UNL     1       4.493   5.368  17.388  0.00  0.00    +0.000 C 
ATOM     15  C   UNL     1       4.690   5.825  18.817  0.00  0.00    +0.000 C 
ATOM     16  C   UNL     1       3.359   5.902  19.561  0.00  0.00    +0.000 C 
ATOM     17  C   UNL     1       2.617   4.596  19.406  0.00  0.00    +0.000 A 
ATOM     18  C   UNL     1       1.778   4.123  20.422  0.00  0.00    +0.000 A 
ATOM     19  C   UNL     1       1.046   2.956  20.226  0.00  0.00    +0.000 A 
ATOM     20  C   UNL     1       1.125   2.279  19.007  0.00  0.00    +0.000 A 
ATOM     21  C   UNL     1       1.949   2.756  17.984  0.00  0.00    +0.000 A 
ATOM     22  C   UNL     1       2.712   3.901  18.197  0.00  0.00    +0.000 A 
ATOM     23  N   UNL     1       3.567   4.375  17.194  0.00  0.00    +0.000 N 
ATOM     24  H   UNL     1       3.504   4.002  16.255  0.00  0.00    +0.000 HD
ENDBRANCH   1  16
BRANCH   9  25
ATOM     25  C   UNL     1      -1.112  12.600  18.302  0.00  0.00    +0.000 C 
ATOM     26  F   UNL     1      -1.742  13.245  19.324  0.00  0.00    +0.000 F 
ATOM     27  F   UNL     1      -0.250  13.508  17.766  0.00  0.00    +0.000 F 
ATOM     28  F   UNL     1      -2.065  12.385  17.354  0.00  0.00    +0.000 F 
ENDBRANCH   9  25
TORSDOF 2
ENDMDL
MODEL 6
REMARK VINA RESULT:      -7.4      6.772     11.690
REMARK  Name = 
REMARK  2 active torsions:
REMARK  status: ('A' for Active; 'I' for Inactive)
REMARK    1  A    between atoms: C_4  and  C_5
REMARK    2  A    between atoms: C_13  and  C_14
REMARK                            x       y       z     vdW  Elec       q    Type
REMARK                         _______ _______ _______ _____ _____    ______ ____
ROOT
ATOM      1  C   UNL     1      -4.137  12.617  20.121  0.00  0.00    +0.000 C 
ATOM      2  O   UNL     1      -4.366  12.129  19.010  0.00  0.00    +0.000 OA
ATOM      3  N   UNL     1      -2.910  12.464  20.793  0.00  0.00    +0.000 N 
ATOM      4  C   UNL     1      -2.655  12.975  22.148  0.00  0.00    +0.000 C 
ATOM      5  C   UNL     1      -2.114  11.889  23.054  0.00  0.00    +0.000 C 
ATOM      6  C   UNL     1      -0.782  11.401  22.523  0.00  0.00    +0.000 C 
ATOM      7  C   UNL     1      -0.795  11.203  21.029  0.00  0.00    +0.000 A 
ATOM      8  C   UNL     1       0.257  10.449  20.470  0.00  0.00    +0.000 A 
ATOM      9  C   UNL     1       0.330  10.207  19.094  0.00  0.00    +0.000 A 
ATOM     10  C   UNL     1      -0.650  10.766  18.272  0.00  0.00    +0.000 A 
ATOM     11  C   UNL     1      -1.691  11.525  18.818  0.00  0.00    +0.000 A 
ATOM     12  C   UNL     1      -1.804  11.738  20.202  0.00  0.00    +0.000 A 
ENDROOT
BRANCH   1  16
ATOM     13  O   UNL     1      -7.237  10.307  20.794  0.00  0.00    +0.000 OA
ATOM     14  C   UNL     1      -6.960  11.491  20.586  0.00  0.00    +0.000 C 
ATOM     15  C   UNL     1      -6.155  12.312  21.569  0.00  0.00    +0.000 C 
ATOM     16  C   UNL     1      -5.287  13.341  20.849  0.00  0.00    +0.000 C 
ATOM     17  C   UNL     1      -6.139  14.143  19.896  0.00  0.00    +0.000 A 
ATOM     18  C   UNL     1      -5.840  15.483  19.620  0.00  0.00    +0.000 A 
ATOM     19  C   UNL     1      -6.595  16.181  18.681  0.00  0.00    +0.000 A 
ATOM     20  C   UNL     1      -7.625  15.535  17.995  0.00  0.00    +0.000 A 
ATOM     21  C   UNL     1      -7.917  14.193  18.255  0.00  0.00    +0.000 A 
ATOM     22  C   UNL     1      -7.188  13.508  19.224  0.00  0.00    +0.000 A 
ATOM     23  N   UNL     1      -7.488  12.172  19.520  0.00  0.00    +0.000 N 
ATOM     24  H   UNL     1      -8.106  11.645  18.915  0.00  0.00    +0.000 HD
ENDBRANCH   1  16
BRANCH   9  25
ATOM     25  C   UNL     1       1.430   9.364  18.499  0.00  0.00    +0.000 C 
ATOM     26  F   UNL     1       1.981   8.487  19.386  0.00  0.00    +0.000 F 
ATOM     27  F   UNL     1       1.002   8.610  17.450  0.00  0.00    +0.000 F 
ATOM     28  F   UNL     1       2.464  10.112  18.026  0.00  0.00    +0.000 F 
ENDBRANCH   9  25
TORSDOF 2
ENDMDL
MODEL 7
REMARK VINA RESULT:      -7.3      8.780     12.571
REMARK  Name = 
REMARK  2 active torsions:
REMARK  status: ('A' for Active; 'I' for Inactive)
REMARK    1  A    between atoms: C_4  and  C_5
REMARK    2  A    between atoms: C_13  and  C_14
REMARK                            x       y       z     vdW  Elec       q    Type
REMARK                         _______ _______ _______ _____ _____    ______ ____
ROOT
ATOM      1  C   UNL     1      -4.081  12.755  22.012  0.00  0.00    +0.000 C 
ATOM      2  O   UNL     1      -5.202  12.363  21.674  0.00  0.00    +0.000 OA
ATOM      3  N   UNL     1      -2.953  12.682  21.174  0.00  0.00    +0.000 N 
ATOM      4  C   UNL     1      -1.599  13.074  21.594  0.00  0.00    +0.000 C 
ATOM      5  C   UNL     1      -0.597  11.972  21.323  0.00  0.00    +0.000 C 
ATOM      6  C   UNL     1      -0.523  11.709  19.833  0.00  0.00    +0.000 C 
ATOM      7  C   UNL     1      -1.884  11.670  19.186  0.00  0.00    +0.000 A 
ATOM      8  C   UNL     1      -1.966  11.113  17.893  0.00  0.00    +0.000 A 
ATOM      9  C   UNL     1      -3.186  11.030  17.212  0.00  0.00    +0.000 A 
ATOM     10  C   UNL     1      -4.324  11.548  17.830  0.00  0.00    +0.000 A 
ATOM     11  C   UNL     1      -4.248  12.114  19.108  0.00  0.00    +0.000 A 
ATOM     12  C   UNL     1      -3.041  12.163  19.824  0.00  0.00    +0.000 A 
ENDROOT
BRANCH   1  16
ATOM     13  O   UNL     1      -7.036  11.758  24.393  0.00  0.00    +0.000 OA
ATOM     14  C   UNL     1      -6.193  12.645  24.244  0.00  0.00    +0.000 C 
ATOM     15  C   UNL     1      -4.712  12.381  24.404  0.00  0.00    +0.000 C 
ATOM     16  C   UNL     1      -3.890  13.252  23.458  0.00  0.00    +0.000 C 
ATOM     17  C   UNL     1      -4.300  14.697  23.616  0.00  0.00    +0.000 A 
ATOM     18  C   UNL     1      -3.373  15.730  23.432  0.00  0.00    +0.000 A 
ATOM     19  C   UNL     1      -3.791  17.055  23.509  0.00  0.00    +0.000 A 
ATOM     20  C   UNL     1      -5.136  17.350  23.736  0.00  0.00    +0.000 A 
ATOM     21  C   UNL     1      -6.068  16.323  23.904  0.00  0.00    +0.000 A 
ATOM     22  C   UNL     1      -5.641  14.998  23.869  0.00  0.00    +0.000 A 
ATOM     23  N   UNL     1      -6.556  13.956  24.066  0.00  0.00    +0.000 N 
ATOM     24  H   UNL     1      -7.551  14.145  24.057  0.00  0.00    +0.000 HD
ENDBRANCH   1  16
BRANCH   9  25
ATOM     25  C   UNL     1      -3.284  10.394  15.848  0.00  0.00    +0.000 C 
ATOM     26  F   UNL     1      -4.509  10.539  15.268  0.00  0.00    +0.000 F 
ATOM     27  F   UNL     1      -2.390  10.915  14.963  0.00  0.00    +0.000 F 
ATOM     28  F   UNL     1      -3.044   9.054  15.878  0.00  0.00    +0.000 F 
ENDBRANCH   9  25
TORSDOF 2
ENDMDL
MODEL 8
REMARK VINA RESULT:      -7.2      6.975     11.920
REMARK  Name = 
REMARK  2 active torsions:
REMARK  status: ('A' for Active; 'I' for Inactive)
REMARK    1  A    between atoms: C_4  and  C_5
REMARK    2  A    between atoms: C_13  and  C_14
REMARK                            x       y       z     vdW  Elec       q    Type
REMARK                         _______ _______ _______ _____ _____    ______ ____
ROOT
ATOM      1  C   UNL     1      -4.068  12.989  20.068  0.00  0.00    +0.000 C 
ATOM      2  O   UNL     1      -3.162  13.404  20.797  0.00  0.00    +0.000 OA
ATOM      3  N   UNL     1      -3.886  11.975  19.110  0.00  0.00    +0.000 N 
ATOM      4  C   UNL     1      -4.939  11.530  18.186  0.00  0.00    +0.000 C 
ATOM      5  C   UNL     1      -4.459  11.554  16.750  0.00  0.00    +0.000 C 
ATOM      6  C   UNL     1      -3.306  10.585  16.584  0.00  0.00    +0.000 C 
ATOM      7  C   UNL     1      -2.314  10.671  17.716  0.00  0.00    +0.000 A 
ATOM      8  C   UNL     1      -1.053  10.071  17.514  0.00  0.00    +0.000 A 
ATOM      9  C   UNL     1      -0.065  10.102  18.504  0.00  0.00    +0.000 A 
ATOM     10  C   UNL     1      -0.368  10.711  19.722  0.00  0.00    +0.000 A 
ATOM     11  C   UNL     1      -1.622  11.297  19.935  0.00  0.00    +0.000 A 
ATOM     12  C   UNL     1      -2.608  11.316  18.935  0.00  0.00    +0.000 A 
ENDROOT
BRANCH   1  16
ATOM     13  O   UNL     1      -3.973  16.360  22.075  0.00  0.00    +0.000 OA
ATOM     14  C   UNL     1      -4.743  15.436  21.804  0.00  0.00    +0.000 C 
ATOM     15  C   UNL     1      -5.229  15.182  20.394  0.00  0.00    +0.000 C 
ATOM     16  C   UNL     1      -5.438  13.691  20.143  0.00  0.00    +0.000 C 
ATOM     17  C   UNL     1      -6.310  13.112  21.231  0.00  0.00    +0.000 A 
ATOM     18  C   UNL     1      -7.179  12.047  20.964  0.00  0.00    +0.000 A 
ATOM     19  C   UNL     1      -7.916  11.480  21.999  0.00  0.00    +0.000 A 
ATOM     20  C   UNL     1      -7.763  11.952  23.304  0.00  0.00    +0.000 A 
ATOM     21  C   UNL     1      -6.885  13.003  23.579  0.00  0.00    +0.000 A 
ATOM     22  C   UNL     1      -6.179  13.597  22.536  0.00  0.00    +0.000 A 
ATOM     23  N   UNL     1      -5.318  14.672  22.788  0.00  0.00    +0.000 N 
ATOM     24  H   UNL     1      -5.065  14.908  23.740  0.00  0.00    +0.000 HD
ENDBRANCH   1  16
BRANCH   9  25
ATOM     25  C   UNL     1       1.299   9.501  18.273  0.00  0.00    +0.000 C 
ATOM     26  F   UNL     1       2.220  10.401  17.824  0.00  0.00    +0.000 F 
ATOM     27  F   UNL     1       1.831   8.960  19.404  0.00  0.00    +0.000 F 
ATOM     28  F   UNL     1       1.280   8.499  17.352  0.00  0.00    +0.000 F 
ENDBRANCH   9  25
TORSDOF 2
ENDMDL
MODEL 9
REMARK VINA RESULT:      -7.1      9.181     12.977
REMARK  Name = 
REMARK  2 active torsions:
REMARK  status: ('A' for Active; 'I' for Inactive)
REMARK    1  A    between atoms: C_4  and  C_5
REMARK    2  A    between atoms: C_13  and  C_14
REMARK                            x       y       z     vdW  Elec       q    Type
REMARK                         _______ _______ _______ _____ _____    ______ ____
ROOT
ATOM      1  C   UNL     1      -4.680  12.838  21.808  0.00  0.00    +0.000 C 
ATOM      2  O   UNL     1      -5.699  12.224  21.475  0.00  0.00    +0.000 OA
ATOM      3  N   UNL     1      -3.537  12.935  20.994  0.00  0.00    +0.000 N 
ATOM      4  C   UNL     1      -2.292  13.596  21.414  0.00  0.00    +0.000 C 
ATOM      5  C   UNL     1      -1.094  12.691  21.222  0.00  0.00    +0.000 C 
ATOM      6  C   UNL     1      -0.932  12.368  19.751  0.00  0.00    +0.000 C 
ATOM      7  C   UNL     1      -2.244  12.039  19.085  0.00  0.00    +0.000 A 
ATOM      8  C   UNL     1      -2.186  11.409  17.825  0.00  0.00    +0.000 A 
ATOM      9  C   UNL     1      -3.349  11.061  17.130  0.00  0.00    +0.000 A 
ATOM     10  C   UNL     1      -4.581  11.387  17.698  0.00  0.00    +0.000 A 
ATOM     11  C   UNL     1      -4.647  12.024  18.944  0.00  0.00    +0.000 A 
ATOM     12  C   UNL     1      -3.489  12.338  19.675  0.00  0.00    +0.000 A 
ENDROOT
BRANCH   1  16
ATOM     13  O   UNL     1      -7.491  11.467  24.179  0.00  0.00    +0.000 OA
ATOM     14  C   UNL     1      -6.811  12.479  23.996  0.00  0.00    +0.000 C 
ATOM     15  C   UNL     1      -5.312  12.488  24.204  0.00  0.00    +0.000 C 
ATOM     16  C   UNL     1      -4.625  13.438  23.226  0.00  0.00    +0.000 C 
ATOM     17  C   UNL     1      -5.284  14.794  23.291  0.00  0.00    +0.000 A 
ATOM     18  C   UNL     1      -4.546  15.962  23.067  0.00  0.00    +0.000 A 
ATOM     19  C   UNL     1      -5.190  17.196  23.057  0.00  0.00    +0.000 A 
ATOM     20  C   UNL     1      -6.573  17.262  23.238  0.00  0.00    +0.000 A 
ATOM     21  C   UNL     1      -7.317  16.097  23.445  0.00  0.00    +0.000 A 
ATOM     22  C   UNL     1      -6.665  14.868  23.496  0.00  0.00    +0.000 A 
ATOM     23  N   UNL     1      -7.391  13.694  23.734  0.00  0.00    +0.000 N 
ATOM     24  H   UNL     1      -8.402  13.705  23.692  0.00  0.00    +0.000 HD
ENDBRANCH   1  16
BRANCH   9  25
ATOM     25  C   UNL     1      -3.290  10.347  15.803  0.00  0.00    +0.000 C 
ATOM     26  F   UNL     1      -2.342  10.845  14.960  0.00  0.00    +0.000 F 
ATOM     27  F   UNL     1      -3.010   9.021  15.934  0.00  0.00    +0.000 F 
ATOM     28  F   UNL     1      -4.466  10.415  15.120  0.00  0.00    +0.000 F 
ENDBRANCH   9  25
TORSDOF 2
ENDMDL
