MODEL 1
REMARK VINA RESULT:      -9.3      0.000      0.000
REMARK  Name = 
REMARK  4 active torsions:
REMARK  status: ('A' for Active; 'I' for Inactive)
REMARK    1  A    between atoms: C_9  and  N_10
REMARK    2  A    between atoms: N_10  and  C_11
REMARK    3  A    between atoms: C_11  and  C_12
REMARK    4  A    between atoms: C_14  and  C_15
REMARK                            x       y       z     vdW  Elec       q    Type
REMARK                         _______ _______ _______ _____ _____    ______ ____
ROOT
ATOM      1  C   UNL     1       7.633   5.148  18.719  0.00  0.00    +0.000 C 
ENDROOT
BRANCH   1   2
ATOM      2  C   UNL     1       7.796   6.567  18.304  0.00  0.00    +0.000 A 
ATOM      3  N   UNL     1       8.434   7.546  18.899  0.00  0.00    +0.000 NA
ATOM      4  C   UNL     1       8.190   8.611  18.061  0.00  0.00    +0.000 A 
ATOM      5  N   UNL     1       7.468   8.295  16.973  0.00  0.00    +0.000 NA
ATOM      6  O   UNL     1       7.208   6.934  17.131  0.00  0.00    +0.000 OA
BRANCH   4   7
ATOM      7  C   UNL     1       8.655   9.946  18.382  0.00  0.00    +0.000 A 
ATOM      8  C   UNL     1       8.299  11.030  17.539  0.00  0.00    +0.000 A 
ATOM      9  C   UNL     1       8.749  12.325  17.799  0.00  0.00    +0.000 A 
ATOM     10  C   UNL     1       9.560  12.503  18.896  0.00  0.00    +0.000 A 
ATOM     11  C   UNL     1       9.916  11.460  19.717  0.00  0.00    +0.000 A 
ATOM     12  C   UNL     1       9.477  10.174  19.494  0.00  0.00    +0.000 A 
ATOM     13  O   UNL     1      10.734  11.851  20.731  0.00  0.00    +0.000 OA
ATOM     14  C   UNL     1      10.889  13.252  20.425  0.00  0.00    +0.000 C 
ATOM     15  O   UNL     1      10.106  13.683  19.292  0.00  0.00    +0.000 OA
ENDBRANCH   4   7
ENDBRANCH   1   2
BRANCH   1  16
ATOM     16  N   UNL     1       6.756   4.371  17.847  0.00  0.00    +0.000 N 
ATOM     17  H   UNL     1       6.998   4.410  16.862  0.00  0.00    +0.000 HD
BRANCH  16  26
ATOM     18  O   UNL     1       3.819   2.195  21.474  0.00  0.00    +0.000 OA
ATOM     19  C   UNL     1       3.050   2.684  20.656  0.00  0.00    +0.000 C 
ATOM     20  N   UNL     1       1.688   2.641  20.841  0.00  0.00    +0.000 N 
ATOM     21  C   UNL     1       0.793   3.464  20.060  0.00  0.00    +0.000 C 
ATOM     22  C   UNL     1       1.161   3.423  18.580  0.00  0.00    +0.000 C 
ATOM     23  C   UNL     1       2.626   3.733  18.415  0.00  0.00    +0.000 A 
ATOM     24  C   UNL     1       3.114   4.326  17.251  0.00  0.00    +0.000 A 
ATOM     25  C   UNL     1       4.486   4.558  17.109  0.00  0.00    +0.000 A 
ATOM     26  C   UNL     1       5.403   4.208  18.112  0.00  0.00    +0.000 A 
ATOM     27  C   UNL     1       4.908   3.582  19.258  0.00  0.00    +0.000 A 
ATOM     28  C   UNL     1       3.535   3.354  19.416  0.00  0.00    +0.000 A 
ATOM     29  H   UNL     1       1.396   2.276  21.739  0.00  0.00    +0.000 HD
ENDBRANCH  16  26
ENDBRANCH   1  16
TORSDOF 4
ENDMDL
MODEL 2
REMARK VINA RESULT:      -9.2      1.399      1.687
REMARK  Name = 
REMARK  4 active torsions:
REMARK  status: ('A' for Active; 'I' for Inactive)
REMARK    1  A    between atoms: C_9  and  N_10
REMARK    2  A    between atoms: N_10  and  C_11
REMARK    3  A    between atoms: C_11  and  C_12
REMARK    4  A    between atoms: C_14  and  C_15
REMARK                            x       y       z     vdW  Elec       q    Type
REMARK                         _______ _______ _______ _____ _____    ______ ____
ROOT
ATOM      1  C   UNL     1       6.538   5.845  16.338  0.00  0.00    +0.000 C 
ENDROOT
BRANCH   1   2
ATOM      2  C   UNL     1       7.247   6.802  17.230  0.00  0.00    +0.000 A 
ATOM      3  N   UNL     1       7.385   8.101  17.121  0.00  0.00    +0.000 NA
ATOM      4  C   UNL     1       8.167   8.408  18.212  0.00  0.00    +0.000 A 
ATOM      5  N   UNL     1       8.465   7.349  18.984  0.00  0.00    +0.000 NA
ATOM      6  O   UNL     1       7.849   6.281  18.335  0.00  0.00    +0.000 OA
BRANCH   4   7
ATOM      7  C   UNL     1       8.640   9.758  18.447  0.00  0.00    +0.000 A 
ATOM      8  C   UNL     1       8.248  10.798  17.564  0.00  0.00    +0.000 A 
ATOM      9  C   UNL     1       8.704  12.105  17.741  0.00  0.00    +0.000 A 
ATOM     10  C   UNL     1       9.556  12.339  18.795  0.00  0.00    +0.000 A 
ATOM     11  C   UNL     1       9.948  11.339  19.653  0.00  0.00    +0.000 A 
ATOM     12  C   UNL     1       9.504  10.043  19.513  0.00  0.00    +0.000 A 
ATOM     13  O   UNL     1      10.803  11.782  20.613  0.00  0.00    +0.000 OA
ATOM     14  C   UNL     1      10.942  13.166  20.231  0.00  0.00    +0.000 C 
ATOM     15  O   UNL     1      10.114  13.538  19.109  0.00  0.00    +0.000 OA
ENDBRANCH   4   7
ENDBRANCH   1   2
BRANCH   1  16
ATOM     16  N   UNL     1       5.093   6.051  16.275  0.00  0.00    +0.000 N 
ATOM     17  H   UNL     1       4.808   6.895  15.787  0.00  0.00    +0.000 HD
BRANCH  16  26
ATOM     18  O   UNL     1       3.234   1.636  18.163  0.00  0.00    +0.000 OA
ATOM     19  C   UNL     1       2.755   2.532  18.847  0.00  0.00    +0.000 C 
ATOM     20  N   UNL     1       1.947   2.254  19.925  0.00  0.00    +0.000 N 
ATOM     21  C   UNL     1       1.627   3.261  20.910  0.00  0.00    +0.000 C 
ATOM     22  C   UNL     1       1.243   4.578  20.243  0.00  0.00    +0.000 C 
ATOM     23  C   UNL     1       2.303   4.968  19.246  0.00  0.00    +0.000 A 
ATOM     24  C   UNL     1       2.544   6.306  18.932  0.00  0.00    +0.000 A 
ATOM     25  C   UNL     1       3.503   6.633  17.968  0.00  0.00    +0.000 A 
ATOM     26  C   UNL     1       4.242   5.648  17.294  0.00  0.00    +0.000 A 
ATOM     27  C   UNL     1       3.966   4.311  17.591  0.00  0.00    +0.000 A 
ATOM     28  C   UNL     1       3.016   3.971  18.562  0.00  0.00    +0.000 A 
ATOM     29  H   UNL     1       1.875   1.270  20.156  0.00  0.00    +0.000 HD
ENDBRANCH  16  26
ENDBRANCH   1  16
TORSDOF 4
ENDMDL
MODEL 3
REMARK VINA RESULT:      -9.2      0.894      1.148
REMARK  Name = 
REMARK  4 active torsions:
REMARK  status: ('A' for Active; 'I' for Inactive)
REMARK    1  A    between atoms: C_9  and  N_10
REMARK    2  A    between atoms: N_10  and  C_11
REMARK    3  A    between atoms: C_11  and  C_12
REMARK    4  A    between atoms: C_14  and  C_15
REMARK                            x       y       z     vdW  Elec       q    Type
REMARK                         _______ _______ _______ _____ _____    ______ ____
ROOT
ATOM      1  C   UNL     1       6.336   5.992  16.380  0.00  0.00    +0.000 C 
ENDROOT
BRANCH   1   2
ATOM      2  C   UNL     1       7.126   6.916  17.238  0.00  0.00    +0.000 A 
ATOM      3  N   UNL     1       7.259   8.218  17.164  0.00  0.00    +0.000 NA
ATOM      4  C   UNL     1       8.137   8.485  18.189  0.00  0.00    +0.000 A 
ATOM      5  N   UNL     1       8.500   7.399  18.893  0.00  0.00    +0.000 NA
ATOM      6  O   UNL     1       7.824   6.355  18.264  0.00  0.00    +0.000 OA
BRANCH   4   7
ATOM      7  C   UNL     1       8.634   9.826  18.429  0.00  0.00    +0.000 A 
ATOM      8  C   UNL     1       8.263  10.875  17.549  0.00  0.00    +0.000 A 
ATOM      9  C   UNL     1       8.742  12.173  17.730  0.00  0.00    +0.000 A 
ATOM     10  C   UNL     1       9.596  12.389  18.786  0.00  0.00    +0.000 A 
ATOM     11  C   UNL     1       9.968  11.380  19.642  0.00  0.00    +0.000 A 
ATOM     12  C   UNL     1       9.500  10.092  19.497  0.00  0.00    +0.000 A 
ATOM     13  O   UNL     1      10.829  11.804  20.605  0.00  0.00    +0.000 OA
ATOM     14  C   UNL     1      10.993  13.187  20.227  0.00  0.00    +0.000 C 
ATOM     15  O   UNL     1      10.175  13.576  19.105  0.00  0.00    +0.000 OA
ENDBRANCH   4   7
ENDBRANCH   1   2
BRANCH   1  16
ATOM     16  N   UNL     1       6.056   4.700  17.002  0.00  0.00    +0.000 N 
ATOM     17  H   UNL     1       6.336   3.896  16.449  0.00  0.00    +0.000 HD
BRANCH  16  26
ATOM     18  O   UNL     1       4.839   1.861  21.123  0.00  0.00    +0.000 OA
ATOM     19  C   UNL     1       3.837   2.506  20.840  0.00  0.00    +0.000 C 
ATOM     20  N   UNL     1       2.700   2.434  21.612  0.00  0.00    +0.000 N 
ATOM     21  C   UNL     1       1.633   3.399  21.477  0.00  0.00    +0.000 C 
ATOM     22  C   UNL     1       1.303   3.650  20.010  0.00  0.00    +0.000 C 
ATOM     23  C   UNL     1       2.565   3.980  19.256  0.00  0.00    +0.000 A 
ATOM     24  C   UNL     1       2.540   4.791  18.121  0.00  0.00    +0.000 A 
ATOM     25  C   UNL     1       3.722   5.040  17.417  0.00  0.00    +0.000 A 
ATOM     26  C   UNL     1       4.952   4.494  17.817  0.00  0.00    +0.000 A 
ATOM     27  C   UNL     1       4.959   3.655  18.934  0.00  0.00    +0.000 A 
ATOM     28  C   UNL     1       3.784   3.407  19.654  0.00  0.00    +0.000 A 
ATOM     29  H   UNL     1       2.803   1.900  22.466  0.00  0.00    +0.000 HD
ENDBRANCH  16  26
ENDBRANCH   1  16
TORSDOF 4
ENDMDL
MODEL 4
REMARK VINA RESULT:      -9.1      1.527      2.187
REMARK  Name = 
REMARK  4 active torsions:
REMARK  status: ('A' for Active; 'I' for Inactive)
REMARK    1  A    between atoms: C_9  and  N_10
REMARK    2  A    between atoms: N_10  and  C_11
REMARK    3  A    between atoms: C_11  and  C_12
REMARK    4  A    between atoms: C_14  and  C_15
REMARK                            x       y       z     vdW  Elec       q    Type
REMARK                         _______ _______ _______ _____ _____    ______ ____
ROOT
ATOM      1  C   UNL     1       6.562   5.653  16.202  0.00  0.00    +0.000 C 
ENDROOT
BRANCH   1   2
ATOM      2  C   UNL     1       7.239   6.617  17.112  0.00  0.00    +0.000 A 
ATOM      3  N   UNL     1       7.365   7.918  17.010  0.00  0.00    +0.000 NA
ATOM      4  C   UNL     1       8.117   8.231  18.119  0.00  0.00    +0.000 A 
ATOM      5  N   UNL     1       8.408   7.174  18.897  0.00  0.00    +0.000 NA
ATOM      6  O   UNL     1       7.820   6.100  18.230  0.00  0.00    +0.000 OA
BRANCH   4   7
ATOM      7  C   UNL     1       8.568   9.586  18.368  0.00  0.00    +0.000 A 
ATOM      8  C   UNL     1       9.437   9.842  19.459  0.00  0.00    +0.000 A 
ATOM      9  C   UNL     1       9.872  11.137  19.748  0.00  0.00    +0.000 A 
ATOM     10  C   UNL     1       9.413  12.151  18.940  0.00  0.00    +0.000 A 
ATOM     11  C   UNL     1       8.567  11.916  17.882  0.00  0.00    +0.000 A 
ATOM     12  C   UNL     1       8.132  10.648  17.565  0.00  0.00    +0.000 A 
ATOM     13  O   UNL     1       8.224  13.056  17.226  0.00  0.00    +0.000 OA
ATOM     14  C   UNL     1       8.915  14.042  18.021  0.00  0.00    +0.000 C 
ATOM     15  O   UNL     1       9.712  13.470  19.079  0.00  0.00    +0.000 OA
ENDBRANCH   4   7
ENDBRANCH   1   2
BRANCH   1  16
ATOM     16  N   UNL     1       5.116   5.836  16.113  0.00  0.00    +0.000 N 
ATOM     17  H   UNL     1       4.825   6.649  15.579  0.00  0.00    +0.000 HD
BRANCH  16  26
ATOM     18  O   UNL     1       3.257   1.502  18.182  0.00  0.00    +0.000 OA
ATOM     19  C   UNL     1       2.771   2.426  18.823  0.00  0.00    +0.000 C 
ATOM     20  N   UNL     1       1.956   2.193  19.906  0.00  0.00    +0.000 N 
ATOM     21  C   UNL     1       1.627   3.242  20.844  0.00  0.00    +0.000 C 
ATOM     22  C   UNL     1       1.243   4.526  20.116  0.00  0.00    +0.000 C 
ATOM     23  C   UNL     1       2.309   4.876  19.110  0.00  0.00    +0.000 A 
ATOM     24  C   UNL     1       2.548   6.199  18.739  0.00  0.00    +0.000 A 
ATOM     25  C   UNL     1       3.513   6.487  17.768  0.00  0.00    +0.000 A 
ATOM     26  C   UNL     1       4.259   5.475  17.144  0.00  0.00    +0.000 A 
ATOM     27  C   UNL     1       3.985   4.152  17.497  0.00  0.00    +0.000 A 
ATOM     28  C   UNL     1       3.030   3.852  18.476  0.00  0.00    +0.000 A 
ATOM     29  H   UNL     1       1.887   1.220  20.180  0.00  0.00    +0.000 HD
ENDBRANCH  16  26
ENDBRANCH   1  16
TORSDOF 4
ENDMDL
MODEL 5
REMARK VINA RESULT:      -9.0      1.055      1.767
REMARK  Name = 
REMARK  4 active torsions:
REMARK  status: ('A' for Active; 'I' for Inactive)
REMARK    1  A    between atoms: C_9  and  N_10
REMARK    2  A    between atoms: N_10  and  C_11
REMARK    3  A    between atoms: C_11  and  C_12
REMARK    4  A    between atoms: C_14  and  C_15
REMARK                            x       y       z     vdW  Elec       q    Type
REMARK                         _______ _______ _______ _____ _____    ______ ____
ROOT
ATOM      1  C   UNL     1       6.433   5.949  16.362  0.00  0.00    +0.000 C 
ENDROOT
BRANCH   1   2
ATOM      2  C   UNL     1       7.194   6.882  17.237  0.00  0.00    +0.000 A 
ATOM      3  N   UNL     1       7.335   8.182  17.152  0.00  0.00    +0.000 NA
ATOM      4  C   UNL     1       8.175   8.459  18.207  0.00  0.00    +0.000 A 
ATOM      5  N   UNL     1       8.506   7.381  18.938  0.00  0.00    +0.000 NA
ATOM      6  O   UNL     1       7.850   6.331  18.296  0.00  0.00    +0.000 OA
BRANCH   4   7
ATOM      7  C   UNL     1       8.669   9.801  18.448  0.00  0.00    +0.000 A 
ATOM      8  C   UNL     1       9.566  10.031  19.522  0.00  0.00    +0.000 A 
ATOM      9  C   UNL     1      10.042  11.313  19.803  0.00  0.00    +0.000 A 
ATOM     10  C   UNL     1       9.596  12.340  19.005  0.00  0.00    +0.000 A 
ATOM     11  C   UNL     1       8.722  12.131  17.965  0.00  0.00    +0.000 A 
ATOM     12  C   UNL     1       8.246  10.876  17.655  0.00  0.00    +0.000 A 
ATOM     13  O   UNL     1       8.397  13.281  17.317  0.00  0.00    +0.000 OA
ATOM     14  C   UNL     1       9.131  14.246  18.099  0.00  0.00    +0.000 C 
ATOM     15  O   UNL     1       9.933  13.650  19.140  0.00  0.00    +0.000 OA
ENDBRANCH   4   7
ENDBRANCH   1   2
BRANCH   1  16
ATOM     16  N   UNL     1       6.140   4.660  16.982  0.00  0.00    +0.000 N 
ATOM     17  H   UNL     1       6.460   3.854  16.453  0.00  0.00    +0.000 HD
BRANCH  16  26
ATOM     18  O   UNL     1       4.784   1.920  21.126  0.00  0.00    +0.000 OA
ATOM     19  C   UNL     1       3.779   2.521  20.767  0.00  0.00    +0.000 C 
ATOM     20  N   UNL     1       2.605   2.438  21.477  0.00  0.00    +0.000 N 
ATOM     21  C   UNL     1       1.517   3.362  21.251  0.00  0.00    +0.000 C 
ATOM     22  C   UNL     1       1.261   3.554  19.759  0.00  0.00    +0.000 C 
ATOM     23  C   UNL     1       2.553   3.900  19.065  0.00  0.00    +0.000 A 
ATOM     24  C   UNL     1       2.567   4.671  17.903  0.00  0.00    +0.000 A 
ATOM     25  C   UNL     1       3.778   4.936  17.256  0.00  0.00    +0.000 A 
ATOM     26  C   UNL     1       4.999   4.444  17.742  0.00  0.00    +0.000 A 
ATOM     27  C   UNL     1       4.970   3.643  18.886  0.00  0.00    +0.000 A 
ATOM     28  C   UNL     1       3.765   3.381  19.549  0.00  0.00    +0.000 A 
ATOM     29  H   UNL     1       2.676   1.935  22.353  0.00  0.00    +0.000 HD
ENDBRANCH  16  26
ENDBRANCH   1  16
TORSDOF 4
ENDMDL
MODEL 6
REMARK VINA RESULT:      -8.9      0.914      1.433
REMARK  Name = 
REMARK  4 active torsions:
REMARK  status: ('A' for Active; 'I' for Inactive)
REMARK    1  A    between atoms: C_9  and  N_10
REMARK    2  A    between atoms: N_10  and  C_11
REMARK    3  A    between atoms: C_11  and  C_12
REMARK    4  A    between atoms: C_14  and  C_15
REMARK                            x       y       z     vdW  Elec       q    Type
REMARK                         _______ _______ _______ _____ _____    ______ ____
ROOT
ATOM      1  C   UNL     1       7.558   5.557  18.255  0.00  0.00    +0.000 C 
ENDROOT
BRANCH   1   2
ATOM      2  C   UNL     1       7.795   7.018  18.102  0.00  0.00    +0.000 A 
ATOM      3  N   UNL     1       8.601   7.810  18.767  0.00  0.00    +0.000 NA
ATOM      4  C   UNL     1       8.344   9.037  18.200  0.00  0.00    +0.000 A 
ATOM      5  N   UNL     1       7.448   8.999  17.199  0.00  0.00    +0.000 NA
ATOM      6  O   UNL     1       7.085   7.655  17.129  0.00  0.00    +0.000 OA
BRANCH   4   7
ATOM      7  C   UNL     1       8.974  10.245  18.696  0.00  0.00    +0.000 A 
ATOM      8  C   UNL     1       9.374  10.315  20.055  0.00  0.00    +0.000 A 
ATOM      9  C   UNL     1       9.959  11.470  20.577  0.00  0.00    +0.000 A 
ATOM     10  C   UNL     1      10.120  12.537  19.724  0.00  0.00    +0.000 A 
ATOM     11  C   UNL     1       9.731  12.483  18.406  0.00  0.00    +0.000 A 
ATOM     12  C   UNL     1       9.164  11.353  17.859  0.00  0.00    +0.000 A 
ATOM     13  O   UNL     1       9.965  13.648  17.746  0.00  0.00    +0.000 OA
ATOM     14  C   UNL     1      10.502  14.458  18.813  0.00  0.00    +0.000 C 
ATOM     15  O   UNL     1      10.649  13.743  20.057  0.00  0.00    +0.000 OA
ENDBRANCH   4   7
ENDBRANCH   1   2
BRANCH   1  16
ATOM     16  N   UNL     1       6.634   5.215  19.334  0.00  0.00    +0.000 N 
ATOM     17  H   UNL     1       7.078   4.851  20.171  0.00  0.00    +0.000 HD
BRANCH  16  26
ATOM     18  O   UNL     1       3.041   2.513  21.844  0.00  0.00    +0.000 OA
ATOM     19  C   UNL     1       2.575   2.763  20.739  0.00  0.00    +0.000 C 
ATOM     20  N   UNL     1       1.295   2.388  20.402  0.00  0.00    +0.000 N 
ATOM     21  C   UNL     1       0.630   2.931  19.240  0.00  0.00    +0.000 C 
ATOM     22  C   UNL     1       1.555   2.927  18.027  0.00  0.00    +0.000 C 
ATOM     23  C   UNL     1       2.862   3.587  18.386  0.00  0.00    +0.000 A 
ATOM     24  C   UNL     1       3.632   4.239  17.423  0.00  0.00    +0.000 A 
ATOM     25  C   UNL     1       4.862   4.801  17.778  0.00  0.00    +0.000 A 
ATOM     26  C   UNL     1       5.357   4.730  19.089  0.00  0.00    +0.000 A 
ATOM     27  C   UNL     1       4.594   4.043  20.037  0.00  0.00    +0.000 A 
ATOM     28  C   UNL     1       3.356   3.486  19.696  0.00  0.00    +0.000 A 
ATOM     29  H   UNL     1       0.756   1.996  21.165  0.00  0.00    +0.000 HD
ENDBRANCH  16  26
ENDBRANCH   1  16
TORSDOF 4
ENDMDL
MODEL 7
REMARK VINA RESULT:      -8.9      1.701      2.203
REMARK  Name = 
REMARK  4 active torsions:
REMARK  status: ('A' for Active; 'I' for Inactive)
REMARK    1  A    between atoms: C_9  and  N_10
REMARK    2  A    between atoms: N_10  and  C_11
REMARK    3  A    between atoms: C_11  and  C_12
REMARK    4  A    between atoms: C_14  and  C_15
REMARK                            x       y       z     vdW  Elec       q    Type
REMARK                         _______ _______ _______ _____ _____    ______ ____
ROOT
ATOM      1  C   UNL     1       6.173   6.782  16.643  0.00  0.00    +0.000 C 
ENDROOT
BRANCH   1   2
ATOM      2  C   UNL     1       7.146   7.527  17.486  0.00  0.00    +0.000 A 
ATOM      3  N   UNL     1       7.453   8.801  17.484  0.00  0.00    +0.000 NA
ATOM      4  C   UNL     1       8.435   8.872  18.446  0.00  0.00    +0.000 A 
ATOM      5  N   UNL     1       8.695   7.698  19.047  0.00  0.00    +0.000 NA
ATOM      6  O   UNL     1       7.834   6.803  18.412  0.00  0.00    +0.000 OA
BRANCH   4   7
ATOM      7  C   UNL     1       9.130  10.113  18.726  0.00  0.00    +0.000 A 
ATOM      8  C   UNL     1       9.404  10.470  20.071  0.00  0.00    +0.000 A 
ATOM      9  C   UNL     1      10.048  11.669  20.383  0.00  0.00    +0.000 A 
ATOM     10  C   UNL     1      10.391  12.491  19.336  0.00  0.00    +0.000 A 
ATOM     11  C   UNL     1      10.126  12.159  18.029  0.00  0.00    +0.000 A 
ATOM     12  C   UNL     1       9.506  10.977  17.689  0.00  0.00    +0.000 A 
ATOM     13  O   UNL     1      10.533  13.117  17.155  0.00  0.00    +0.000 OA
ATOM     14  C   UNL     1      11.043  14.112  18.066  0.00  0.00    +0.000 C 
ATOM     15  O   UNL     1      11.002  13.700  19.448  0.00  0.00    +0.000 OA
ENDBRANCH   4   7
ENDBRANCH   1   2
BRANCH   1  16
ATOM     16  N   UNL     1       4.787   6.905  17.087  0.00  0.00    +0.000 N 
ATOM     17  H   UNL     1       4.581   7.757  17.600  0.00  0.00    +0.000 HD
BRANCH  16  26
ATOM     18  O   UNL     1       1.387   5.671  20.753  0.00  0.00    +0.000 OA
ATOM     19  C   UNL     1       1.508   4.678  20.047  0.00  0.00    +0.000 C 
ATOM     20  N   UNL     1       0.760   3.546  20.273  0.00  0.00    +0.000 N 
ATOM     21  C   UNL     1       0.666   2.493  19.287  0.00  0.00    +0.000 C 
ATOM     22  C   UNL     1       2.038   2.157  18.711  0.00  0.00    +0.000 C 
ATOM     23  C   UNL     1       2.713   3.419  18.240  0.00  0.00    +0.000 A 
ATOM     24  C   UNL     1       3.639   3.399  17.198  0.00  0.00    +0.000 A 
ATOM     25  C   UNL     1       4.282   4.580  16.815  0.00  0.00    +0.000 A 
ATOM     26  C   UNL     1       4.026   5.803  17.453  0.00  0.00    +0.000 A 
ATOM     27  C   UNL     1       3.123   5.805  18.519  0.00  0.00    +0.000 A 
ATOM     28  C   UNL     1       2.464   4.631  18.905  0.00  0.00    +0.000 A 
ATOM     29  H   UNL     1       0.047   3.646  20.985  0.00  0.00    +0.000 HD
ENDBRANCH  16  26
ENDBRANCH   1  16
TORSDOF 4
ENDMDL
MODEL 8
REMARK VINA RESULT:      -8.7      2.262     10.215
REMARK  Name = 
REMARK  4 active torsions:
REMARK  status: ('A' for Active; 'I' for Inactive)
REMARK    1  A    between atoms: C_9  and  N_10
REMARK    2  A    between atoms: N_10  and  C_11
REMARK    3  A    between atoms: C_11  and  C_12
REMARK    4  A    between atoms: C_14  and  C_15
REMARK                            x       y       z     vdW  Elec       q    Type
REMARK                         _______ _______ _______ _____ _____    ______ ____
ROOT
ATOM      1  C   UNL     1       8.262   8.786  17.964  0.00  0.00    +0.000 C 
ENDROOT
BRANCH   1   2
ATOM      2  C   UNL     1       7.597   7.468  18.153  0.00  0.00    +0.000 A 
ATOM      3  N   UNL     1       6.428   7.052  17.728  0.00  0.00    +0.000 NA
ATOM      4  C   UNL     1       6.359   5.781  18.251  0.00  0.00    +0.000 A 
ATOM      5  N   UNL     1       7.455   5.412  18.936  0.00  0.00    +0.000 NA
ATOM      6  O   UNL     1       8.282   6.532  18.867  0.00  0.00    +0.000 OA
BRANCH   4   7
ATOM      7  C   UNL     1       5.173   4.962  18.090  0.00  0.00    +0.000 A 
ATOM      8  C   UNL     1       4.973   4.256  16.876  0.00  0.00    +0.000 A 
ATOM      9  C   UNL     1       3.832   3.479  16.672  0.00  0.00    +0.000 A 
ATOM     10  C   UNL     1       2.907   3.437  17.688  0.00  0.00    +0.000 A 
ATOM     11  C   UNL     1       3.087   4.121  18.867  0.00  0.00    +0.000 A 
ATOM     12  C   UNL     1       4.209   4.884  19.103  0.00  0.00    +0.000 A 
ATOM     13  O   UNL     1       2.048   3.957  19.729  0.00  0.00    +0.000 OA
ATOM     14  C   UNL     1       1.172   3.128  18.937  0.00  0.00    +0.000 C 
ATOM     15  O   UNL     1       1.733   2.753  17.662  0.00  0.00    +0.000 OA
ENDBRANCH   4   7
ENDBRANCH   1   2
BRANCH   1  16
ATOM     16  N   UNL     1       9.115   9.185  19.081  0.00  0.00    +0.000 N 
ATOM     17  H   UNL     1       9.017   8.612  19.914  0.00  0.00    +0.000 HD
BRANCH  16  26
ATOM     18  O   UNL     1      11.229  13.100  16.490  0.00  0.00    +0.000 OA
ATOM     19  C   UNL     1      10.981  13.524  17.612  0.00  0.00    +0.000 C 
ATOM     20  N   UNL     1      11.213  14.838  17.947  0.00  0.00    +0.000 N 
ATOM     21  C   UNL     1      10.652  15.423  19.144  0.00  0.00    +0.000 C 
ATOM     22  C   UNL     1      10.830  14.496  20.342  0.00  0.00    +0.000 C 
ATOM     23  C   UNL     1      10.318  13.121  19.999  0.00  0.00    +0.000 A 
ATOM     24  C   UNL     1       9.813  12.270  20.982  0.00  0.00    +0.000 A 
ATOM     25  C   UNL     1       9.389  10.983  20.638  0.00  0.00    +0.000 A 
ATOM     26  C   UNL     1       9.453  10.510  19.319  0.00  0.00    +0.000 A 
ATOM     27  C   UNL     1       9.993  11.358  18.349  0.00  0.00    +0.000 A 
ATOM     28  C   UNL     1      10.411  12.652  18.678  0.00  0.00    +0.000 A 
ATOM     29  H   UNL     1      11.497  15.426  17.174  0.00  0.00    +0.000 HD
ENDBRANCH  16  26
ENDBRANCH   1  16
TORSDOF 4
ENDMDL
MODEL 9
REMARK VINA RESULT:      -8.7      2.327     10.261
REMARK  Name = 
REMARK  4 active torsions:
REMARK  status: ('A' for Active; 'I' for Inactive)
REMARK    1  A    between atoms: C_9  and  N_10
REMARK    2  A    between atoms: N_10  and  C_11
REMARK    3  A    between atoms: C_11  and  C_12
REMARK    4  A    between atoms: C_14  and  C_15
REMARK                            x       y       z     vdW  Elec       q    Type
REMARK                         _______ _______ _______ _____ _____    ______ ____
ROOT
ATOM      1  C   UNL     1       8.208   8.906  17.757  0.00  0.00    +0.000 C 
ENDROOT
BRANCH   1   2
ATOM      2  C   UNL     1       7.461   7.625  17.874  0.00  0.00    +0.000 A 
ATOM      3  N   UNL     1       6.193   7.372  17.655  0.00  0.00    +0.000 NA
ATOM      4  C   UNL     1       6.099   6.036  17.970  0.00  0.00    +0.000 A 
ATOM      5  N   UNL     1       7.267   5.476  18.328  0.00  0.00    +0.000 NA
ATOM      6  O   UNL     1       8.175   6.531  18.260  0.00  0.00    +0.000 OA
BRANCH   4   7
ATOM      7  C   UNL     1       4.826   5.342  17.943  0.00  0.00    +0.000 A 
ATOM      8  C   UNL     1       3.626   6.089  17.828  0.00  0.00    +0.000 A 
ATOM      9  C   UNL     1       2.380   5.460  17.827  0.00  0.00    +0.000 A 
ATOM     10  C   UNL     1       2.365   4.091  17.955  0.00  0.00    +0.000 A 
ATOM     11  C   UNL     1       3.520   3.356  18.073  0.00  0.00    +0.000 A 
ATOM     12  C   UNL     1       4.764   3.947  18.063  0.00  0.00    +0.000 A 
ATOM     13  O   UNL     1       3.279   2.024  18.204  0.00  0.00    +0.000 OA
ATOM     14  C   UNL     1       1.837   2.011  18.202  0.00  0.00    +0.000 C 
ATOM     15  O   UNL     1       1.251   3.313  17.993  0.00  0.00    +0.000 OA
ENDBRANCH   4   7
ENDBRANCH   1   2
BRANCH   1  16
ATOM     16  N   UNL     1       8.959   9.266  18.958  0.00  0.00    +0.000 N 
ATOM     17  H   UNL     1       8.706   8.739  19.788  0.00  0.00    +0.000 HD
BRANCH  16  26
ATOM     18  O   UNL     1      11.211  13.075  16.325  0.00  0.00    +0.000 OA
ATOM     19  C   UNL     1      11.043  13.496  17.463  0.00  0.00    +0.000 C 
ATOM     20  N   UNL     1      11.378  14.785  17.805  0.00  0.00    +0.000 N 
ATOM     21  C   UNL     1      10.914  15.386  19.034  0.00  0.00    +0.000 C 
ATOM     22  C   UNL     1      11.083  14.429  20.210  0.00  0.00    +0.000 C 
ATOM     23  C   UNL     1      10.464  13.098  19.872  0.00  0.00    +0.000 A 
ATOM     24  C   UNL     1       9.949  12.266  20.866  0.00  0.00    +0.000 A 
ATOM     25  C   UNL     1       9.423  11.016  20.525  0.00  0.00    +0.000 A 
ATOM     26  C   UNL     1       9.396  10.562  19.197  0.00  0.00    +0.000 A 
ATOM     27  C   UNL     1       9.946  11.388  18.215  0.00  0.00    +0.000 A 
ATOM     28  C   UNL     1      10.466  12.646  18.543  0.00  0.00    +0.000 A 
ATOM     29  H   UNL     1      11.666  15.367  17.027  0.00  0.00    +0.000 HD
ENDBRANCH  16  26
ENDBRANCH   1  16
TORSDOF 4
ENDMDL
