MODEL 1
REMARK VINA RESULT:      -8.1      0.000      0.000
REMARK  Name = 
REMARK  7 active torsions:
REMARK  status: ('A' for Active; 'I' for Inactive)
REMARK    1  A    between atoms: C_1  and  C_2
REMARK    2  A    between atoms: N_6  and  C_7
REMARK    3  A    between atoms: C_11  and  C_12
REMARK    4  A    between atoms: N_14  and  C_15
REMARK    5  A    between atoms: C_17  and  C_18
REMARK    6  A    between atoms: C_18  and  N_19
REMARK    7  A    between atoms: C_25  and  O_26
REMARK                            x       y       z     vdW  Elec       q    Type
REMARK                         _______ _______ _______ _____ _____    ______ ____
ROOT
ATOM      1  C   UNL     1       3.103   7.209  18.183  0.00  0.00    +0.000 C 
ATOM      2  O   UNL     1       3.467   7.769  17.154  0.00  0.00    +0.000 OA
ATOM      3  N   UNL     1       3.534   5.939  18.534  0.00  0.00    +0.000 N 
ATOM      4  H   UNL     1       3.433   5.676  19.504  0.00  0.00    +0.000 HD
ENDROOT
BRANCH   1   9
ATOM      5  C   UNL     1       0.714   9.846  19.543  0.00  0.00    +0.000 A 
ATOM      6  C   UNL     1       0.465   9.341  20.823  0.00  0.00    +0.000 A 
ATOM      7  C   UNL     1       1.001   8.124  21.238  0.00  0.00    +0.000 A 
ATOM      8  C   UNL     1       1.832   7.400  20.384  0.00  0.00    +0.000 A 
ATOM      9  C   UNL     1       2.165   7.911  19.123  0.00  0.00    +0.000 A 
ATOM     10  C   UNL     1       1.601   9.137  18.713  0.00  0.00    +0.000 A 
BRANCH   5  16
ATOM     11  C   UNL     1       2.435  16.208  20.141  0.00  0.00    +0.000 C 
ATOM     12  C   UNL     1       1.845  14.871  19.826  0.00  0.00    +0.000 A 
ATOM     13  C   UNL     1       0.967  14.680  18.763  0.00  0.00    +0.000 A 
ATOM     14  C   UNL     1       0.413  13.417  18.544  0.00  0.00    +0.000 A 
ATOM     15  C   UNL     1       0.768  12.356  19.376  0.00  0.00    +0.000 A 
ATOM     16  N   UNL     1       0.177  11.089  19.138  0.00  0.00    +0.000 N 
ATOM     17  N   UNL     1       1.633  12.526  20.398  0.00  0.00    +0.000 NA
ATOM     18  C   UNL     1       2.138  13.763  20.609  0.00  0.00    +0.000 A 
ATOM     19  H   UNL     1      -0.822  11.160  19.299  0.00  0.00    +0.000 HD
ENDBRANCH   5  16
ENDBRANCH   1   9
BRANCH   3  20
ATOM     20  C   UNL     1       4.606   5.257  17.807  0.00  0.00    +0.000 C 
ATOM     21  C   UNL     1       4.097   4.131  16.894  0.00  0.00    +0.000 C 
ATOM     22  C   UNL     1       4.100   2.844  17.742  0.00  0.00    +0.000 C 
ATOM     23  C   UNL     1       4.786   3.214  19.067  0.00  0.00    +0.000 C 
ATOM     24  C   UNL     1       5.544   4.503  18.768  0.00  0.00    +0.000 C 
BRANCH  24  25
ATOM     25  O   UNL     1       6.804   4.224  18.165  0.00  0.00    +0.000 OA
ATOM     26  H   UNL     1       7.517   4.594  18.710  0.00  0.00    +0.000 HD
ENDBRANCH  24  25
BRANCH  22  27
ATOM     27  C   UNL     1       2.680   2.292  17.915  0.00  0.00    +0.000 C 
BRANCH  27  28
ATOM     28  N   UNL     1       2.004   2.754  19.109  0.00  0.00    +0.000 N 
ATOM     29  C   UNL     1       2.019   2.157  20.338  0.00  0.00    +0.000 A 
ATOM     30  C   UNL     1       1.199   2.938  21.119  0.00  0.00    +0.000 A 
ATOM     31  N   UNL     1       0.690   3.985  20.396  0.00  0.00    +0.000 NA
ATOM     32  C   UNL     1       1.183   3.843  19.187  0.00  0.00    +0.000 A 
ENDBRANCH  27  28
ENDBRANCH  22  27
ENDBRANCH   3  20
TORSDOF 6
ENDMDL
MODEL 2
REMARK VINA RESULT:      -8.1      2.032      2.989
REMARK  Name = 
REMARK  7 active torsions:
REMARK  status: ('A' for Active; 'I' for Inactive)
REMARK    1  A    between atoms: C_1  and  C_2
REMARK    2  A    between atoms: N_6  and  C_7
REMARK    3  A    between atoms: C_11  and  C_12
REMARK    4  A    between atoms: N_14  and  C_15
REMARK    5  A    between atoms: C_17  and  C_18
REMARK    6  A    between atoms: C_18  and  N_19
REMARK    7  A    between atoms: C_25  and  O_26
REMARK                            x       y       z     vdW  Elec       q    Type
REMARK                         _______ _______ _______ _____ _____    ______ ____
ROOT
ATOM      1  C   UNL     1       3.048   7.146  18.137  0.00  0.00    +0.000 C 
ATOM      2  O   UNL     1       3.483   7.801  17.195  0.00  0.00    +0.000 OA
ATOM      3  N   UNL     1       3.362   5.809  18.324  0.00  0.00    +0.000 N 
ATOM      4  H   UNL     1       3.215   5.433  19.250  0.00  0.00    +0.000 HD
ENDROOT
BRANCH   1   9
ATOM      5  C   UNL     1       0.615   9.642  19.674  0.00  0.00    +0.000 A 
ATOM      6  C   UNL     1       0.510   9.140  20.975  0.00  0.00    +0.000 A 
ATOM      7  C   UNL     1       1.159   7.967  21.353  0.00  0.00    +0.000 A 
ATOM      8  C   UNL     1       1.960   7.286  20.438  0.00  0.00    +0.000 A 
ATOM      9  C   UNL     1       2.150   7.800  19.148  0.00  0.00    +0.000 A 
ATOM     10  C   UNL     1       1.473   8.980  18.777  0.00  0.00    +0.000 A 
BRANCH   5  16
ATOM     11  C   UNL     1      -5.332  11.309  17.297  0.00  0.00    +0.000 C 
ATOM     12  C   UNL     1      -3.952  11.216  17.866  0.00  0.00    +0.000 A 
ATOM     13  C   UNL     1      -3.333  12.296  18.488  0.00  0.00    +0.000 A 
ATOM     14  C   UNL     1      -2.026  12.163  18.961  0.00  0.00    +0.000 A 
ATOM     15  C   UNL     1      -1.368  10.941  18.830  0.00  0.00    +0.000 A 
ATOM     16  N   UNL     1      -0.036  10.841  19.306  0.00  0.00    +0.000 N 
ATOM     17  N   UNL     1      -1.965   9.881  18.245  0.00  0.00    +0.000 NA
ATOM     18  C   UNL     1      -3.222  10.039  17.770  0.00  0.00    +0.000 A 
ATOM     19  H   UNL     1       0.553  11.459  18.759  0.00  0.00    +0.000 HD
ENDBRANCH   5  16
ENDBRANCH   1   9
BRANCH   3  20
ATOM     20  C   UNL     1       4.390   5.137  17.529  0.00  0.00    +0.000 C 
ATOM     21  C   UNL     1       3.867   3.900  16.783  0.00  0.00    +0.000 C 
ATOM     22  C   UNL     1       4.070   2.699  17.727  0.00  0.00    +0.000 C 
ATOM     23  C   UNL     1       4.877   3.234  18.922  0.00  0.00    +0.000 C 
ATOM     24  C   UNL     1       5.492   4.539  18.425  0.00  0.00    +0.000 C 
BRANCH  24  25
ATOM     25  O   UNL     1       6.689   4.291  17.695  0.00  0.00    +0.000 OA
ATOM     26  H   UNL     1       6.851   3.335  17.648  0.00  0.00    +0.000 HD
ENDBRANCH  24  25
BRANCH  22  27
ATOM     27  C   UNL     1       2.727   2.071  18.120  0.00  0.00    +0.000 C 
BRANCH  27  28
ATOM     28  N   UNL     1       2.090   2.698  19.260  0.00  0.00    +0.000 N 
ATOM     29  C   UNL     1       2.336   2.436  20.578  0.00  0.00    +0.000 A 
ATOM     30  C   UNL     1       1.457   3.239  21.267  0.00  0.00    +0.000 A 
ATOM     31  N   UNL     1       0.687   3.973  20.402  0.00  0.00    +0.000 NA
ATOM     32  C   UNL     1       1.084   3.619  19.201  0.00  0.00    +0.000 A 
ENDBRANCH  27  28
ENDBRANCH  22  27
ENDBRANCH   3  20
TORSDOF 6
ENDMDL
MODEL 3
REMARK VINA RESULT:      -8.0      2.968      4.526
REMARK  Name = 
REMARK  7 active torsions:
REMARK  status: ('A' for Active; 'I' for Inactive)
REMARK    1  A    between atoms: C_1  and  C_2
REMARK    2  A    between atoms: N_6  and  C_7
REMARK    3  A    between atoms: C_11  and  C_12
REMARK    4  A    between atoms: N_14  and  C_15
REMARK    5  A    between atoms: C_17  and  C_18
REMARK    6  A    between atoms: C_18  and  N_19
REMARK    7  A    between atoms: C_25  and  O_26
REMARK                            x       y       z     vdW  Elec       q    Type
REMARK                         _______ _______ _______ _____ _____    ______ ____
ROOT
ATOM      1  C   UNL     1       3.063   6.101  19.623  0.00  0.00    +0.000 C 
ATOM      2  O   UNL     1       2.673   5.313  20.479  0.00  0.00    +0.000 OA
ATOM      3  N   UNL     1       4.176   5.854  18.834  0.00  0.00    +0.000 N 
ATOM      4  H   UNL     1       4.256   6.387  17.980  0.00  0.00    +0.000 HD
ENDROOT
BRANCH   1   9
ATOM      5  C   UNL     1       0.912   9.163  20.330  0.00  0.00    +0.000 A 
ATOM      6  C   UNL     1       0.829   9.728  19.053  0.00  0.00    +0.000 A 
ATOM      7  C   UNL     1       1.511   9.175  17.973  0.00  0.00    +0.000 A 
ATOM      8  C   UNL     1       2.270   8.019  18.143  0.00  0.00    +0.000 A 
ATOM      9  C   UNL     1       2.315   7.382  19.390  0.00  0.00    +0.000 A 
ATOM     10  C   UNL     1       1.630   7.963  20.478  0.00  0.00    +0.000 A 
BRANCH   5  16
ATOM     11  C   UNL     1      -0.398  15.263  22.537  0.00  0.00    +0.000 C 
ATOM     12  C   UNL     1      -0.292  13.802  22.238  0.00  0.00    +0.000 A 
ATOM     13  C   UNL     1      -1.210  12.877  22.726  0.00  0.00    +0.000 A 
ATOM     14  C   UNL     1      -1.035  11.520  22.451  0.00  0.00    +0.000 A 
ATOM     15  C   UNL     1       0.042  11.110  21.666  0.00  0.00    +0.000 A 
ATOM     16  N   UNL     1       0.202   9.723  21.417  0.00  0.00    +0.000 N 
ATOM     17  N   UNL     1       0.929  12.000  21.173  0.00  0.00    +0.000 NA
ATOM     18  C   UNL     1       0.756  13.308  21.473  0.00  0.00    +0.000 A 
ATOM     19  H   UNL     1       0.389   9.253  22.296  0.00  0.00    +0.000 HD
ENDBRANCH   5  16
ENDBRANCH   1   9
BRANCH   3  20
ATOM     20  C   UNL     1       4.846   4.553  18.827  0.00  0.00    +0.000 C 
ATOM     21  C   UNL     1       6.105   4.524  17.946  0.00  0.00    +0.000 C 
ATOM     22  C   UNL     1       5.647   4.092  16.540  0.00  0.00    +0.000 C 
ATOM     23  C   UNL     1       4.167   3.699  16.681  0.00  0.00    +0.000 C 
ATOM     24  C   UNL     1       3.964   3.471  18.176  0.00  0.00    +0.000 C 
BRANCH  24  25
ATOM     25  O   UNL     1       4.375   2.159  18.550  0.00  0.00    +0.000 OA
ATOM     26  H   UNL     1       5.240   2.201  18.989  0.00  0.00    +0.000 HD
ENDBRANCH  24  25
BRANCH  22  27
ATOM     27  C   UNL     1       5.895   5.203  15.512  0.00  0.00    +0.000 C 
BRANCH  27  28
ATOM     28  N   UNL     1       6.303   4.724  14.207  0.00  0.00    +0.000 N 
ATOM     29  C   UNL     1       5.723   3.717  13.489  0.00  0.00    +0.000 A 
ATOM     30  C   UNL     1       6.490   3.606  12.353  0.00  0.00    +0.000 A 
ATOM     31  N   UNL     1       7.517   4.514  12.368  0.00  0.00    +0.000 NA
ATOM     32  C   UNL     1       7.385   5.166  13.501  0.00  0.00    +0.000 A 
ENDBRANCH  27  28
ENDBRANCH  22  27
ENDBRANCH   3  20
TORSDOF 6
ENDMDL
MODEL 4
REMARK VINA RESULT:      -8.0      2.709      4.316
REMARK  Name = 
REMARK  7 active torsions:
REMARK  status: ('A' for Active; 'I' for Inactive)
REMARK    1  A    between atoms: C_1  and  C_2
REMARK    2  A    between atoms: N_6  and  C_7
REMARK    3  A    between atoms: C_11  and  C_12
REMARK    4  A    between atoms: N_14  and  C_15
REMARK    5  A    between atoms: C_17  and  C_18
REMARK    6  A    between atoms: C_18  and  N_19
REMARK    7  A    between atoms: C_25  and  O_26
REMARK                            x       y       z     vdW  Elec       q    Type
REMARK                         _______ _______ _______ _____ _____    ______ ____
ROOT
ATOM      1  C   UNL     1       2.155   6.446  19.972  0.00  0.00    +0.000 C 
ATOM      2  O   UNL     1       1.536   5.978  20.923  0.00  0.00    +0.000 OA
ATOM      3  N   UNL     1       3.108   5.721  19.273  0.00  0.00    +0.000 N 
ATOM      4  H   UNL     1       3.349   6.057  18.352  0.00  0.00    +0.000 HD
ENDROOT
BRANCH   1   9
ATOM      5  C   UNL     1       1.020  10.080  20.085  0.00  0.00    +0.000 A 
ATOM      6  C   UNL     1       1.246  10.468  18.760  0.00  0.00    +0.000 A 
ATOM      7  C   UNL     1       1.823   9.596  17.839  0.00  0.00    +0.000 A 
ATOM      8  C   UNL     1       2.157   8.298  18.221  0.00  0.00    +0.000 A 
ATOM      9  C   UNL     1       1.875   7.850  19.518  0.00  0.00    +0.000 A 
ATOM     10  C   UNL     1       1.305   8.750  20.443  0.00  0.00    +0.000 A 
BRANCH   5  16
ATOM     11  C   UNL     1      -4.728  13.329  20.527  0.00  0.00    +0.000 C 
ATOM     12  C   UNL     1      -3.390  12.685  20.697  0.00  0.00    +0.000 A 
ATOM     13  C   UNL     1      -2.788  12.546  21.944  0.00  0.00    +0.000 A 
ATOM     14  C   UNL     1      -1.516  11.976  22.037  0.00  0.00    +0.000 A 
ATOM     15  C   UNL     1      -0.878  11.527  20.882  0.00  0.00    +0.000 A 
ATOM     16  N   UNL     1       0.419  10.968  21.006  0.00  0.00    +0.000 N 
ATOM     17  N   UNL     1      -1.459  11.641  19.669  0.00  0.00    +0.000 NA
ATOM     18  C   UNL     1      -2.680  12.219  19.598  0.00  0.00    +0.000 A 
ATOM     19  H   UNL     1       1.055  11.687  21.334  0.00  0.00    +0.000 HD
ENDBRANCH   5  16
ENDBRANCH   1   9
BRANCH   3  20
ATOM     20  C   UNL     1       3.303   4.288  19.490  0.00  0.00    +0.000 C 
ATOM     21  C   UNL     1       4.556   3.734  18.793  0.00  0.00    +0.000 C 
ATOM     22  C   UNL     1       4.110   3.276  17.390  0.00  0.00    +0.000 C 
ATOM     23  C   UNL     1       2.578   3.400  17.373  0.00  0.00    +0.000 C 
ATOM     24  C   UNL     1       2.174   3.463  18.843  0.00  0.00    +0.000 C 
BRANCH  24  25
ATOM     25  O   UNL     1       2.088   2.156  19.403  0.00  0.00    +0.000 OA
ATOM     26  H   UNL     1       1.350   2.118  20.032  0.00  0.00    +0.000 HD
ENDBRANCH  24  25
BRANCH  22  27
ATOM     27  C   UNL     1       4.808   4.092  16.295  0.00  0.00    +0.000 C 
BRANCH  27  28
ATOM     28  N   UNL     1       5.783   5.040  16.790  0.00  0.00    +0.000 N 
ATOM     29  C   UNL     1       5.619   6.391  16.911  0.00  0.00    +0.000 A 
ATOM     30  C   UNL     1       6.828   6.853  17.376  0.00  0.00    +0.000 A 
ATOM     31  N   UNL     1       7.716   5.821  17.534  0.00  0.00    +0.000 NA
ATOM     32  C   UNL     1       7.062   4.743  17.165  0.00  0.00    +0.000 A 
ENDBRANCH  27  28
ENDBRANCH  22  27
ENDBRANCH   3  20
TORSDOF 6
ENDMDL
MODEL 5
REMARK VINA RESULT:      -8.0      2.295      3.242
REMARK  Name = 
REMARK  7 active torsions:
REMARK  status: ('A' for Active; 'I' for Inactive)
REMARK    1  A    between atoms: C_1  and  C_2
REMARK    2  A    between atoms: N_6  and  C_7
REMARK    3  A    between atoms: C_11  and  C_12
REMARK    4  A    between atoms: N_14  and  C_15
REMARK    5  A    between atoms: C_17  and  C_18
REMARK    6  A    between atoms: C_18  and  N_19
REMARK    7  A    between atoms: C_25  and  O_26
REMARK                            x       y       z     vdW  Elec       q    Type
REMARK                         _______ _______ _______ _____ _____    ______ ____
ROOT
ATOM      1  C   UNL     1       2.906   7.446  18.483  0.00  0.00    +0.000 C 
ATOM      2  O   UNL     1       2.992   7.853  17.328  0.00  0.00    +0.000 OA
ATOM      3  N   UNL     1       3.677   6.399  18.963  0.00  0.00    +0.000 N 
ATOM      4  H   UNL     1       3.763   6.320  19.966  0.00  0.00    +0.000 HD
ENDROOT
BRANCH   1   9
ATOM      5  C   UNL     1       0.181   9.769  19.779  0.00  0.00    +0.000 A 
ATOM      6  C   UNL     1       0.175   9.436  21.138  0.00  0.00    +0.000 A 
ATOM      7  C   UNL     1       0.990   8.423  21.638  0.00  0.00    +0.000 A 
ATOM      8  C   UNL     1       1.858   7.742  20.787  0.00  0.00    +0.000 A 
ATOM      9  C   UNL     1       1.947   8.100  19.436  0.00  0.00    +0.000 A 
ATOM     10  C   UNL     1       1.103   9.117  18.942  0.00  0.00    +0.000 A 
BRANCH   5  16
ATOM     11  C   UNL     1      -4.134  10.494  14.814  0.00  0.00    +0.000 C 
ATOM     12  C   UNL     1      -3.256  10.588  16.020  0.00  0.00    +0.000 A 
ATOM     13  C   UNL     1      -3.467  11.534  17.020  0.00  0.00    +0.000 A 
ATOM     14  C   UNL     1      -2.587  11.603  18.102  0.00  0.00    +0.000 A 
ATOM     15  C   UNL     1      -1.525  10.704  18.183  0.00  0.00    +0.000 A 
ATOM     16  N   UNL     1      -0.640  10.809  19.286  0.00  0.00    +0.000 N 
ATOM     17  N   UNL     1      -1.321   9.771  17.229  0.00  0.00    +0.000 NA
ATOM     18  C   UNL     1      -2.169   9.738  16.176  0.00  0.00    +0.000 A 
ATOM     19  H   UNL     1      -0.160  11.701  19.236  0.00  0.00    +0.000 HD
ENDBRANCH   5  16
ENDBRANCH   1   9
BRANCH   3  20
ATOM     20  C   UNL     1       4.786   5.837  18.191  0.00  0.00    +0.000 C 
ATOM     21  C   UNL     1       4.328   4.873  17.085  0.00  0.00    +0.000 C 
ATOM     22  C   UNL     1       4.292   3.467  17.714  0.00  0.00    +0.000 C 
ATOM     23  C   UNL     1       4.909   3.617  19.115  0.00  0.00    +0.000 C 
ATOM     24  C   UNL     1       5.677   4.934  19.065  0.00  0.00    +0.000 C 
BRANCH  24  25
ATOM     25  O   UNL     1       6.967   4.748  18.489  0.00  0.00    +0.000 OA
ATOM     26  H   UNL     1       7.503   5.546  18.624  0.00  0.00    +0.000 HD
ENDBRANCH  24  25
BRANCH  22  27
ATOM     27  C   UNL     1       2.866   2.902  17.725  0.00  0.00    +0.000 C 
BRANCH  27  28
ATOM     28  N   UNL     1       2.141   3.144  18.955  0.00  0.00    +0.000 N 
ATOM     29  C   UNL     1       2.091   2.324  20.047  0.00  0.00    +0.000 A 
ATOM     30  C   UNL     1       1.244   2.959  20.926  0.00  0.00    +0.000 A 
ATOM     31  N   UNL     1       0.781   4.134  20.393  0.00  0.00    +0.000 NA
ATOM     32  C   UNL     1       1.330   4.214  19.202  0.00  0.00    +0.000 A 
ENDBRANCH  27  28
ENDBRANCH  22  27
ENDBRANCH   3  20
TORSDOF 6
ENDMDL
MODEL 6
REMARK VINA RESULT:      -7.9      1.072      1.312
REMARK  Name = 
REMARK  7 active torsions:
REMARK  status: ('A' for Active; 'I' for Inactive)
REMARK    1  A    between atoms: C_1  and  C_2
REMARK    2  A    between atoms: N_6  and  C_7
REMARK    3  A    between atoms: C_11  and  C_12
REMARK    4  A    between atoms: N_14  and  C_15
REMARK    5  A    between atoms: C_17  and  C_18
REMARK    6  A    between atoms: C_18  and  N_19
REMARK    7  A    between atoms: C_25  and  O_26
REMARK                            x       y       z     vdW  Elec       q    Type
REMARK                         _______ _______ _______ _____ _____    ______ ____
ROOT
ATOM      1  C   UNL     1       2.586   7.773  18.150  0.00  0.00    +0.000 C 
ATOM      2  O   UNL     1       2.776   8.410  17.118  0.00  0.00    +0.000 OA
ATOM      3  N   UNL     1       3.084   6.493  18.338  0.00  0.00    +0.000 N 
ATOM      4  H   UNL     1       3.140   6.162  19.291  0.00  0.00    +0.000 HD
ENDROOT
BRANCH   1   9
ATOM      5  C   UNL     1       0.339  10.211  20.025  0.00  0.00    +0.000 A 
ATOM      6  C   UNL     1       0.361   9.655  21.308  0.00  0.00    +0.000 A 
ATOM      7  C   UNL     1       1.035   8.465  21.570  0.00  0.00    +0.000 A 
ATOM      8  C   UNL     1       1.735   7.820  20.552  0.00  0.00    +0.000 A 
ATOM      9  C   UNL     1       1.799   8.386  19.272  0.00  0.00    +0.000 A 
ATOM     10  C   UNL     1       1.098   9.584  19.020  0.00  0.00    +0.000 A 
BRANCH   5  16
ATOM     11  C   UNL     1       2.091  16.479  18.825  0.00  0.00    +0.000 C 
ATOM     12  C   UNL     1       1.431  15.152  19.027  0.00  0.00    +0.000 A 
ATOM     13  C   UNL     1       0.141  14.890  18.575  0.00  0.00    +0.000 A 
ATOM     14  C   UNL     1      -0.441  13.647  18.832  0.00  0.00    +0.000 A 
ATOM     15  C   UNL     1       0.288  12.674  19.514  0.00  0.00    +0.000 A 
ATOM     16  N   UNL     1      -0.335  11.427  19.774  0.00  0.00    +0.000 N 
ATOM     17  N   UNL     1       1.546  12.911  19.942  0.00  0.00    +0.000 NA
ATOM     18  C   UNL     1       2.082  14.131  19.706  0.00  0.00    +0.000 A 
ATOM     19  H   UNL     1      -1.121  11.579  20.397  0.00  0.00    +0.000 HD
ENDBRANCH   5  16
ENDBRANCH   1   9
BRANCH   3  20
ATOM     20  C   UNL     1       4.037   5.888  17.406  0.00  0.00    +0.000 C 
ATOM     21  C   UNL     1       3.985   4.352  17.398  0.00  0.00    +0.000 C 
ATOM     22  C   UNL     1       4.996   3.873  18.458  0.00  0.00    +0.000 C 
ATOM     23  C   UNL     1       5.746   5.132  18.924  0.00  0.00    +0.000 C 
ATOM     24  C   UNL     1       5.491   6.166  17.832  0.00  0.00    +0.000 C 
BRANCH  24  25
ATOM     25  O   UNL     1       6.400   5.995  16.748  0.00  0.00    +0.000 OA
ATOM     26  H   UNL     1       7.192   6.537  16.897  0.00  0.00    +0.000 HD
ENDBRANCH  24  25
BRANCH  22  27
ATOM     27  C   UNL     1       4.292   3.118  19.592  0.00  0.00    +0.000 C 
BRANCH  27  28
ATOM     28  N   UNL     1       2.853   3.043  19.452  0.00  0.00    +0.000 N 
ATOM     29  C   UNL     1       1.927   3.781  20.134  0.00  0.00    +0.000 A 
ATOM     30  C   UNL     1       0.710   3.316  19.691  0.00  0.00    +0.000 A 
ATOM     31  N   UNL     1       0.877   2.318  18.766  0.00  0.00    +0.000 NA
ATOM     32  C   UNL     1       2.177   2.169  18.649  0.00  0.00    +0.000 A 
ENDBRANCH  27  28
ENDBRANCH  22  27
ENDBRANCH   3  20
TORSDOF 6
ENDMDL
MODEL 7
REMARK VINA RESULT:      -7.8      2.320      3.291
REMARK  Name = 
REMARK  7 active torsions:
REMARK  status: ('A' for Active; 'I' for Inactive)
REMARK    1  A    between atoms: C_1  and  C_2
REMARK    2  A    between atoms: N_6  and  C_7
REMARK    3  A    between atoms: C_11  and  C_12
REMARK    4  A    between atoms: N_14  and  C_15
REMARK    5  A    between atoms: C_17  and  C_18
REMARK    6  A    between atoms: C_18  and  N_19
REMARK    7  A    between atoms: C_25  and  O_26
REMARK                            x       y       z     vdW  Elec       q    Type
REMARK                         _______ _______ _______ _____ _____    ______ ____
ROOT
ATOM      1  C   UNL     1       2.608   7.845  18.088  0.00  0.00    +0.000 C 
ATOM      2  O   UNL     1       2.768   8.569  17.110  0.00  0.00    +0.000 OA
ATOM      3  N   UNL     1       3.153   6.573  18.170  0.00  0.00    +0.000 N 
ATOM      4  H   UNL     1       3.228   6.168  19.092  0.00  0.00    +0.000 HD
ENDROOT
BRANCH   1   9
ATOM      5  C   UNL     1       0.248  10.011  20.148  0.00  0.00    +0.000 A 
ATOM      6  C   UNL     1       0.336   9.384  21.395  0.00  0.00    +0.000 A 
ATOM      7  C   UNL     1       1.094   8.229  21.572  0.00  0.00    +0.000 A 
ATOM      8  C   UNL     1       1.811   7.693  20.504  0.00  0.00    +0.000 A 
ATOM      9  C   UNL     1       1.808   8.337  19.259  0.00  0.00    +0.000 A 
ATOM     10  C   UNL     1       1.023   9.497  19.093  0.00  0.00    +0.000 A 
BRANCH   5  16
ATOM     11  C   UNL     1      -5.529  11.617  17.348  0.00  0.00    +0.000 C 
ATOM     12  C   UNL     1      -4.232  11.522  18.085  0.00  0.00    +0.000 A 
ATOM     13  C   UNL     1      -3.850  12.463  19.037  0.00  0.00    +0.000 A 
ATOM     14  C   UNL     1      -2.606  12.347  19.662  0.00  0.00    +0.000 A 
ATOM     15  C   UNL     1      -1.775  11.274  19.344  0.00  0.00    +0.000 A 
ATOM     16  N   UNL     1      -0.511  11.192  19.984  0.00  0.00    +0.000 N 
ATOM     17  N   UNL     1      -2.142  10.346  18.436  0.00  0.00    +0.000 NA
ATOM     18  C   UNL     1      -3.340  10.491  17.824  0.00  0.00    +0.000 A 
ATOM     19  H   UNL     1       0.050  11.987  19.699  0.00  0.00    +0.000 HD
ENDBRANCH   5  16
ENDBRANCH   1   9
BRANCH   3  20
ATOM     20  C   UNL     1       4.120   6.080  17.188  0.00  0.00    +0.000 C 
ATOM     21  C   UNL     1       4.194   4.546  17.127  0.00  0.00    +0.000 C 
ATOM     22  C   UNL     1       5.277   4.119  18.137  0.00  0.00    +0.000 C 
ATOM     23  C   UNL     1       5.936   5.420  18.623  0.00  0.00    +0.000 C 
ATOM     24  C   UNL     1       5.560   6.464  17.576  0.00  0.00    +0.000 C 
BRANCH  24  25
ATOM     25  O   UNL     1       6.442   6.404  16.460  0.00  0.00    +0.000 OA
ATOM     26  H   UNL     1       7.265   5.957  16.717  0.00  0.00    +0.000 HD
ENDBRANCH  24  25
BRANCH  22  27
ATOM     27  C   UNL     1       4.676   3.272  19.265  0.00  0.00    +0.000 C 
BRANCH  27  28
ATOM     28  N   UNL     1       3.240   3.104  19.183  0.00  0.00    +0.000 N 
ATOM     29  C   UNL     1       2.564   2.257  18.352  0.00  0.00    +0.000 A 
ATOM     30  C   UNL     1       1.235   2.495  18.611  0.00  0.00    +0.000 A 
ATOM     31  N   UNL     1       1.091   3.463  19.570  0.00  0.00    +0.000 NA
ATOM     32  C   UNL     1       2.315   3.818  19.889  0.00  0.00    +0.000 A 
ENDBRANCH  27  28
ENDBRANCH  22  27
ENDBRANCH   3  20
TORSDOF 6
ENDMDL
MODEL 8
REMARK VINA RESULT:      -7.8      2.399      3.341
REMARK  Name = 
REMARK  7 active torsions:
REMARK  status: ('A' for Active; 'I' for Inactive)
REMARK    1  A    between atoms: C_1  and  C_2
REMARK    2  A    between atoms: N_6  and  C_7
REMARK    3  A    between atoms: C_11  and  C_12
REMARK    4  A    between atoms: N_14  and  C_15
REMARK    5  A    between atoms: C_17  and  C_18
REMARK    6  A    between atoms: C_18  and  N_19
REMARK    7  A    between atoms: C_25  and  O_26
REMARK                            x       y       z     vdW  Elec       q    Type
REMARK                         _______ _______ _______ _____ _____    ______ ____
ROOT
ATOM      1  C   UNL     1       3.053   7.842  17.897  0.00  0.00    +0.000 C 
ATOM      2  O   UNL     1       3.025   8.469  16.842  0.00  0.00    +0.000 OA
ATOM      3  N   UNL     1       3.937   6.798  18.121  0.00  0.00    +0.000 N 
ATOM      4  H   UNL     1       4.099   6.538  19.083  0.00  0.00    +0.000 HD
ENDROOT
BRANCH   1   9
ATOM      5  C   UNL     1       0.429   9.777  19.867  0.00  0.00    +0.000 A 
ATOM      6  C   UNL     1       0.383   9.030  21.048  0.00  0.00    +0.000 A 
ATOM      7  C   UNL     1       1.137   7.868  21.200  0.00  0.00    +0.000 A 
ATOM      8  C   UNL     1       1.983   7.447  20.176  0.00  0.00    +0.000 A 
ATOM      9  C   UNL     1       2.113   8.210  19.009  0.00  0.00    +0.000 A 
ATOM     10  C   UNL     1       1.331   9.376  18.865  0.00  0.00    +0.000 A 
BRANCH   5  16
ATOM     11  C   UNL     1      -5.474  11.407  17.360  0.00  0.00    +0.000 C 
ATOM     12  C   UNL     1      -4.141  11.307  18.028  0.00  0.00    +0.000 A 
ATOM     13  C   UNL     1      -3.701  12.254  18.949  0.00  0.00    +0.000 A 
ATOM     14  C   UNL     1      -2.427  12.133  19.507  0.00  0.00    +0.000 A 
ATOM     15  C   UNL     1      -1.622  11.050  19.158  0.00  0.00    +0.000 A 
ATOM     16  N   UNL     1      -0.328  10.963  19.730  0.00  0.00    +0.000 N 
ATOM     17  N   UNL     1      -2.045  10.116  18.280  0.00  0.00    +0.000 NA
ATOM     18  C   UNL     1      -3.272  10.266  17.731  0.00  0.00    +0.000 A 
ATOM     19  H   UNL     1       0.225  11.750  19.408  0.00  0.00    +0.000 HD
ENDBRANCH   5  16
ENDBRANCH   1   9
BRANCH   3  20
ATOM     20  C   UNL     1       5.031   6.499  17.196  0.00  0.00    +0.000 C 
ATOM     21  C   UNL     1       4.722   5.328  16.250  0.00  0.00    +0.000 C 
ATOM     22  C   UNL     1       5.213   4.050  16.958  0.00  0.00    +0.000 C 
ATOM     23  C   UNL     1       5.964   4.526  18.213  0.00  0.00    +0.000 C 
ATOM     24  C   UNL     1       6.278   5.995  17.947  0.00  0.00    +0.000 C 
BRANCH  24  25
ATOM     25  O   UNL     1       7.458   6.127  17.160  0.00  0.00    +0.000 OA
ATOM     26  H   UNL     1       7.217   6.230  16.225  0.00  0.00    +0.000 HD
ENDBRANCH  24  25
BRANCH  22  27
ATOM     27  C   UNL     1       4.046   3.102  17.259  0.00  0.00    +0.000 C 
BRANCH  27  28
ATOM     28  N   UNL     1       3.627   3.097  18.645  0.00  0.00    +0.000 N 
ATOM     29  C   UNL     1       2.701   3.921  19.220  0.00  0.00    +0.000 A 
ATOM     30  C   UNL     1       2.689   3.564  20.548  0.00  0.00    +0.000 A 
ATOM     31  N   UNL     1       3.582   2.553  20.789  0.00  0.00    +0.000 NA
ATOM     32  C   UNL     1       4.139   2.299  19.628  0.00  0.00    +0.000 A 
ENDBRANCH  27  28
ENDBRANCH  22  27
ENDBRANCH   3  20
TORSDOF 6
ENDMDL
MODEL 9
REMARK VINA RESULT:      -7.7      3.037      9.017
REMARK  Name = 
REMARK  7 active torsions:
REMARK  status: ('A' for Active; 'I' for Inactive)
REMARK    1  A    between atoms: C_1  and  C_2
REMARK    2  A    between atoms: N_6  and  C_7
REMARK    3  A    between atoms: C_11  and  C_12
REMARK    4  A    between atoms: N_14  and  C_15
REMARK    5  A    between atoms: C_17  and  C_18
REMARK    6  A    between atoms: C_18  and  N_19
REMARK    7  A    between atoms: C_25  and  O_26
REMARK                            x       y       z     vdW  Elec       q    Type
REMARK                         _______ _______ _______ _____ _____    ______ ____
ROOT
ATOM      1  C   UNL     1       1.646   9.597  18.560  0.00  0.00    +0.000 C 
ATOM      2  O   UNL     1       1.964   9.787  17.390  0.00  0.00    +0.000 OA
ATOM      3  N   UNL     1       1.115  10.597  19.360  0.00  0.00    +0.000 N 
ATOM      4  H   UNL     1       0.617  10.301  20.188  0.00  0.00    +0.000 HD
ENDROOT
BRANCH   1   9
ATOM      5  C   UNL     1       2.444   5.884  18.844  0.00  0.00    +0.000 A 
ATOM      6  C   UNL     1       2.092   5.639  20.176  0.00  0.00    +0.000 A 
ATOM      7  C   UNL     1       1.661   6.668  21.010  0.00  0.00    +0.000 A 
ATOM      8  C   UNL     1       1.542   7.965  20.515  0.00  0.00    +0.000 A 
ATOM      9  C   UNL     1       1.813   8.234  19.168  0.00  0.00    +0.000 A 
ATOM     10  C   UNL     1       2.263   7.184  18.340  0.00  0.00    +0.000 A 
BRANCH   5  16
ATOM     11  C   UNL     1       7.242   4.969  14.379  0.00  0.00    +0.000 C 
ATOM     12  C   UNL     1       6.114   4.893  15.357  0.00  0.00    +0.000 A 
ATOM     13  C   UNL     1       5.641   3.680  15.850  0.00  0.00    +0.000 A 
ATOM     14  C   UNL     1       4.554   3.669  16.728  0.00  0.00    +0.000 A 
ATOM     15  C   UNL     1       3.976   4.874  17.122  0.00  0.00    +0.000 A 
ATOM     16  N   UNL     1       2.865   4.829  18.002  0.00  0.00    +0.000 N 
ATOM     17  N   UNL     1       4.438   6.057  16.664  0.00  0.00    +0.000 NA
ATOM     18  C   UNL     1       5.474   6.044  15.795  0.00  0.00    +0.000 A 
ATOM     19  H   UNL     1       2.094   4.368  17.531  0.00  0.00    +0.000 HD
ENDBRANCH   5  16
ENDBRANCH   1   9
BRANCH   3  20
ATOM     20  C   UNL     1       0.711  11.893  18.814  0.00  0.00    +0.000 C 
ATOM     21  C   UNL     1       0.745  13.026  19.852  0.00  0.00    +0.000 C 
ATOM     22  C   UNL     1      -0.651  13.069  20.501  0.00  0.00    +0.000 C 
ATOM     23  C   UNL     1      -1.521  12.088  19.696  0.00  0.00    +0.000 C 
ATOM     24  C   UNL     1      -0.768  11.885  18.384  0.00  0.00    +0.000 C 
BRANCH  24  25
ATOM     25  O   UNL     1      -1.057  12.935  17.466  0.00  0.00    +0.000 OA
ATOM     26  H   UNL     1      -0.796  12.666  16.570  0.00  0.00    +0.000 HD
ENDBRANCH  24  25
BRANCH  22  27
ATOM     27  C   UNL     1      -0.576  12.743  21.997  0.00  0.00    +0.000 C 
BRANCH  27  28
ATOM     28  N   UNL     1      -1.850  12.805  22.684  0.00  0.00    +0.000 N 
ATOM     29  C   UNL     1      -2.612  13.920  22.889  0.00  0.00    +0.000 A 
ATOM     30  C   UNL     1      -3.690  13.481  23.621  0.00  0.00    +0.000 A 
ATOM     31  N   UNL     1      -3.597  12.135  23.865  0.00  0.00    +0.000 NA
ATOM     32  C   UNL     1      -2.475  11.758  23.298  0.00  0.00    +0.000 A 
ENDBRANCH  27  28
ENDBRANCH  22  27
ENDBRANCH   3  20
TORSDOF 6
ENDMDL
