MODEL 1
REMARK VINA RESULT:      -8.9      0.000      0.000
REMARK  Name = 
REMARK  4 active torsions:
REMARK  status: ('A' for Active; 'I' for Inactive)
REMARK    1  A    between atoms: N_6  and  C_7
REMARK    2  A    between atoms: C_7  and  C_8
REMARK    3  A    between atoms: C_11  and  N_12
REMARK    4  A    between atoms: N_12  and  C_13
REMARK                            x       y       z     vdW  Elec       q    Type
REMARK                         _______ _______ _______ _____ _____    ______ ____
ROOT
ATOM      1  N   UNL     1       1.637   7.549  21.065  0.00  0.00    +0.000 N 
ATOM      2  H   UNL     1       2.381   8.050  21.549  0.00  0.00    +0.000 HD
ENDROOT
BRANCH   1   3
ATOM      3  C   UNL     1       0.575   8.489  20.948  0.00  0.00    +0.000 A 
ATOM      4  N   UNL     1      -0.253   8.431  22.026  0.00  0.00    +0.000 NA
ATOM      5  C   UNL     1      -0.315   9.547  22.770  0.00  0.00    +0.000 A 
ATOM      6  N   UNL     1       0.350  10.688  22.553  0.00  0.00    +0.000 NA
ATOM      7  C   UNL     1       0.728  10.758  21.272  0.00  0.00    +0.000 A 
ATOM      8  S   UNL     1       1.107  12.237  20.525  0.00  0.00    +0.000 S 
ATOM      9  C   UNL     1      -0.111  11.817  19.377  0.00  0.00    +0.000 A 
ATOM     10  C   UNL     1      -0.941  12.717  18.678  0.00  0.00    +0.000 A 
ATOM     11  C   UNL     1      -1.956  12.192  17.885  0.00  0.00    +0.000 A 
ATOM     12  C   UNL     1      -2.069  10.818  17.714  0.00  0.00    +0.000 A 
ATOM     13  C   UNL     1      -1.209   9.924  18.387  0.00  0.00    +0.000 A 
ATOM     14  C   UNL     1      -0.235  10.421  19.294  0.00  0.00    +0.000 A 
ATOM     15  C   UNL     1       0.621   9.756  20.314  0.00  0.00    +0.000 A 
ENDBRANCH   1   3
BRANCH   1  19
ATOM     16  C   UNL     1       3.155   4.577  18.405  0.00  0.00    +0.000 A 
ATOM     17  C   UNL     1       3.067   5.919  18.011  0.00  0.00    +0.000 A 
ATOM     18  C   UNL     1       2.565   6.895  18.876  0.00  0.00    +0.000 A 
ATOM     19  C   UNL     1       2.146   6.586  20.166  0.00  0.00    +0.000 A 
ATOM     20  C   UNL     1       2.173   5.220  20.540  0.00  0.00    +0.000 A 
ATOM     21  C   UNL     1       2.682   4.231  19.676  0.00  0.00    +0.000 A 
BRANCH  16  22
ATOM     22  C   UNL     1       3.830   3.573  17.498  0.00  0.00    +0.000 C 
BRANCH  22  28
ATOM     23  O   UNL     1       6.227   4.248  19.071  0.00  0.00    +0.000 OA
ATOM     24  C   UNL     1       6.169   4.396  17.862  0.00  0.00    +0.000 C 
ATOM     25  C   UNL     1       7.223   5.067  17.015  0.00  0.00    +0.000 C 
ATOM     26  C   UNL     1       6.881   4.595  15.609  0.00  0.00    +0.000 C 
ATOM     27  C   UNL     1       5.379   4.394  15.658  0.00  0.00    +0.000 C 
ATOM     28  N   UNL     1       5.120   4.050  17.029  0.00  0.00    +0.000 N 
ENDBRANCH  22  28
ENDBRANCH  16  22
ENDBRANCH   1  19
TORSDOF 4
ENDMDL
MODEL 2
REMARK VINA RESULT:      -8.7      0.863      1.147
REMARK  Name = 
REMARK  4 active torsions:
REMARK  status: ('A' for Active; 'I' for Inactive)
REMARK    1  A    between atoms: N_6  and  C_7
REMARK    2  A    between atoms: C_7  and  C_8
REMARK    3  A    between atoms: C_11  and  N_12
REMARK    4  A    between atoms: N_12  and  C_13
REMARK                            x       y       z     vdW  Elec       q    Type
REMARK                         _______ _______ _______ _____ _____    ______ ____
ROOT
ATOM      1  N   UNL     1       1.476   7.520  21.169  0.00  0.00    +0.000 N 
ATOM      2  H   UNL     1       2.182   7.959  21.758  0.00  0.00    +0.000 HD
ENDROOT
BRANCH   1   3
ATOM      3  C   UNL     1       0.450   8.496  21.032  0.00  0.00    +0.000 A 
ATOM      4  N   UNL     1      -0.390   8.479  22.103  0.00  0.00    +0.000 NA
ATOM      5  C   UNL     1      -0.418   9.605  22.835  0.00  0.00    +0.000 A 
ATOM      6  N   UNL     1       0.290  10.719  22.611  0.00  0.00    +0.000 NA
ATOM      7  C   UNL     1       0.682  10.761  21.333  0.00  0.00    +0.000 A 
ATOM      8  S   UNL     1       1.121  12.217  20.574  0.00  0.00    +0.000 S 
ATOM      9  C   UNL     1      -0.101  11.829  19.419  0.00  0.00    +0.000 A 
ATOM     10  C   UNL     1      -0.892  12.750  18.703  0.00  0.00    +0.000 A 
ATOM     11  C   UNL     1      -1.918  12.254  17.906  0.00  0.00    +0.000 A 
ATOM     12  C   UNL     1      -2.079  10.883  17.749  0.00  0.00    +0.000 A 
ATOM     13  C   UNL     1      -1.258   9.966  18.439  0.00  0.00    +0.000 A 
ATOM     14  C   UNL     1      -0.275  10.437  19.350  0.00  0.00    +0.000 A 
ATOM     15  C   UNL     1       0.547   9.754  20.385  0.00  0.00    +0.000 A 
ENDBRANCH   1   3
BRANCH   1  19
ATOM     16  C   UNL     1       3.174   4.722  18.430  0.00  0.00    +0.000 A 
ATOM     17  C   UNL     1       3.093   6.084  18.111  0.00  0.00    +0.000 A 
ATOM     18  C   UNL     1       2.532   7.003  19.002  0.00  0.00    +0.000 A 
ATOM     19  C   UNL     1       2.045   6.615  20.246  0.00  0.00    +0.000 A 
ATOM     20  C   UNL     1       2.067   5.230  20.541  0.00  0.00    +0.000 A 
ATOM     21  C   UNL     1       2.635   4.298  19.650  0.00  0.00    +0.000 A 
BRANCH  16  22
ATOM     22  C   UNL     1       3.910   3.778  17.505  0.00  0.00    +0.000 C 
BRANCH  22  28
ATOM     23  O   UNL     1       5.161   4.233  14.877  0.00  0.00    +0.000 OA
ATOM     24  C   UNL     1       5.764   4.375  15.928  0.00  0.00    +0.000 C 
ATOM     25  C   UNL     1       7.243   4.651  16.053  0.00  0.00    +0.000 C 
ATOM     26  C   UNL     1       7.373   5.166  17.480  0.00  0.00    +0.000 C 
ATOM     27  C   UNL     1       6.254   4.458  18.216  0.00  0.00    +0.000 C 
ATOM     28  N   UNL     1       5.251   4.251  17.207  0.00  0.00    +0.000 N 
ENDBRANCH  22  28
ENDBRANCH  16  22
ENDBRANCH   1  19
TORSDOF 4
ENDMDL
MODEL 3
REMARK VINA RESULT:      -8.1      0.968      1.038
REMARK  Name = 
REMARK  4 active torsions:
REMARK  status: ('A' for Active; 'I' for Inactive)
REMARK    1  A    between atoms: N_6  and  C_7
REMARK    2  A    between atoms: C_7  and  C_8
REMARK    3  A    between atoms: C_11  and  N_12
REMARK    4  A    between atoms: N_12  and  C_13
REMARK                            x       y       z     vdW  Elec       q    Type
REMARK                         _______ _______ _______ _____ _____    ______ ____
ROOT
ATOM      1  N   UNL     1       1.024   7.385  21.444  0.00  0.00    +0.000 N 
ATOM      2  H   UNL     1       1.478   7.592  22.332  0.00  0.00    +0.000 HD
ENDROOT
BRANCH   1   3
ATOM      3  C   UNL     1       0.107   8.454  21.239  0.00  0.00    +0.000 A 
ATOM      4  N   UNL     1      -0.738   8.587  22.298  0.00  0.00    +0.000 NA
ATOM      5  C   UNL     1      -0.652   9.749  22.966  0.00  0.00    +0.000 A 
ATOM      6  N   UNL     1       0.171  10.768  22.689  0.00  0.00    +0.000 NA
ATOM      7  C   UNL     1       0.574  10.697  21.417  0.00  0.00    +0.000 A 
ATOM      8  S   UNL     1       1.169  12.052  20.583  0.00  0.00    +0.000 S 
ATOM      9  C   UNL     1      -0.078  11.730  19.436  0.00  0.00    +0.000 A 
ATOM     10  C   UNL     1      -0.762  12.687  18.659  0.00  0.00    +0.000 A 
ATOM     11  C   UNL     1      -1.829  12.256  17.878  0.00  0.00    +0.000 A 
ATOM     12  C   UNL     1      -2.133  10.903  17.795  0.00  0.00    +0.000 A 
ATOM     13  C   UNL     1      -1.418   9.946  18.546  0.00  0.00    +0.000 A 
ATOM     14  C   UNL     1      -0.397  10.362  19.443  0.00  0.00    +0.000 A 
ATOM     15  C   UNL     1       0.341   9.656  20.524  0.00  0.00    +0.000 A 
ENDBRANCH   1   3
BRANCH   1  19
ATOM     16  C   UNL     1       3.615   5.241  18.817  0.00  0.00    +0.000 A 
ATOM     17  C   UNL     1       3.148   6.519  18.483  0.00  0.00    +0.000 A 
ATOM     18  C   UNL     1       2.294   7.222  19.337  0.00  0.00    +0.000 A 
ATOM     19  C   UNL     1       1.883   6.698  20.557  0.00  0.00    +0.000 A 
ATOM     20  C   UNL     1       2.301   5.381  20.864  0.00  0.00    +0.000 A 
ATOM     21  C   UNL     1       3.166   4.667  20.011  0.00  0.00    +0.000 A 
BRANCH  16  22
ATOM     22  C   UNL     1       4.645   4.567  17.938  0.00  0.00    +0.000 C 
BRANCH  22  28
ATOM     23  O   UNL     1       6.837   4.925  19.873  0.00  0.00    +0.000 OA
ATOM     24  C   UNL     1       6.796   5.515  18.806  0.00  0.00    +0.000 C 
ATOM     25  C   UNL     1       7.749   6.603  18.375  0.00  0.00    +0.000 C 
ATOM     26  C   UNL     1       7.541   6.661  16.868  0.00  0.00    +0.000 C 
ATOM     27  C   UNL     1       6.095   6.243  16.694  0.00  0.00    +0.000 C 
ATOM     28  N   UNL     1       5.850   5.367  17.806  0.00  0.00    +0.000 N 
ENDBRANCH  22  28
ENDBRANCH  16  22
ENDBRANCH   1  19
TORSDOF 4
ENDMDL
MODEL 4
REMARK VINA RESULT:      -8.1      2.833      4.404
REMARK  Name = 
REMARK  4 active torsions:
REMARK  status: ('A' for Active; 'I' for Inactive)
REMARK    1  A    between atoms: N_6  and  C_7
REMARK    2  A    between atoms: C_7  and  C_8
REMARK    3  A    between atoms: C_11  and  N_12
REMARK    4  A    between atoms: N_12  and  C_13
REMARK                            x       y       z     vdW  Elec       q    Type
REMARK                         _______ _______ _______ _____ _____    ______ ____
ROOT
ATOM      1  N   UNL     1       1.504  10.374  18.225  0.00  0.00    +0.000 N 
ATOM      2  H   UNL     1       0.969  10.416  17.359  0.00  0.00    +0.000 HD
ENDROOT
BRANCH   1   3
ATOM      3  C   UNL     1       0.915  11.355  19.071  0.00  0.00    +0.000 A 
ATOM      4  N   UNL     1       1.519  12.564  18.917  0.00  0.00    +0.000 NA
ATOM      5  C   UNL     1       0.735  13.548  18.445  0.00  0.00    +0.000 A 
ATOM      6  N   UNL     1      -0.560  13.449  18.121  0.00  0.00    +0.000 NA
ATOM      7  C   UNL     1      -1.106  12.398  18.741  0.00  0.00    +0.000 A 
ATOM      8  S   UNL     1      -2.782  12.270  18.991  0.00  0.00    +0.000 S 
ATOM      9  C   UNL     1      -2.387  12.118  20.663  0.00  0.00    +0.000 A 
ATOM     10  C   UNL     1      -3.175  12.554  21.748  0.00  0.00    +0.000 A 
ATOM     11  C   UNL     1      -2.638  12.463  23.027  0.00  0.00    +0.000 A 
ATOM     12  C   UNL     1      -1.402  11.862  23.225  0.00  0.00    +0.000 A 
ATOM     13  C   UNL     1      -0.634  11.392  22.138  0.00  0.00    +0.000 A 
ATOM     14  C   UNL     1      -1.101  11.573  20.807  0.00  0.00    +0.000 A 
ATOM     15  C   UNL     1      -0.441  11.427  19.482  0.00  0.00    +0.000 A 
ENDBRANCH   1   3
BRANCH   1  19
ATOM     16  C   UNL     1       2.920   6.441  19.085  0.00  0.00    +0.000 A 
ATOM     17  C   UNL     1       3.213   7.061  17.862  0.00  0.00    +0.000 A 
ATOM     18  C   UNL     1       2.746   8.346  17.574  0.00  0.00    +0.000 A 
ATOM     19  C   UNL     1       1.987   9.072  18.485  0.00  0.00    +0.000 A 
ATOM     20  C   UNL     1       1.636   8.421  19.692  0.00  0.00    +0.000 A 
ATOM     21  C   UNL     1       2.106   7.127  19.993  0.00  0.00    +0.000 A 
BRANCH  16  22
ATOM     22  C   UNL     1       3.554   5.110  19.420  0.00  0.00    +0.000 C 
BRANCH  22  28
ATOM     23  O   UNL     1       1.649   3.582  17.772  0.00  0.00    +0.000 OA
ATOM     24  C   UNL     1       1.673   3.510  18.989  0.00  0.00    +0.000 C 
ATOM     25  C   UNL     1       0.669   2.769  19.838  0.00  0.00    +0.000 C 
ATOM     26  C   UNL     1       1.390   2.626  21.171  0.00  0.00    +0.000 C 
ATOM     27  C   UNL     1       2.283   3.849  21.224  0.00  0.00    +0.000 C 
ATOM     28  N   UNL     1       2.566   4.132  19.844  0.00  0.00    +0.000 N 
ENDBRANCH  22  28
ENDBRANCH  16  22
ENDBRANCH   1  19
TORSDOF 4
ENDMDL
MODEL 5
REMARK VINA RESULT:      -8.1      2.433      3.640
REMARK  Name = 
REMARK  4 active torsions:
REMARK  status: ('A' for Active; 'I' for Inactive)
REMARK    1  A    between atoms: N_6  and  C_7
REMARK    2  A    between atoms: C_7  and  C_8
REMARK    3  A    between atoms: C_11  and  N_12
REMARK    4  A    between atoms: N_12  and  C_13
REMARK                            x       y       z     vdW  Elec       q    Type
REMARK                         _______ _______ _______ _____ _____    ______ ____
ROOT
ATOM      1  N   UNL     1       1.314   9.761  18.182  0.00  0.00    +0.000 N 
ATOM      2  H   UNL     1       0.513   9.600  17.572  0.00  0.00    +0.000 HD
ENDROOT
BRANCH   1   3
ATOM      3  C   UNL     1       0.900  10.790  19.073  0.00  0.00    +0.000 A 
ATOM      4  N   UNL     1       1.706  11.881  18.972  0.00  0.00    +0.000 NA
ATOM      5  C   UNL     1       1.108  13.006  18.548  0.00  0.00    +0.000 A 
ATOM      6  N   UNL     1      -0.183  13.149  18.223  0.00  0.00    +0.000 NA
ATOM      7  C   UNL     1      -0.907  12.181  18.795  0.00  0.00    +0.000 A 
ATOM      8  S   UNL     1      -2.580  12.336  19.043  0.00  0.00    +0.000 S 
ATOM      9  C   UNL     1      -2.227  12.042  20.706  0.00  0.00    +0.000 A 
ATOM     10  C   UNL     1      -2.934  12.558  21.811  0.00  0.00    +0.000 A 
ATOM     11  C   UNL     1      -2.428  12.318  23.084  0.00  0.00    +0.000 A 
ATOM     12  C   UNL     1      -1.316  11.502  23.251  0.00  0.00    +0.000 A 
ATOM     13  C   UNL     1      -0.636  10.956  22.142  0.00  0.00    +0.000 A 
ATOM     14  C   UNL     1      -1.057  11.275  20.822  0.00  0.00    +0.000 A 
ATOM     15  C   UNL     1      -0.424  11.078  19.490  0.00  0.00    +0.000 A 
ENDBRANCH   1   3
BRANCH   1  19
ATOM     16  C   UNL     1       3.546   6.188  18.869  0.00  0.00    +0.000 A 
ATOM     17  C   UNL     1       3.748   6.953  17.712  0.00  0.00    +0.000 A 
ATOM     18  C   UNL     1       3.015   8.120  17.480  0.00  0.00    +0.000 A 
ATOM     19  C   UNL     1       2.068   8.584  18.386  0.00  0.00    +0.000 A 
ATOM     20  C   UNL     1       1.817   7.777  19.522  0.00  0.00    +0.000 A 
ATOM     21  C   UNL     1       2.555   6.601  19.767  0.00  0.00    +0.000 A 
BRANCH  16  22
ATOM     22  C   UNL     1       4.450   5.010  19.156  0.00  0.00    +0.000 C 
BRANCH  22  28
ATOM     23  O   UNL     1       4.902   2.319  20.266  0.00  0.00    +0.000 OA
ATOM     24  C   UNL     1       4.165   2.525  19.316  0.00  0.00    +0.000 C 
ATOM     25  C   UNL     1       3.501   1.457  18.482  0.00  0.00    +0.000 C 
ATOM     26  C   UNL     1       2.396   2.222  17.767  0.00  0.00    +0.000 C 
ATOM     27  C   UNL     1       2.963   3.622  17.632  0.00  0.00    +0.000 C 
ATOM     28  N   UNL     1       3.837   3.752  18.766  0.00  0.00    +0.000 N 
ENDBRANCH  22  28
ENDBRANCH  16  22
ENDBRANCH   1  19
TORSDOF 4
ENDMDL
MODEL 6
REMARK VINA RESULT:      -8.1      3.359      8.409
REMARK  Name = 
REMARK  4 active torsions:
REMARK  status: ('A' for Active; 'I' for Inactive)
REMARK    1  A    between atoms: N_6  and  C_7
REMARK    2  A    between atoms: C_7  and  C_8
REMARK    3  A    between atoms: C_11  and  N_12
REMARK    4  A    between atoms: N_12  and  C_13
REMARK                            x       y       z     vdW  Elec       q    Type
REMARK                         _______ _______ _______ _____ _____    ______ ____
ROOT
ATOM      1  N   UNL     1       2.097   6.114  20.616  0.00  0.00    +0.000 N 
ATOM      2  H   UNL     1       1.288   5.512  20.759  0.00  0.00    +0.000 HD
ENDROOT
BRANCH   1   3
ATOM      3  C   UNL     1       3.150   5.235  20.236  0.00  0.00    +0.000 A 
ATOM      4  N   UNL     1       3.040   4.035  20.868  0.00  0.00    +0.000 NA
ATOM      5  C   UNL     1       2.842   2.975  20.067  0.00  0.00    +0.000 A 
ATOM      6  N   UNL     1       2.746   2.991  18.732  0.00  0.00    +0.000 NA
ATOM      7  C   UNL     1       3.318   4.098  18.247  0.00  0.00    +0.000 A 
ATOM      8  S   UNL     1       3.847   4.206  16.636  0.00  0.00    +0.000 S 
ATOM      9  C   UNL     1       5.390   4.588  17.307  0.00  0.00    +0.000 A 
ATOM     10  C   UNL     1       6.643   4.274  16.743  0.00  0.00    +0.000 A 
ATOM     11  C   UNL     1       7.784   4.548  17.489  0.00  0.00    +0.000 A 
ATOM     12  C   UNL     1       7.682   5.207  18.707  0.00  0.00    +0.000 A 
ATOM     13  C   UNL     1       6.425   5.554  19.248  0.00  0.00    +0.000 A 
ATOM     14  C   UNL     1       5.232   5.186  18.568  0.00  0.00    +0.000 A 
ATOM     15  C   UNL     1       3.803   5.177  18.979  0.00  0.00    +0.000 A 
ENDBRANCH   1   3
BRANCH   1  19
ATOM     16  C   UNL     1       0.945  10.006  19.294  0.00  0.00    +0.000 A 
ATOM     17  C   UNL     1       1.720   9.168  18.481  0.00  0.00    +0.000 A 
ATOM     18  C   UNL     1       2.105   7.896  18.912  0.00  0.00    +0.000 A 
ATOM     19  C   UNL     1       1.727   7.397  20.153  0.00  0.00    +0.000 A 
ATOM     20  C   UNL     1       1.001   8.267  21.002  0.00  0.00    +0.000 A 
ATOM     21  C   UNL     1       0.605   9.550  20.573  0.00  0.00    +0.000 A 
BRANCH  16  22
ATOM     22  C   UNL     1       0.431  11.317  18.745  0.00  0.00    +0.000 C 
BRANCH  22  28
ATOM     23  O   UNL     1      -1.792  13.008  19.683  0.00  0.00    +0.000 OA
ATOM     24  C   UNL     1      -1.957  12.053  18.942  0.00  0.00    +0.000 C 
ATOM     25  C   UNL     1      -3.296  11.503  18.515  0.00  0.00    +0.000 C 
ATOM     26  C   UNL     1      -2.944  10.656  17.299  0.00  0.00    +0.000 C 
ATOM     27  C   UNL     1      -1.532  10.190  17.589  0.00  0.00    +0.000 C 
ATOM     28  N   UNL     1      -0.977  11.242  18.396  0.00  0.00    +0.000 N 
ENDBRANCH  22  28
ENDBRANCH  16  22
ENDBRANCH   1  19
TORSDOF 4
ENDMDL
MODEL 7
REMARK VINA RESULT:      -8.0      2.751      4.108
REMARK  Name = 
REMARK  4 active torsions:
REMARK  status: ('A' for Active; 'I' for Inactive)
REMARK    1  A    between atoms: N_6  and  C_7
REMARK    2  A    between atoms: C_7  and  C_8
REMARK    3  A    between atoms: C_11  and  N_12
REMARK    4  A    between atoms: N_12  and  C_13
REMARK                            x       y       z     vdW  Elec       q    Type
REMARK                         _______ _______ _______ _____ _____    ______ ____
ROOT
ATOM      1  N   UNL     1       1.346  10.233  18.320  0.00  0.00    +0.000 N 
ATOM      2  H   UNL     1       0.783  10.213  17.471  0.00  0.00    +0.000 HD
ENDROOT
BRANCH   1   3
ATOM      3  C   UNL     1       0.784  11.273  19.112  0.00  0.00    +0.000 A 
ATOM      4  N   UNL     1       1.412  12.458  18.884  0.00  0.00    +0.000 NA
ATOM      5  C   UNL     1       0.645  13.429  18.361  0.00  0.00    +0.000 A 
ATOM      6  N   UNL     1      -0.655  13.339  18.052  0.00  0.00    +0.000 NA
ATOM      7  C   UNL     1      -1.218  12.337  18.735  0.00  0.00    +0.000 A 
ATOM      8  S   UNL     1      -2.894  12.259  19.003  0.00  0.00    +0.000 S 
ATOM      9  C   UNL     1      -2.489  12.196  20.679  0.00  0.00    +0.000 A 
ATOM     10  C   UNL     1      -3.260  12.710  21.741  0.00  0.00    +0.000 A 
ATOM     11  C   UNL     1      -2.715  12.682  23.020  0.00  0.00    +0.000 A 
ATOM     12  C   UNL     1      -1.490  12.068  23.244  0.00  0.00    +0.000 A 
ATOM     13  C   UNL     1      -0.741  11.520  22.181  0.00  0.00    +0.000 A 
ATOM     14  C   UNL     1      -1.213  11.633  20.846  0.00  0.00    +0.000 A 
ATOM     15  C   UNL     1      -0.567  11.397  19.527  0.00  0.00    +0.000 A 
ENDBRANCH   1   3
BRANCH   1  19
ATOM     16  C   UNL     1       2.794   6.371  19.417  0.00  0.00    +0.000 A 
ATOM     17  C   UNL     1       3.029   6.892  18.137  0.00  0.00    +0.000 A 
ATOM     18  C   UNL     1       2.551   8.153  17.772  0.00  0.00    +0.000 A 
ATOM     19  C   UNL     1       1.839   8.953  18.659  0.00  0.00    +0.000 A 
ATOM     20  C   UNL     1       1.545   8.399  19.928  0.00  0.00    +0.000 A 
ATOM     21  C   UNL     1       2.026   7.130  20.307  0.00  0.00    +0.000 A 
BRANCH  16  22
ATOM     22  C   UNL     1       3.441   5.066  19.824  0.00  0.00    +0.000 C 
BRANCH  22  28
ATOM     23  O   UNL     1       0.796   3.874  20.337  0.00  0.00    +0.000 OA
ATOM     24  C   UNL     1       1.585   3.407  19.532  0.00  0.00    +0.000 C 
ATOM     25  C   UNL     1       1.409   2.100  18.797  0.00  0.00    +0.000 C 
ATOM     26  C   UNL     1       2.400   2.220  17.648  0.00  0.00    +0.000 C 
ATOM     27  C   UNL     1       3.496   3.100  18.215  0.00  0.00    +0.000 C 
ATOM     28  N   UNL     1       2.817   3.927  19.174  0.00  0.00    +0.000 N 
ENDBRANCH  22  28
ENDBRANCH  16  22
ENDBRANCH   1  19
TORSDOF 4
ENDMDL
MODEL 8
REMARK VINA RESULT:      -8.0      1.268      1.535
REMARK  Name = 
REMARK  4 active torsions:
REMARK  status: ('A' for Active; 'I' for Inactive)
REMARK    1  A    between atoms: N_6  and  C_7
REMARK    2  A    between atoms: C_7  and  C_8
REMARK    3  A    between atoms: C_11  and  N_12
REMARK    4  A    between atoms: N_12  and  C_13
REMARK                            x       y       z     vdW  Elec       q    Type
REMARK                         _______ _______ _______ _____ _____    ______ ____
ROOT
ATOM      1  N   UNL     1       0.885   7.343  21.396  0.00  0.00    +0.000 N 
ATOM      2  H   UNL     1       1.285   7.476  22.324  0.00  0.00    +0.000 HD
ENDROOT
BRANCH   1   3
ATOM      3  C   UNL     1      -0.002   8.441  21.215  0.00  0.00    +0.000 A 
ATOM      4  N   UNL     1      -0.792   8.621  22.308  0.00  0.00    +0.000 NA
ATOM      5  C   UNL     1      -0.634   9.789  22.951  0.00  0.00    +0.000 A 
ATOM      6  N   UNL     1       0.210  10.774  22.620  0.00  0.00    +0.000 NA
ATOM      7  C   UNL     1       0.552  10.667  21.331  0.00  0.00    +0.000 A 
ATOM      8  S   UNL     1       1.156  11.988  20.448  0.00  0.00    +0.000 S 
ATOM      9  C   UNL     1      -0.154  11.692  19.365  0.00  0.00    +0.000 A 
ATOM     10  C   UNL     1      -0.839  12.661  18.603  0.00  0.00    +0.000 A 
ATOM     11  C   UNL     1      -1.955  12.256  17.879  0.00  0.00    +0.000 A 
ATOM     12  C   UNL     1      -2.310  10.914  17.834  0.00  0.00    +0.000 A 
ATOM     13  C   UNL     1      -1.596   9.943  18.568  0.00  0.00    +0.000 A 
ATOM     14  C   UNL     1      -0.521  10.337  19.410  0.00  0.00    +0.000 A 
ATOM     15  C   UNL     1       0.241   9.622  20.469  0.00  0.00    +0.000 A 
ENDBRANCH   1   3
BRANCH   1  19
ATOM     16  C   UNL     1       3.613   5.351  18.787  0.00  0.00    +0.000 A 
ATOM     17  C   UNL     1       3.135   6.634  18.487  0.00  0.00    +0.000 A 
ATOM     18  C   UNL     1       2.237   7.287  19.335  0.00  0.00    +0.000 A 
ATOM     19  C   UNL     1       1.790   6.707  20.517  0.00  0.00    +0.000 A 
ATOM     20  C   UNL     1       2.221   5.386  20.787  0.00  0.00    +0.000 A 
ATOM     21  C   UNL     1       3.130   4.722  19.940  0.00  0.00    +0.000 A 
BRANCH  16  22
ATOM     22  C   UNL     1       4.687   4.731  17.922  0.00  0.00    +0.000 C 
BRANCH  22  28
ATOM     23  O   UNL     1       5.588   6.599  15.830  0.00  0.00    +0.000 OA
ATOM     24  C   UNL     1       6.252   6.352  16.823  0.00  0.00    +0.000 C 
ATOM     25  C   UNL     1       7.663   6.827  17.068  0.00  0.00    +0.000 C 
ATOM     26  C   UNL     1       7.833   6.631  18.567  0.00  0.00    +0.000 C 
ATOM     27  C   UNL     1       6.930   5.453  18.876  0.00  0.00    +0.000 C 
ATOM     28  N   UNL     1       5.891   5.545  17.888  0.00  0.00    +0.000 N 
ENDBRANCH  22  28
ENDBRANCH  16  22
ENDBRANCH   1  19
TORSDOF 4
ENDMDL
MODEL 9
REMARK VINA RESULT:      -8.0      2.435      3.582
REMARK  Name = 
REMARK  4 active torsions:
REMARK  status: ('A' for Active; 'I' for Inactive)
REMARK    1  A    between atoms: N_6  and  C_7
REMARK    2  A    between atoms: C_7  and  C_8
REMARK    3  A    between atoms: C_11  and  N_12
REMARK    4  A    between atoms: N_12  and  C_13
REMARK                            x       y       z     vdW  Elec       q    Type
REMARK                         _______ _______ _______ _____ _____    ______ ____
ROOT
ATOM      1  N   UNL     1       0.981   9.384  19.707  0.00  0.00    +0.000 N 
ATOM      2  H   UNL     1       1.007   9.477  20.722  0.00  0.00    +0.000 HD
ENDROOT
BRANCH   1   3
ATOM      3  C   UNL     1       0.732  10.698  19.222  0.00  0.00    +0.000 A 
ATOM      4  N   UNL     1      -0.416  10.743  18.492  0.00  0.00    +0.000 NA
ATOM      5  C   UNL     1      -1.389  11.524  18.990  0.00  0.00    +0.000 A 
ATOM      6  N   UNL     1      -1.332  12.248  20.114  0.00  0.00    +0.000 NA
ATOM      7  C   UNL     1      -0.057  12.472  20.449  0.00  0.00    +0.000 A 
ATOM      8  S   UNL     1       0.394  13.753  21.471  0.00  0.00    +0.000 S 
ATOM      9  C   UNL     1       1.415  14.253  20.173  0.00  0.00    +0.000 A 
ATOM     10  C   UNL     1       1.769  15.581  19.858  0.00  0.00    +0.000 A 
ATOM     11  C   UNL     1       2.501  15.806  18.697  0.00  0.00    +0.000 A 
ATOM     12  C   UNL     1       2.951  14.735  17.936  0.00  0.00    +0.000 A 
ATOM     13  C   UNL     1       2.626  13.405  18.279  0.00  0.00    +0.000 A 
ATOM     14  C   UNL     1       1.783  13.145  19.394  0.00  0.00    +0.000 A 
ATOM     15  C   UNL     1       1.072  11.921  19.853  0.00  0.00    +0.000 A 
ENDBRANCH   1   3
BRANCH   1  19
ATOM     16  C   UNL     1       3.581   6.326  18.255  0.00  0.00    +0.000 A 
ATOM     17  C   UNL     1       2.956   6.207  19.503  0.00  0.00    +0.000 A 
ATOM     18  C   UNL     1       2.109   7.209  19.986  0.00  0.00    +0.000 A 
ATOM     19  C   UNL     1       1.835   8.356  19.249  0.00  0.00    +0.000 A 
ATOM     20  C   UNL     1       2.519   8.507  18.018  0.00  0.00    +0.000 A 
ATOM     21  C   UNL     1       3.371   7.500  17.522  0.00  0.00    +0.000 A 
BRANCH  16  22
ATOM     22  C   UNL     1       4.380   5.167  17.704  0.00  0.00    +0.000 C 
BRANCH  22  28
ATOM     23  O   UNL     1       5.138   3.096  19.657  0.00  0.00    +0.000 OA
ATOM     24  C   UNL     1       4.211   2.958  18.878  0.00  0.00    +0.000 C 
ATOM     25  C   UNL     1       3.416   1.689  18.684  0.00  0.00    +0.000 C 
ATOM     26  C   UNL     1       2.162   2.178  17.974  0.00  0.00    +0.000 C 
ATOM     27  C   UNL     1       2.645   3.381  17.188  0.00  0.00    +0.000 C 
ATOM     28  N   UNL     1       3.736   3.892  17.972  0.00  0.00    +0.000 N 
ENDBRANCH  22  28
ENDBRANCH  16  22
ENDBRANCH   1  19
TORSDOF 4
ENDMDL
