MODEL 1
REMARK VINA RESULT:      -8.6      0.000      0.000
REMARK  Name = 
REMARK  6 active torsions:
REMARK  status: ('A' for Active; 'I' for Inactive)
REMARK    1  A    between atoms: C_2  and  C_3
REMARK    2  A    between atoms: C_3  and  N_4
REMARK    3  A    between atoms: C_5  and  C_6
REMARK    4  A    between atoms: N_20  and  C_21
REMARK    5  A    between atoms: C_21  and  C_22
REMARK    6  A    between atoms: C_22  and  C_23
REMARK                            x       y       z     vdW  Elec       q    Type
REMARK                         _______ _______ _______ _____ _____    ______ ____
ROOT
ATOM      1  N   UNL     1       4.260   5.830  18.160  0.00  0.00    +0.000 N 
ATOM      2  C   UNL     1       4.285   4.770  19.077  0.00  0.00    +0.000 A 
ATOM      3  N   UNL     1       5.537   4.544  19.445  0.00  0.00    +0.000 NA
ATOM      4  C   UNL     1       6.310   5.515  18.881  0.00  0.00    +0.000 A 
ATOM      5  C   UNL     1       7.678   5.777  19.055  0.00  0.00    +0.000 A 
ATOM      6  C   UNL     1       8.251   6.863  18.388  0.00  0.00    +0.000 A 
ATOM      7  C   UNL     1       7.477   7.669  17.551  0.00  0.00    +0.000 A 
ATOM      8  C   UNL     1       6.110   7.420  17.367  0.00  0.00    +0.000 A 
ATOM      9  C   UNL     1       5.550   6.333  18.055  0.00  0.00    +0.000 A 
ENDROOT
BRANCH   2  10
ATOM     10  C   UNL     1       3.126   4.034  19.645  0.00  0.00    +0.000 A 
ATOM     11  C   UNL     1       2.761   4.221  20.983  0.00  0.00    +0.000 A 
ATOM     12  C   UNL     1       1.790   3.445  21.620  0.00  0.00    +0.000 A 
ATOM     13  C   UNL     1       1.063   2.523  20.890  0.00  0.00    +0.000 A 
ATOM     14  C   UNL     1       1.303   2.401  19.523  0.00  0.00    +0.000 A 
ATOM     15  C   UNL     1       2.329   3.140  18.902  0.00  0.00    +0.000 A 
ATOM     16 CL   UNL     1       2.526   2.862  17.204  0.00  0.00    +0.000 Cl
ENDBRANCH   2  10
BRANCH   1  17
ATOM     17  C   UNL     1       3.097   6.504  17.585  0.00  0.00    +0.000 C 
BRANCH  17  19
ATOM     18  O   UNL     1       2.459   7.565  19.657  0.00  0.00    +0.000 OA
ATOM     19  C   UNL     1       2.548   7.643  18.430  0.00  0.00    +0.000 C 
ATOM     20  N   UNL     1       2.189   8.807  17.780  0.00  0.00    +0.000 N 
ATOM     21  H   UNL     1       2.705   9.053  16.944  0.00  0.00    +0.000 HD
BRANCH  20  22
ATOM     22  C   UNL     1       1.613   9.890  18.574  0.00  0.00    +0.000 C 
BRANCH  22  23
ATOM     23  C   UNL     1       0.126   9.701  18.862  0.00  0.00    +0.000 C 
BRANCH  23  24
ATOM     24  C   UNL     1      -0.180   9.967  20.314  0.00  0.00    +0.000 A 
ATOM     25  C   UNL     1      -0.148   8.932  21.246  0.00  0.00    +0.000 A 
ATOM     26  C   UNL     1      -0.444   9.219  22.577  0.00  0.00    +0.000 A 
ATOM     27  C   UNL     1      -0.753  10.524  22.943  0.00  0.00    +0.000 A 
ATOM     28  C   UNL     1      -0.748  11.495  21.957  0.00  0.00    +0.000 A 
ATOM     29  N   UNL     1      -0.467  11.247  20.655  0.00  0.00    +0.000 NA
ENDBRANCH  23  24
ENDBRANCH  22  23
ENDBRANCH  20  22
ENDBRANCH  17  19
ENDBRANCH   1  17
TORSDOF 6
ENDMDL
MODEL 2
REMARK VINA RESULT:      -8.5      0.953      1.147
REMARK  Name = 
REMARK  6 active torsions:
REMARK  status: ('A' for Active; 'I' for Inactive)
REMARK    1  A    between atoms: C_2  and  C_3
REMARK    2  A    between atoms: C_3  and  N_4
REMARK    3  A    between atoms: C_5  and  C_6
REMARK    4  A    between atoms: N_20  and  C_21
REMARK    5  A    between atoms: C_21  and  C_22
REMARK    6  A    between atoms: C_22  and  C_23
REMARK                            x       y       z     vdW  Elec       q    Type
REMARK                         _______ _______ _______ _____ _____    ______ ____
ROOT
ATOM      1  N   UNL     1       4.359   5.698  18.146  0.00  0.00    +0.000 N 
ATOM      2  C   UNL     1       4.386   4.701  19.131  0.00  0.00    +0.000 A 
ATOM      3  N   UNL     1       5.631   4.545  19.556  0.00  0.00    +0.000 NA
ATOM      4  C   UNL     1       6.391   5.506  18.957  0.00  0.00    +0.000 A 
ATOM      5  C   UNL     1       7.742   5.828  19.160  0.00  0.00    +0.000 A 
ATOM      6  C   UNL     1       8.301   6.890  18.443  0.00  0.00    +0.000 A 
ATOM      7  C   UNL     1       7.531   7.611  17.530  0.00  0.00    +0.000 A 
ATOM      8  C   UNL     1       6.181   7.301  17.316  0.00  0.00    +0.000 A 
ATOM      9  C   UNL     1       5.633   6.240  18.053  0.00  0.00    +0.000 A 
ENDROOT
BRANCH   2  10
ATOM     10  C   UNL     1       3.234   3.960  19.706  0.00  0.00    +0.000 A 
ATOM     11  C   UNL     1       2.820   4.211  21.019  0.00  0.00    +0.000 A 
ATOM     12  C   UNL     1       1.854   3.441  21.670  0.00  0.00    +0.000 A 
ATOM     13  C   UNL     1       1.181   2.455  20.973  0.00  0.00    +0.000 A 
ATOM     14  C   UNL     1       1.468   2.263  19.624  0.00  0.00    +0.000 A 
ATOM     15  C   UNL     1       2.490   2.999  18.992  0.00  0.00    +0.000 A 
ATOM     16 CL   UNL     1       2.749   2.632  17.319  0.00  0.00    +0.000 Cl
ENDBRANCH   2  10
BRANCH   1  17
ATOM     17  C   UNL     1       3.195   6.291  17.489  0.00  0.00    +0.000 C 
BRANCH  17  19
ATOM     18  O   UNL     1       2.491   8.596  17.608  0.00  0.00    +0.000 OA
ATOM     19  C   UNL     1       2.634   7.518  18.190  0.00  0.00    +0.000 C 
ATOM     20  N   UNL     1       2.239   7.380  19.505  0.00  0.00    +0.000 N 
ATOM     21  H   UNL     1       1.885   6.476  19.793  0.00  0.00    +0.000 HD
BRANCH  20  22
ATOM     22  C   UNL     1       1.745   8.565  20.205  0.00  0.00    +0.000 C 
BRANCH  22  23
ATOM     23  C   UNL     1       0.620   8.257  21.189  0.00  0.00    +0.000 C 
BRANCH  23  24
ATOM     24  C   UNL     1      -0.125   9.513  21.565  0.00  0.00    +0.000 A 
ATOM     25  C   UNL     1      -0.517   9.738  22.883  0.00  0.00    +0.000 A 
ATOM     26  C   UNL     1      -1.210  10.908  23.186  0.00  0.00    +0.000 A 
ATOM     27  C   UNL     1      -1.483  11.822  22.176  0.00  0.00    +0.000 A 
ATOM     28  C   UNL     1      -1.046  11.528  20.896  0.00  0.00    +0.000 A 
ATOM     29  N   UNL     1      -0.373  10.399  20.570  0.00  0.00    +0.000 NA
ENDBRANCH  23  24
ENDBRANCH  22  23
ENDBRANCH  20  22
ENDBRANCH  17  19
ENDBRANCH   1  17
TORSDOF 6
ENDMDL
MODEL 3
REMARK VINA RESULT:      -8.3      1.980      4.536
REMARK  Name = 
REMARK  6 active torsions:
REMARK  status: ('A' for Active; 'I' for Inactive)
REMARK    1  A    between atoms: C_2  and  C_3
REMARK    2  A    between atoms: C_3  and  N_4
REMARK    3  A    between atoms: C_5  and  C_6
REMARK    4  A    between atoms: N_20  and  C_21
REMARK    5  A    between atoms: C_21  and  C_22
REMARK    6  A    between atoms: C_22  and  C_23
REMARK                            x       y       z     vdW  Elec       q    Type
REMARK                         _______ _______ _______ _____ _____    ______ ____
ROOT
ATOM      1  N   UNL     1       3.200   4.889  18.598  0.00  0.00    +0.000 N 
ATOM      2  C   UNL     1       4.424   4.288  18.274  0.00  0.00    +0.000 A 
ATOM      3  N   UNL     1       4.683   3.330  19.152  0.00  0.00    +0.000 NA
ATOM      4  C   UNL     1       3.594   3.215  19.964  0.00  0.00    +0.000 A 
ATOM      5  C   UNL     1       3.333   2.277  20.975  0.00  0.00    +0.000 A 
ATOM      6  C   UNL     1       2.116   2.340  21.660  0.00  0.00    +0.000 A 
ATOM      7  C   UNL     1       1.180   3.328  21.352  0.00  0.00    +0.000 A 
ATOM      8  C   UNL     1       1.426   4.272  20.345  0.00  0.00    +0.000 A 
ATOM      9  C   UNL     1       2.648   4.185  19.660  0.00  0.00    +0.000 A 
ENDROOT
BRANCH   2  10
ATOM     10  C   UNL     1       5.295   4.575  17.106  0.00  0.00    +0.000 A 
ATOM     11  C   UNL     1       4.907   4.176  15.822  0.00  0.00    +0.000 A 
ATOM     12  C   UNL     1       5.747   4.271  14.711  0.00  0.00    +0.000 A 
ATOM     13  C   UNL     1       6.979   4.887  14.835  0.00  0.00    +0.000 A 
ATOM     14  C   UNL     1       7.348   5.420  16.068  0.00  0.00    +0.000 A 
ATOM     15  C   UNL     1       6.523   5.262  17.198  0.00  0.00    +0.000 A 
ATOM     16 CL   UNL     1       7.128   5.955  18.666  0.00  0.00    +0.000 Cl
ENDBRANCH   2  10
BRANCH   1  17
ATOM     17  C   UNL     1       2.457   5.898  17.844  0.00  0.00    +0.000 C 
BRANCH  17  19
ATOM     18  O   UNL     1       2.718   7.416  19.702  0.00  0.00    +0.000 OA
ATOM     19  C   UNL     1       2.336   7.243  18.542  0.00  0.00    +0.000 C 
ATOM     20  N   UNL     1       1.820   8.298  17.816  0.00  0.00    +0.000 N 
ATOM     21  H   UNL     1       1.991   8.303  16.817  0.00  0.00    +0.000 HD
BRANCH  20  22
ATOM     22  C   UNL     1       1.652   9.583  18.491  0.00  0.00    +0.000 C 
BRANCH  22  23
ATOM     23  C   UNL     1       0.189   9.970  18.691  0.00  0.00    +0.000 C 
BRANCH  23  24
ATOM     24  C   UNL     1      -0.129  10.133  20.156  0.00  0.00    +0.000 A 
ATOM     25  C   UNL     1      -0.656  11.330  20.638  0.00  0.00    +0.000 A 
ATOM     26  C   UNL     1      -0.930  11.441  22.000  0.00  0.00    +0.000 A 
ATOM     27  C   UNL     1      -0.681  10.361  22.838  0.00  0.00    +0.000 A 
ATOM     28  C   UNL     1      -0.171   9.204  22.275  0.00  0.00    +0.000 A 
ATOM     29  N   UNL     1       0.108   9.066  20.956  0.00  0.00    +0.000 NA
ENDBRANCH  23  24
ENDBRANCH  22  23
ENDBRANCH  20  22
ENDBRANCH  17  19
ENDBRANCH   1  17
TORSDOF 6
ENDMDL
MODEL 4
REMARK VINA RESULT:      -8.2      0.837      1.282
REMARK  Name = 
REMARK  6 active torsions:
REMARK  status: ('A' for Active; 'I' for Inactive)
REMARK    1  A    between atoms: C_2  and  C_3
REMARK    2  A    between atoms: C_3  and  N_4
REMARK    3  A    between atoms: C_5  and  C_6
REMARK    4  A    between atoms: N_20  and  C_21
REMARK    5  A    between atoms: C_21  and  C_22
REMARK    6  A    between atoms: C_22  and  C_23
REMARK                            x       y       z     vdW  Elec       q    Type
REMARK                         _______ _______ _______ _____ _____    ______ ____
ROOT
ATOM      1  N   UNL     1       4.336   5.654  18.112  0.00  0.00    +0.000 N 
ATOM      2  C   UNL     1       4.381   4.637  19.076  0.00  0.00    +0.000 A 
ATOM      3  N   UNL     1       5.631   4.483  19.486  0.00  0.00    +0.000 NA
ATOM      4  C   UNL     1       6.377   5.463  18.900  0.00  0.00    +0.000 A 
ATOM      5  C   UNL     1       7.727   5.793  19.098  0.00  0.00    +0.000 A 
ATOM      6  C   UNL     1       8.270   6.875  18.399  0.00  0.00    +0.000 A 
ATOM      7  C   UNL     1       7.486   7.608  17.508  0.00  0.00    +0.000 A 
ATOM      8  C   UNL     1       6.136   7.291  17.299  0.00  0.00    +0.000 A 
ATOM      9  C   UNL     1       5.605   6.210  18.019  0.00  0.00    +0.000 A 
ENDROOT
BRANCH   2  10
ATOM     10  C   UNL     1       3.241   3.874  19.645  0.00  0.00    +0.000 A 
ATOM     11  C   UNL     1       2.831   4.101  20.963  0.00  0.00    +0.000 A 
ATOM     12  C   UNL     1       1.877   3.310  21.608  0.00  0.00    +0.000 A 
ATOM     13  C   UNL     1       1.212   2.326  20.900  0.00  0.00    +0.000 A 
ATOM     14  C   UNL     1       1.495   2.158  19.546  0.00  0.00    +0.000 A 
ATOM     15  C   UNL     1       2.504   2.915  18.921  0.00  0.00    +0.000 A 
ATOM     16 CL   UNL     1       2.760   2.575  17.242  0.00  0.00    +0.000 Cl
ENDBRANCH   2  10
BRANCH   1  17
ATOM     17  C   UNL     1       3.162   6.251  17.478  0.00  0.00    +0.000 C 
BRANCH  17  19
ATOM     18  O   UNL     1       2.350   7.383  19.449  0.00  0.00    +0.000 OA
ATOM     19  C   UNL     1       2.566   7.427  18.236  0.00  0.00    +0.000 C 
ATOM     20  N   UNL     1       2.311   8.583  17.526  0.00  0.00    +0.000 N 
ATOM     21  H   UNL     1       2.916   8.792  16.741  0.00  0.00    +0.000 HD
BRANCH  20  22
ATOM     22  C   UNL     1       1.691   9.703  18.232  0.00  0.00    +0.000 C 
BRANCH  22  23
ATOM     23  C   UNL     1       0.193   9.827  17.968  0.00  0.00    +0.000 C 
BRANCH  23  24
ATOM     24  C   UNL     1      -0.482  10.621  19.057  0.00  0.00    +0.000 A 
ATOM     25  C   UNL     1      -1.559  11.455  18.763  0.00  0.00    +0.000 A 
ATOM     26  C   UNL     1      -2.150  12.177  19.798  0.00  0.00    +0.000 A 
ATOM     27  C   UNL     1      -1.660  12.043  21.092  0.00  0.00    +0.000 A 
ATOM     28  C   UNL     1      -0.597  11.182  21.299  0.00  0.00    +0.000 A 
ATOM     29  N   UNL     1       0.000  10.469  20.315  0.00  0.00    +0.000 NA
ENDBRANCH  23  24
ENDBRANCH  22  23
ENDBRANCH  20  22
ENDBRANCH  17  19
ENDBRANCH   1  17
TORSDOF 6
ENDMDL
MODEL 5
REMARK VINA RESULT:      -8.2      1.540      1.976
REMARK  Name = 
REMARK  6 active torsions:
REMARK  status: ('A' for Active; 'I' for Inactive)
REMARK    1  A    between atoms: C_2  and  C_3
REMARK    2  A    between atoms: C_3  and  N_4
REMARK    3  A    between atoms: C_5  and  C_6
REMARK    4  A    between atoms: N_20  and  C_21
REMARK    5  A    between atoms: C_21  and  C_22
REMARK    6  A    between atoms: C_22  and  C_23
REMARK                            x       y       z     vdW  Elec       q    Type
REMARK                         _______ _______ _______ _____ _____    ______ ____
ROOT
ATOM      1  N   UNL     1       4.267   5.799  18.230  0.00  0.00    +0.000 N 
ATOM      2  C   UNL     1       4.315   4.719  19.123  0.00  0.00    +0.000 A 
ATOM      3  N   UNL     1       5.575   4.499  19.469  0.00  0.00    +0.000 NA
ATOM      4  C   UNL     1       6.330   5.491  18.916  0.00  0.00    +0.000 A 
ATOM      5  C   UNL     1       7.697   5.763  19.077  0.00  0.00    +0.000 A 
ATOM      6  C   UNL     1       8.249   6.870  18.425  0.00  0.00    +0.000 A 
ATOM      7  C   UNL     1       7.456   7.685  17.617  0.00  0.00    +0.000 A 
ATOM      8  C   UNL     1       6.088   7.426  17.447  0.00  0.00    +0.000 A 
ATOM      9  C   UNL     1       5.550   6.318  18.118  0.00  0.00    +0.000 A 
ENDROOT
BRANCH   2  10
ATOM     10  C   UNL     1       3.173   3.958  19.691  0.00  0.00    +0.000 A 
ATOM     11  C   UNL     1       2.827   4.108  21.038  0.00  0.00    +0.000 A 
ATOM     12  C   UNL     1       1.874   3.308  21.671  0.00  0.00    +0.000 A 
ATOM     13  C   UNL     1       1.144   2.397  20.930  0.00  0.00    +0.000 A 
ATOM     14  C   UNL     1       1.363   2.312  19.556  0.00  0.00    +0.000 A 
ATOM     15  C   UNL     1       2.372   3.076  18.938  0.00  0.00    +0.000 A 
ATOM     16 CL   UNL     1       2.544   2.843  17.230  0.00  0.00    +0.000 Cl
ENDBRANCH   2  10
BRANCH   1  17
ATOM     17  C   UNL     1       3.089   6.472  17.686  0.00  0.00    +0.000 C 
BRANCH  17  19
ATOM     18  O   UNL     1       2.324   7.187  19.860  0.00  0.00    +0.000 OA
ATOM     19  C   UNL     1       2.406   7.426  18.654  0.00  0.00    +0.000 C 
ATOM     20  N   UNL     1       1.911   8.610  18.145  0.00  0.00    +0.000 N 
ATOM     21  H   UNL     1       2.395   9.016  17.353  0.00  0.00    +0.000 HD
BRANCH  20  22
ATOM     22  C   UNL     1       1.207   9.511  19.056  0.00  0.00    +0.000 C 
BRANCH  22  23
ATOM     23  C   UNL     1       0.728  10.794  18.382  0.00  0.00    +0.000 C 
BRANCH  23  24
ATOM     24  C   UNL     1      -0.773  10.800  18.241  0.00  0.00    +0.000 A 
ATOM     25  C   UNL     1      -1.412   9.881  17.410  0.00  0.00    +0.000 A 
ATOM     26  C   UNL     1      -2.801   9.926  17.303  0.00  0.00    +0.000 A 
ATOM     27  C   UNL     1      -3.512  10.872  18.031  0.00  0.00    +0.000 A 
ATOM     28  C   UNL     1      -2.801  11.737  18.844  0.00  0.00    +0.000 A 
ATOM     29  N   UNL     1      -1.452  11.721  18.967  0.00  0.00    +0.000 NA
ENDBRANCH  23  24
ENDBRANCH  22  23
ENDBRANCH  20  22
ENDBRANCH  17  19
ENDBRANCH   1  17
TORSDOF 6
ENDMDL
MODEL 6
REMARK VINA RESULT:      -8.1      2.476      4.995
REMARK  Name = 
REMARK  6 active torsions:
REMARK  status: ('A' for Active; 'I' for Inactive)
REMARK    1  A    between atoms: C_2  and  C_3
REMARK    2  A    between atoms: C_3  and  N_4
REMARK    3  A    between atoms: C_5  and  C_6
REMARK    4  A    between atoms: N_20  and  C_21
REMARK    5  A    between atoms: C_21  and  C_22
REMARK    6  A    between atoms: C_22  and  C_23
REMARK                            x       y       z     vdW  Elec       q    Type
REMARK                         _______ _______ _______ _____ _____    ______ ____
ROOT
ATOM      1  N   UNL     1       3.980   4.885  18.624  0.00  0.00    +0.000 N 
ATOM      2  C   UNL     1       4.382   4.017  17.599  0.00  0.00    +0.000 A 
ATOM      3  N   UNL     1       3.754   2.860  17.740  0.00  0.00    +0.000 NA
ATOM      4  C   UNL     1       2.860   3.001  18.760  0.00  0.00    +0.000 A 
ATOM      5  C   UNL     1       1.886   2.101  19.221  0.00  0.00    +0.000 A 
ATOM      6  C   UNL     1       1.052   2.487  20.275  0.00  0.00    +0.000 A 
ATOM      7  C   UNL     1       1.193   3.742  20.867  0.00  0.00    +0.000 A 
ATOM      8  C   UNL     1       2.161   4.652  20.418  0.00  0.00    +0.000 A 
ATOM      9  C   UNL     1       2.981   4.252  19.351  0.00  0.00    +0.000 A 
ENDROOT
BRANCH   2  10
ATOM     10  C   UNL     1       5.296   4.312  16.467  0.00  0.00    +0.000 A 
ATOM     11  C   UNL     1       4.814   4.307  15.153  0.00  0.00    +0.000 A 
ATOM     12  C   UNL     1       5.648   4.415  14.038  0.00  0.00    +0.000 A 
ATOM     13  C   UNL     1       6.998   4.653  14.214  0.00  0.00    +0.000 A 
ATOM     14  C   UNL     1       7.497   4.801  15.506  0.00  0.00    +0.000 A 
ATOM     15  C   UNL     1       6.662   4.624  16.626  0.00  0.00    +0.000 A 
ATOM     16 CL   UNL     1       7.430   4.812  18.167  0.00  0.00    +0.000 Cl
ENDBRANCH   2  10
BRANCH   1  17
ATOM     17  C   UNL     1       4.312   6.298  18.797  0.00  0.00    +0.000 C 
BRANCH  17  19
ATOM     18  O   UNL     1       3.623   7.416  16.772  0.00  0.00    +0.000 OA
ATOM     19  C   UNL     1       3.452   7.251  17.981  0.00  0.00    +0.000 C 
ATOM     20  N   UNL     1       2.426   7.906  18.633  0.00  0.00    +0.000 N 
ATOM     21  H   UNL     1       1.984   7.425  19.408  0.00  0.00    +0.000 HD
BRANCH  20  22
ATOM     22  C   UNL     1       1.625   8.862  17.872  0.00  0.00    +0.000 C 
BRANCH  22  23
ATOM     23  C   UNL     1       1.289  10.126  18.659  0.00  0.00    +0.000 C 
BRANCH  23  24
ATOM     24  C   UNL     1      -0.150  10.524  18.450  0.00  0.00    +0.000 A 
ATOM     25  C   UNL     1      -0.975   9.786  17.603  0.00  0.00    +0.000 A 
ATOM     26  C   UNL     1      -2.297  10.192  17.432  0.00  0.00    +0.000 A 
ATOM     27  C   UNL     1      -2.761  11.311  18.113  0.00  0.00    +0.000 A 
ATOM     28  C   UNL     1      -1.881  11.979  18.946  0.00  0.00    +0.000 A 
ATOM     29  N   UNL     1      -0.590  11.611  19.130  0.00  0.00    +0.000 NA
ENDBRANCH  23  24
ENDBRANCH  22  23
ENDBRANCH  20  22
ENDBRANCH  17  19
ENDBRANCH   1  17
TORSDOF 6
ENDMDL
MODEL 7
REMARK VINA RESULT:      -8.1      2.303      4.762
REMARK  Name = 
REMARK  6 active torsions:
REMARK  status: ('A' for Active; 'I' for Inactive)
REMARK    1  A    between atoms: C_2  and  C_3
REMARK    2  A    between atoms: C_3  and  N_4
REMARK    3  A    between atoms: C_5  and  C_6
REMARK    4  A    between atoms: N_20  and  C_21
REMARK    5  A    between atoms: C_21  and  C_22
REMARK    6  A    between atoms: C_22  and  C_23
REMARK                            x       y       z     vdW  Elec       q    Type
REMARK                         _______ _______ _______ _____ _____    ______ ____
ROOT
ATOM      1  N   UNL     1       4.092   4.870  18.772  0.00  0.00    +0.000 N 
ATOM      2  C   UNL     1       4.476   3.995  17.746  0.00  0.00    +0.000 A 
ATOM      3  N   UNL     1       3.882   2.825  17.928  0.00  0.00    +0.000 NA
ATOM      4  C   UNL     1       3.025   2.962  18.980  0.00  0.00    +0.000 A 
ATOM      5  C   UNL     1       2.092   2.047  19.492  0.00  0.00    +0.000 A 
ATOM      6  C   UNL     1       1.290   2.430  20.572  0.00  0.00    +0.000 A 
ATOM      7  C   UNL     1       1.422   3.698  21.138  0.00  0.00    +0.000 A 
ATOM      8  C   UNL     1       2.350   4.622  20.638  0.00  0.00    +0.000 A 
ATOM      9  C   UNL     1       3.138   4.225  19.547  0.00  0.00    +0.000 A 
ENDROOT
BRANCH   2  10
ATOM     10  C   UNL     1       5.339   4.293  16.574  0.00  0.00    +0.000 A 
ATOM     11  C   UNL     1       4.802   4.279  15.282  0.00  0.00    +0.000 A 
ATOM     12  C   UNL     1       5.586   4.390  14.133  0.00  0.00    +0.000 A 
ATOM     13  C   UNL     1       6.941   4.640  14.250  0.00  0.00    +0.000 A 
ATOM     14  C   UNL     1       7.493   4.796  15.519  0.00  0.00    +0.000 A 
ATOM     15  C   UNL     1       6.707   4.617  16.674  0.00  0.00    +0.000 A 
ATOM     16 CL   UNL     1       7.539   4.817  18.181  0.00  0.00    +0.000 Cl
ENDBRANCH   2  10
BRANCH   1  17
ATOM     17  C   UNL     1       4.396   6.293  18.910  0.00  0.00    +0.000 C 
BRANCH  17  19
ATOM     18  O   UNL     1       3.819   7.413  16.851  0.00  0.00    +0.000 OA
ATOM     19  C   UNL     1       3.549   7.205  18.036  0.00  0.00    +0.000 C 
ATOM     20  N   UNL     1       2.423   7.770  18.602  0.00  0.00    +0.000 N 
ATOM     21  H   UNL     1       1.948   7.240  19.322  0.00  0.00    +0.000 HD
BRANCH  20  22
ATOM     22  C   UNL     1       1.629   8.688  17.788  0.00  0.00    +0.000 C 
BRANCH  22  23
ATOM     23  C   UNL     1       1.785  10.149  18.204  0.00  0.00    +0.000 C 
BRANCH  23  24
ATOM     24  C   UNL     1       1.050  10.423  19.491  0.00  0.00    +0.000 A 
ATOM     25  C   UNL     1       0.912  11.726  19.966  0.00  0.00    +0.000 A 
ATOM     26  C   UNL     1       0.232  11.935  21.164  0.00  0.00    +0.000 A 
ATOM     27  C   UNL     1      -0.297  10.848  21.848  0.00  0.00    +0.000 A 
ATOM     28  C   UNL     1      -0.128   9.589  21.300  0.00  0.00    +0.000 A 
ATOM     29  N   UNL     1       0.530   9.353  20.140  0.00  0.00    +0.000 NA
ENDBRANCH  23  24
ENDBRANCH  22  23
ENDBRANCH  20  22
ENDBRANCH  17  19
ENDBRANCH   1  17
TORSDOF 6
ENDMDL
MODEL 8
REMARK VINA RESULT:      -8.1      1.478      4.558
REMARK  Name = 
REMARK  6 active torsions:
REMARK  status: ('A' for Active; 'I' for Inactive)
REMARK    1  A    between atoms: C_2  and  C_3
REMARK    2  A    between atoms: C_3  and  N_4
REMARK    3  A    between atoms: C_5  and  C_6
REMARK    4  A    between atoms: N_20  and  C_21
REMARK    5  A    between atoms: C_21  and  C_22
REMARK    6  A    between atoms: C_22  and  C_23
REMARK                            x       y       z     vdW  Elec       q    Type
REMARK                         _______ _______ _______ _____ _____    ______ ____
ROOT
ATOM      1  N   UNL     1       3.452   5.191  19.401  0.00  0.00    +0.000 N 
ATOM      2  C   UNL     1       4.622   4.809  18.730  0.00  0.00    +0.000 A 
ATOM      3  N   UNL     1       4.482   3.570  18.284  0.00  0.00    +0.000 NA
ATOM      4  C   UNL     1       3.200   3.185  18.543  0.00  0.00    +0.000 A 
ATOM      5  C   UNL     1       2.531   2.009  18.170  0.00  0.00    +0.000 A 
ATOM      6  C   UNL     1       1.188   1.850  18.527  0.00  0.00    +0.000 A 
ATOM      7  C   UNL     1       0.527   2.840  19.254  0.00  0.00    +0.000 A 
ATOM      8  C   UNL     1       1.182   4.020  19.635  0.00  0.00    +0.000 A 
ATOM      9  C   UNL     1       2.525   4.167  19.256  0.00  0.00    +0.000 A 
ENDROOT
BRANCH   2  10
ATOM     10  C   UNL     1       5.825   5.637  18.459  0.00  0.00    +0.000 A 
ATOM     11  C   UNL     1       6.937   5.561  19.305  0.00  0.00    +0.000 A 
ATOM     12  C   UNL     1       8.030   6.424  19.201  0.00  0.00    +0.000 A 
ATOM     13  C   UNL     1       8.092   7.328  18.157  0.00  0.00    +0.000 A 
ATOM     14  C   UNL     1       7.067   7.344  17.214  0.00  0.00    +0.000 A 
ATOM     15  C   UNL     1       5.938   6.515  17.362  0.00  0.00    +0.000 A 
ATOM     16 CL   UNL     1       4.735   6.665  16.125  0.00  0.00    +0.000 Cl
ENDBRANCH   2  10
BRANCH   1  17
ATOM     17  C   UNL     1       3.106   6.503  19.944  0.00  0.00    +0.000 C 
BRANCH  17  19
ATOM     18  O   UNL     1       2.097   7.059  17.823  0.00  0.00    +0.000 OA
ATOM     19  C   UNL     1       2.366   7.411  18.974  0.00  0.00    +0.000 C 
ATOM     20  N   UNL     1       1.954   8.644  19.437  0.00  0.00    +0.000 N 
ATOM     21  H   UNL     1       1.717   8.717  20.419  0.00  0.00    +0.000 HD
BRANCH  20  22
ATOM     22  C   UNL     1       1.287   9.545  18.500  0.00  0.00    +0.000 C 
BRANCH  22  23
ATOM     23  C   UNL     1      -0.166   9.831  18.870  0.00  0.00    +0.000 C 
BRANCH  23  24
ATOM     24  C   UNL     1      -0.313  10.027  20.358  0.00  0.00    +0.000 A 
ATOM     25  C   UNL     1      -0.425  11.308  20.897  0.00  0.00    +0.000 A 
ATOM     26  C   UNL     1      -0.553  11.445  22.278  0.00  0.00    +0.000 A 
ATOM     27  C   UNL     1      -0.575  10.309  23.079  0.00  0.00    +0.000 A 
ATOM     28  C   UNL     1      -0.473   9.075  22.461  0.00  0.00    +0.000 A 
ATOM     29  N   UNL     1      -0.345   8.909  21.123  0.00  0.00    +0.000 NA
ENDBRANCH  23  24
ENDBRANCH  22  23
ENDBRANCH  20  22
ENDBRANCH  17  19
ENDBRANCH   1  17
TORSDOF 6
ENDMDL
MODEL 9
REMARK VINA RESULT:      -8.0      1.477      2.174
REMARK  Name = 
REMARK  6 active torsions:
REMARK  status: ('A' for Active; 'I' for Inactive)
REMARK    1  A    between atoms: C_2  and  C_3
REMARK    2  A    between atoms: C_3  and  N_4
REMARK    3  A    between atoms: C_5  and  C_6
REMARK    4  A    between atoms: N_20  and  C_21
REMARK    5  A    between atoms: C_21  and  C_22
REMARK    6  A    between atoms: C_22  and  C_23
REMARK                            x       y       z     vdW  Elec       q    Type
REMARK                         _______ _______ _______ _____ _____    ______ ____
ROOT
ATOM      1  N   UNL     1       4.214   5.785  18.138  0.00  0.00    +0.000 N 
ATOM      2  C   UNL     1       4.299   4.725  19.051  0.00  0.00    +0.000 A 
ATOM      3  N   UNL     1       5.567   4.544  19.388  0.00  0.00    +0.000 NA
ATOM      4  C   UNL     1       6.291   5.543  18.808  0.00  0.00    +0.000 A 
ATOM      5  C   UNL     1       7.652   5.854  18.950  0.00  0.00    +0.000 A 
ATOM      6  C   UNL     1       8.169   6.962  18.272  0.00  0.00    +0.000 A 
ATOM      7  C   UNL     1       7.347   7.741  17.458  0.00  0.00    +0.000 A 
ATOM      8  C   UNL     1       5.985   7.443  17.306  0.00  0.00    +0.000 A 
ATOM      9  C   UNL     1       5.482   6.335  18.004  0.00  0.00    +0.000 A 
ENDROOT
BRANCH   2  10
ATOM     10  C   UNL     1       3.182   3.946  19.644  0.00  0.00    +0.000 A 
ATOM     11  C   UNL     1       2.576   4.376  20.830  0.00  0.00    +0.000 A 
ATOM     12  C   UNL     1       1.636   3.610  21.523  0.00  0.00    +0.000 A 
ATOM     13  C   UNL     1       1.183   2.424  20.977  0.00  0.00    +0.000 A 
ATOM     14  C   UNL     1       1.662   2.026  19.730  0.00  0.00    +0.000 A 
ATOM     15  C   UNL     1       2.658   2.771  19.069  0.00  0.00    +0.000 A 
ATOM     16 CL   UNL     1       3.172   2.138  17.541  0.00  0.00    +0.000 Cl
ENDBRANCH   2  10
BRANCH   1  17
ATOM     17  C   UNL     1       3.014   6.419  17.593  0.00  0.00    +0.000 C 
BRANCH  17  19
ATOM     18  O   UNL     1       2.543   7.676  19.599  0.00  0.00    +0.000 OA
ATOM     19  C   UNL     1       2.540   7.639  18.367  0.00  0.00    +0.000 C 
ATOM     20  N   UNL     1       2.140   8.743  17.640  0.00  0.00    +0.000 N 
ATOM     21  H   UNL     1       2.593   8.902  16.748  0.00  0.00    +0.000 HD
BRANCH  20  22
ATOM     22  C   UNL     1       1.635   9.903  18.371  0.00  0.00    +0.000 C 
BRANCH  22  23
ATOM     23  C   UNL     1       0.366   9.608  19.166  0.00  0.00    +0.000 C 
BRANCH  23  24
ATOM     24  C   UNL     1      -0.846  10.183  18.478  0.00  0.00    +0.000 A 
ATOM     25  C   UNL     1      -1.589  11.198  19.079  0.00  0.00    +0.000 A 
ATOM     26  C   UNL     1      -2.706  11.697  18.412  0.00  0.00    +0.000 A 
ATOM     27  C   UNL     1      -3.046  11.181  17.167  0.00  0.00    +0.000 A 
ATOM     28  C   UNL     1      -2.246  10.185  16.635  0.00  0.00    +0.000 A 
ATOM     29  N   UNL     1      -1.156   9.678  17.259  0.00  0.00    +0.000 NA
ENDBRANCH  23  24
ENDBRANCH  22  23
ENDBRANCH  20  22
ENDBRANCH  17  19
ENDBRANCH   1  17
TORSDOF 6
ENDMDL
