MODEL 1
REMARK VINA RESULT:      -8.9      0.000      0.000
REMARK  Name = 
REMARK  5 active torsions:
REMARK  status: ('A' for Active; 'I' for Inactive)
REMARK    1  A    between atoms: C_2  and  C_4
REMARK    2  A    between atoms: C_8  and  C_9
REMARK    3  A    between atoms: C_9  and  N_10
REMARK    4  A    between atoms: N_10  and  C_11
REMARK    5  A    between atoms: N_19  and  C_20
REMARK                            x       y       z     vdW  Elec       q    Type
REMARK                         _______ _______ _______ _____ _____    ______ ____
ROOT
ATOM      1  C   UNL     1       7.594   7.065  17.995  0.00  0.00    +0.000 A 
ATOM      2  N   UNL     1       8.161   6.417  19.044  0.00  0.00    +0.000 NA
ATOM      3  C   UNL     1       7.484   5.402  19.620  0.00  0.00    +0.000 A 
ATOM      4  N   UNL     1       6.270   4.922  19.300  0.00  0.00    +0.000 NA
ATOM      5  C   UNL     1       5.734   5.579  18.249  0.00  0.00    +0.000 A 
ATOM      6  C   UNL     1       6.332   6.617  17.550  0.00  0.00    +0.000 A 
ATOM      7  N   UNL     1       5.549   7.015  16.490  0.00  0.00    +0.000 NA
ATOM      8  C   UNL     1       4.499   6.223  16.540  0.00  0.00    +0.000 A 
ATOM      9  N   UNL     1       4.534   5.335  17.600  0.00  0.00    +0.000 N 
ENDROOT
BRANCH   9  10
ATOM     10  C   UNL     1       3.532   4.379  17.927  0.00  0.00    +0.000 A 
ATOM     11  C   UNL     1       2.397   4.767  18.654  0.00  0.00    +0.000 A 
ATOM     12  C   UNL     1       1.399   3.834  18.948  0.00  0.00    +0.000 A 
ATOM     13  C   UNL     1       1.542   2.506  18.549  0.00  0.00    +0.000 A 
ATOM     14  C   UNL     1       2.678   2.109  17.851  0.00  0.00    +0.000 A 
ATOM     15  C   UNL     1       3.668   3.042  17.529  0.00  0.00    +0.000 A 
ENDBRANCH   9  10
BRANCH   1  16
ATOM     16  N   UNL     1       8.231   8.148  17.395  0.00  0.00    +0.000 N 
ATOM     17  H   UNL     1       9.243   8.039  17.428  0.00  0.00    +0.000 HD
BRANCH  16  18
ATOM     18  C   UNL     1       7.737   9.471  17.727  0.00  0.00    +0.000 C 
BRANCH  18  23
ATOM     19  C   UNL     1      10.578  11.999  18.208  0.00  0.00    +0.000 A 
ATOM     20  C   UNL     1      10.868  11.823  19.567  0.00  0.00    +0.000 A 
ATOM     21  C   UNL     1      10.183  10.859  20.307  0.00  0.00    +0.000 A 
ATOM     22  C   UNL     1       9.193  10.084  19.701  0.00  0.00    +0.000 A 
ATOM     23  C   UNL     1       8.868  10.266  18.347  0.00  0.00    +0.000 A 
ATOM     24  C   UNL     1       9.578  11.221  17.604  0.00  0.00    +0.000 A 
BRANCH  19  26
ATOM     25  N   UNL     1      12.333  12.639  16.632  0.00  0.00    +0.000 N 
ATOM     26  C   UNL     1      11.265  13.034  17.390  0.00  0.00    +0.000 C 
ATOM     27  O   UNL     1      10.880  14.197  17.368  0.00  0.00    +0.000 OA
ATOM     28  H   UNL     1      12.742  13.341  16.027  0.00  0.00    +0.000 HD
ATOM     29  H   UNL     1      12.541  11.671  16.436  0.00  0.00    +0.000 HD
ENDBRANCH  19  26
ENDBRANCH  18  23
ENDBRANCH  16  18
ENDBRANCH   1  16
TORSDOF 5
ENDMDL
MODEL 2
REMARK VINA RESULT:      -8.8      0.681      1.150
REMARK  Name = 
REMARK  5 active torsions:
REMARK  status: ('A' for Active; 'I' for Inactive)
REMARK    1  A    between atoms: C_2  and  C_4
REMARK    2  A    between atoms: C_8  and  C_9
REMARK    3  A    between atoms: C_9  and  N_10
REMARK    4  A    between atoms: N_10  and  C_11
REMARK    5  A    between atoms: N_19  and  C_20
REMARK                            x       y       z     vdW  Elec       q    Type
REMARK                         _______ _______ _______ _____ _____    ______ ____
ROOT
ATOM      1  C   UNL     1       7.642   7.202  17.976  0.00  0.00    +0.000 A 
ATOM      2  N   UNL     1       8.183   6.562  19.043  0.00  0.00    +0.000 NA
ATOM      3  C   UNL     1       7.516   5.518  19.578  0.00  0.00    +0.000 A 
ATOM      4  N   UNL     1       6.334   5.002  19.199  0.00  0.00    +0.000 NA
ATOM      5  C   UNL     1       5.824   5.652  18.130  0.00  0.00    +0.000 A 
ATOM      6  C   UNL     1       6.417   6.717  17.470  0.00  0.00    +0.000 A 
ATOM      7  N   UNL     1       5.669   7.101  16.379  0.00  0.00    +0.000 NA
ATOM      8  C   UNL     1       4.646   6.274  16.374  0.00  0.00    +0.000 A 
ATOM      9  N   UNL     1       4.663   5.376  17.426  0.00  0.00    +0.000 N 
ENDROOT
BRANCH   9  10
ATOM     10  C   UNL     1       3.681   4.383  17.698  0.00  0.00    +0.000 A 
ATOM     11  C   UNL     1       4.004   3.022  17.581  0.00  0.00    +0.000 A 
ATOM     12  C   UNL     1       3.048   2.046  17.878  0.00  0.00    +0.000 A 
ATOM     13  C   UNL     1       1.760   2.419  18.260  0.00  0.00    +0.000 A 
ATOM     14  C   UNL     1       1.427   3.768  18.352  0.00  0.00    +0.000 A 
ATOM     15  C   UNL     1       2.385   4.749  18.082  0.00  0.00    +0.000 A 
ENDBRANCH   9  10
BRANCH   1  16
ATOM     16  N   UNL     1       8.268   8.313  17.416  0.00  0.00    +0.000 N 
ATOM     17  H   UNL     1       9.281   8.205  17.428  0.00  0.00    +0.000 HD
BRANCH  16  18
ATOM     18  C   UNL     1       7.778   9.618  17.815  0.00  0.00    +0.000 C 
BRANCH  18  23
ATOM     19  C   UNL     1      10.599  12.194  18.128  0.00  0.00    +0.000 A 
ATOM     20  C   UNL     1      11.001  11.993  19.455  0.00  0.00    +0.000 A 
ATOM     21  C   UNL     1      10.396  10.999  20.224  0.00  0.00    +0.000 A 
ATOM     22  C   UNL     1       9.375  10.218  19.680  0.00  0.00    +0.000 A 
ATOM     23  C   UNL     1       8.940  10.422  18.362  0.00  0.00    +0.000 A 
ATOM     24  C   UNL     1       9.569  11.409  17.587  0.00  0.00    +0.000 A 
BRANCH  19  26
ATOM     25  N   UNL     1      10.447  14.380  17.046  0.00  0.00    +0.000 N 
ATOM     26  C   UNL     1      11.199  13.262  17.283  0.00  0.00    +0.000 C 
ATOM     27  O   UNL     1      12.333  13.164  16.832  0.00  0.00    +0.000 OA
ATOM     28  H   UNL     1      10.898  15.126  16.531  0.00  0.00    +0.000 HD
ATOM     29  H   UNL     1       9.619  14.608  17.575  0.00  0.00    +0.000 HD
ENDBRANCH  19  26
ENDBRANCH  18  23
ENDBRANCH  16  18
ENDBRANCH   1  16
TORSDOF 5
ENDMDL
MODEL 3
REMARK VINA RESULT:      -8.1      5.546      7.646
REMARK  Name = 
REMARK  5 active torsions:
REMARK  status: ('A' for Active; 'I' for Inactive)
REMARK    1  A    between atoms: C_2  and  C_4
REMARK    2  A    between atoms: C_8  and  C_9
REMARK    3  A    between atoms: C_9  and  N_10
REMARK    4  A    between atoms: N_10  and  C_11
REMARK    5  A    between atoms: N_19  and  C_20
REMARK                            x       y       z     vdW  Elec       q    Type
REMARK                         _______ _______ _______ _____ _____    ______ ____
ROOT
ATOM      1  C   UNL     1       4.475   3.934  17.220  0.00  0.00    +0.000 A 
ATOM      2  N   UNL     1       3.631   3.061  17.825  0.00  0.00    +0.000 NA
ATOM      3  C   UNL     1       2.603   3.550  18.548  0.00  0.00    +0.000 A 
ATOM      4  N   UNL     1       2.283   4.835  18.778  0.00  0.00    +0.000 NA
ATOM      5  C   UNL     1       3.133   5.681  18.157  0.00  0.00    +0.000 A 
ATOM      6  C   UNL     1       4.209   5.313  17.364  0.00  0.00    +0.000 A 
ATOM      7  N   UNL     1       4.827   6.418  16.825  0.00  0.00    +0.000 NA
ATOM      8  C   UNL     1       4.130   7.439  17.276  0.00  0.00    +0.000 A 
ATOM      9  N   UNL     1       3.093   7.066  18.113  0.00  0.00    +0.000 N 
ENDROOT
BRANCH   9  10
ATOM     10  C   UNL     1       2.188   7.944  18.770  0.00  0.00    +0.000 A 
ATOM     11  C   UNL     1       1.904   7.772  20.134  0.00  0.00    +0.000 A 
ATOM     12  C   UNL     1       1.038   8.654  20.787  0.00  0.00    +0.000 A 
ATOM     13  C   UNL     1       0.427   9.689  20.080  0.00  0.00    +0.000 A 
ATOM     14  C   UNL     1       0.685   9.848  18.722  0.00  0.00    +0.000 A 
ATOM     15  C   UNL     1       1.570   8.987  18.068  0.00  0.00    +0.000 A 
ENDBRANCH   9  10
BRANCH   1  16
ATOM     16  N   UNL     1       5.578   3.481  16.501  0.00  0.00    +0.000 N 
ATOM     17  H   UNL     1       5.942   2.616  16.898  0.00  0.00    +0.000 HD
BRANCH  16  18
ATOM     18  C   UNL     1       6.578   4.466  16.136  0.00  0.00    +0.000 C 
BRANCH  18  23
ATOM     19  C   UNL     1       6.240   3.489  12.444  0.00  0.00    +0.000 A 
ATOM     20  C   UNL     1       7.118   4.400  11.843  0.00  0.00    +0.000 A 
ATOM     21  C   UNL     1       7.849   5.288  12.632  0.00  0.00    +0.000 A 
ATOM     22  C   UNL     1       7.691   5.285  14.019  0.00  0.00    +0.000 A 
ATOM     23  C   UNL     1       6.795   4.400  14.637  0.00  0.00    +0.000 A 
ATOM     24  C   UNL     1       6.080   3.494  13.839  0.00  0.00    +0.000 A 
BRANCH  19  26
ATOM     25  N   UNL     1       5.923   1.291  11.423  0.00  0.00    +0.000 N 
ATOM     26  C   UNL     1       5.420   2.545  11.638  0.00  0.00    +0.000 C 
ATOM     27  O   UNL     1       4.321   2.861  11.199  0.00  0.00    +0.000 OA
ATOM     28  H   UNL     1       5.321   0.640  10.934  0.00  0.00    +0.000 HD
ATOM     29  H   UNL     1       6.698   0.912  11.947  0.00  0.00    +0.000 HD
ENDBRANCH  19  26
ENDBRANCH  18  23
ENDBRANCH  16  18
ENDBRANCH   1  16
TORSDOF 5
ENDMDL
MODEL 4
REMARK VINA RESULT:      -7.9      5.258      7.583
REMARK  Name = 
REMARK  5 active torsions:
REMARK  status: ('A' for Active; 'I' for Inactive)
REMARK    1  A    between atoms: C_2  and  C_4
REMARK    2  A    between atoms: C_8  and  C_9
REMARK    3  A    between atoms: C_9  and  N_10
REMARK    4  A    between atoms: N_10  and  C_11
REMARK    5  A    between atoms: N_19  and  C_20
REMARK                            x       y       z     vdW  Elec       q    Type
REMARK                         _______ _______ _______ _____ _____    ______ ____
ROOT
ATOM      1  C   UNL     1       3.856   5.118  19.073  0.00  0.00    +0.000 A 
ATOM      2  N   UNL     1       3.700   3.781  19.236  0.00  0.00    +0.000 NA
ATOM      3  C   UNL     1       4.095   2.957  18.244  0.00  0.00    +0.000 A 
ATOM      4  N   UNL     1       4.636   3.281  17.058  0.00  0.00    +0.000 NA
ATOM      5  C   UNL     1       4.788   4.617  16.926  0.00  0.00    +0.000 A 
ATOM      6  C   UNL     1       4.452   5.570  17.875  0.00  0.00    +0.000 A 
ATOM      7  N   UNL     1       4.802   6.833  17.454  0.00  0.00    +0.000 NA
ATOM      8  C   UNL     1       5.351   6.646  16.273  0.00  0.00    +0.000 A 
ATOM      9  N   UNL     1       5.358   5.321  15.877  0.00  0.00    +0.000 N 
ENDROOT
BRANCH   9  10
ATOM     10  C   UNL     1       5.859   4.817  14.644  0.00  0.00    +0.000 A 
ATOM     11  C   UNL     1       5.064   3.975  13.852  0.00  0.00    +0.000 A 
ATOM     12  C   UNL     1       5.545   3.504  12.627  0.00  0.00    +0.000 A 
ATOM     13  C   UNL     1       6.828   3.842  12.201  0.00  0.00    +0.000 A 
ATOM     14  C   UNL     1       7.631   4.655  12.995  0.00  0.00    +0.000 A 
ATOM     15  C   UNL     1       7.148   5.152  14.209  0.00  0.00    +0.000 A 
ENDBRANCH   9  10
BRANCH   1  16
ATOM     16  N   UNL     1       3.422   6.014  20.047  0.00  0.00    +0.000 N 
ATOM     17  H   UNL     1       4.020   5.973  20.871  0.00  0.00    +0.000 HD
BRANCH  16  18
ATOM     18  C   UNL     1       1.998   6.060  20.315  0.00  0.00    +0.000 C 
BRANCH  18  23
ATOM     19  C   UNL     1       0.558   9.491  21.236  0.00  0.00    +0.000 A 
ATOM     20  C   UNL     1       0.820  10.215  20.065  0.00  0.00    +0.000 A 
ATOM     21  C   UNL     1       1.412   9.583  18.972  0.00  0.00    +0.000 A 
ATOM     22  C   UNL     1       1.764   8.235  19.049  0.00  0.00    +0.000 A 
ATOM     23  C   UNL     1       1.536   7.500  20.223  0.00  0.00    +0.000 A 
ATOM     24  C   UNL     1       0.919   8.137  21.310  0.00  0.00    +0.000 A 
BRANCH  19  26
ATOM     25  N   UNL     1      -0.622   9.318  23.369  0.00  0.00    +0.000 N 
ATOM     26  C   UNL     1      -0.046  10.133  22.434  0.00  0.00    +0.000 C 
ATOM     27  O   UNL     1      -0.010  11.346  22.600  0.00  0.00    +0.000 OA
ATOM     28  H   UNL     1      -0.963   9.766  24.211  0.00  0.00    +0.000 HD
ATOM     29  H   UNL     1      -0.474   8.320  23.395  0.00  0.00    +0.000 HD
ENDBRANCH  19  26
ENDBRANCH  18  23
ENDBRANCH  16  18
ENDBRANCH   1  16
TORSDOF 5
ENDMDL
MODEL 5
REMARK VINA RESULT:      -7.9      1.692      2.175
REMARK  Name = 
REMARK  5 active torsions:
REMARK  status: ('A' for Active; 'I' for Inactive)
REMARK    1  A    between atoms: C_2  and  C_4
REMARK    2  A    between atoms: C_8  and  C_9
REMARK    3  A    between atoms: C_9  and  N_10
REMARK    4  A    between atoms: N_10  and  C_11
REMARK    5  A    between atoms: N_19  and  C_20
REMARK                            x       y       z     vdW  Elec       q    Type
REMARK                         _______ _______ _______ _____ _____    ______ ____
ROOT
ATOM      1  C   UNL     1       7.710   7.408  18.176  0.00  0.00    +0.000 A 
ATOM      2  N   UNL     1       8.319   6.615  19.092  0.00  0.00    +0.000 NA
ATOM      3  C   UNL     1       7.710   5.472  19.465  0.00  0.00    +0.000 A 
ATOM      4  N   UNL     1       6.527   4.985  19.053  0.00  0.00    +0.000 NA
ATOM      5  C   UNL     1       5.947   5.789  18.136  0.00  0.00    +0.000 A 
ATOM      6  C   UNL     1       6.476   6.973  17.645  0.00  0.00    +0.000 A 
ATOM      7  N   UNL     1       5.667   7.510  16.670  0.00  0.00    +0.000 NA
ATOM      8  C   UNL     1       4.668   6.659  16.565  0.00  0.00    +0.000 A 
ATOM      9  N   UNL     1       4.762   5.595  17.444  0.00  0.00    +0.000 N 
ENDROOT
BRANCH   9  10
ATOM     10  C   UNL     1       3.823   4.535  17.581  0.00  0.00    +0.000 A 
ATOM     11  C   UNL     1       4.245   3.202  17.465  0.00  0.00    +0.000 A 
ATOM     12  C   UNL     1       3.328   2.159  17.631  0.00  0.00    +0.000 A 
ATOM     13  C   UNL     1       1.986   2.439  17.879  0.00  0.00    +0.000 A 
ATOM     14  C   UNL     1       1.557   3.760  17.969  0.00  0.00    +0.000 A 
ATOM     15  C   UNL     1       2.472   4.807  17.832  0.00  0.00    +0.000 A 
ENDBRANCH   9  10
BRANCH   1  16
ATOM     16  N   UNL     1       8.276   8.621  17.790  0.00  0.00    +0.000 N 
ATOM     17  H   UNL     1       8.797   8.520  16.921  0.00  0.00    +0.000 HD
BRANCH  16  18
ATOM     18  C   UNL     1       8.934   9.400  18.822  0.00  0.00    +0.000 C 
BRANCH  18  23
ATOM     19  C   UNL     1       8.686  13.037  17.634  0.00  0.00    +0.000 A 
ATOM     20  C   UNL     1      10.022  13.304  17.307  0.00  0.00    +0.000 A 
ATOM     21  C   UNL     1      10.983  12.300  17.423  0.00  0.00    +0.000 A 
ATOM     22  C   UNL     1      10.620  11.034  17.886  0.00  0.00    +0.000 A 
ATOM     23  C   UNL     1       9.293  10.755  18.246  0.00  0.00    +0.000 A 
ATOM     24  C   UNL     1       8.328  11.764  18.105  0.00  0.00    +0.000 A 
BRANCH  19  26
ATOM     25  N   UNL     1       8.046  15.389  17.454  0.00  0.00    +0.000 N 
ATOM     26  C   UNL     1       7.636  14.087  17.552  0.00  0.00    +0.000 C 
ATOM     27  O   UNL     1       6.444  13.806  17.545  0.00  0.00    +0.000 OA
ATOM     28  H   UNL     1       7.320  16.082  17.326  0.00  0.00    +0.000 HD
ATOM     29  H   UNL     1       8.993  15.651  17.224  0.00  0.00    +0.000 HD
ENDBRANCH  19  26
ENDBRANCH  18  23
ENDBRANCH  16  18
ENDBRANCH   1  16
TORSDOF 5
ENDMDL
MODEL 6
REMARK VINA RESULT:      -7.8      5.944      7.915
REMARK  Name = 
REMARK  5 active torsions:
REMARK  status: ('A' for Active; 'I' for Inactive)
REMARK    1  A    between atoms: C_2  and  C_4
REMARK    2  A    between atoms: C_8  and  C_9
REMARK    3  A    between atoms: C_9  and  N_10
REMARK    4  A    between atoms: N_10  and  C_11
REMARK    5  A    between atoms: N_19  and  C_20
REMARK                            x       y       z     vdW  Elec       q    Type
REMARK                         _______ _______ _______ _____ _____    ______ ____
ROOT
ATOM      1  C   UNL     1       3.582   5.792  17.999  0.00  0.00    +0.000 A 
ATOM      2  N   UNL     1       3.418   4.788  18.896  0.00  0.00    +0.000 NA
ATOM      3  C   UNL     1       2.696   5.027  20.011  0.00  0.00    +0.000 A 
ATOM      4  N   UNL     1       2.098   6.170  20.386  0.00  0.00    +0.000 NA
ATOM      5  C   UNL     1       2.270   7.149  19.472  0.00  0.00    +0.000 A 
ATOM      6  C   UNL     1       2.962   7.030  18.276  0.00  0.00    +0.000 A 
ATOM      7  N   UNL     1       2.887   8.192  17.543  0.00  0.00    +0.000 NA
ATOM      8  C   UNL     1       2.152   8.999  18.278  0.00  0.00    +0.000 A 
ATOM      9  N   UNL     1       1.758   8.437  19.479  0.00  0.00    +0.000 N 
ENDROOT
BRANCH   9  10
ATOM     10  C   UNL     1       0.983   9.072  20.489  0.00  0.00    +0.000 A 
ATOM     11  C   UNL     1       0.032  10.044  20.141  0.00  0.00    +0.000 A 
ATOM     12  C   UNL     1      -0.751  10.645  21.131  0.00  0.00    +0.000 A 
ATOM     13  C   UNL     1      -0.568  10.308  22.471  0.00  0.00    +0.000 A 
ATOM     14  C   UNL     1       0.392   9.364  22.824  0.00  0.00    +0.000 A 
ATOM     15  C   UNL     1       1.160   8.738  21.838  0.00  0.00    +0.000 A 
ENDBRANCH   9  10
BRANCH   1  16
ATOM     16  N   UNL     1       4.356   5.610  16.855  0.00  0.00    +0.000 N 
ATOM     17  H   UNL     1       3.877   5.970  16.031  0.00  0.00    +0.000 HD
BRANCH  16  18
ATOM     18  C   UNL     1       4.995   4.319  16.689  0.00  0.00    +0.000 C 
BRANCH  18  23
ATOM     19  C   UNL     1       5.883   3.621  13.026  0.00  0.00    +0.000 A 
ATOM     20  C   UNL     1       7.019   4.426  12.866  0.00  0.00    +0.000 A 
ATOM     21  C   UNL     1       7.519   5.148  13.950  0.00  0.00    +0.000 A 
ATOM     22  C   UNL     1       6.878   5.087  15.187  0.00  0.00    +0.000 A 
ATOM     23  C   UNL     1       5.722   4.310  15.360  0.00  0.00    +0.000 A 
ATOM     24  C   UNL     1       5.238   3.568  14.271  0.00  0.00    +0.000 A 
BRANCH  19  26
ATOM     25  N   UNL     1       5.919   1.695  11.521  0.00  0.00    +0.000 N 
ATOM     26  C   UNL     1       5.299   2.858  11.889  0.00  0.00    +0.000 C 
ATOM     27  O   UNL     1       4.286   3.235  11.314  0.00  0.00    +0.000 OA
ATOM     28  H   UNL     1       5.468   1.153  10.795  0.00  0.00    +0.000 HD
ATOM     29  H   UNL     1       6.603   1.230  12.099  0.00  0.00    +0.000 HD
ENDBRANCH  19  26
ENDBRANCH  18  23
ENDBRANCH  16  18
ENDBRANCH   1  16
TORSDOF 5
ENDMDL
MODEL 7
REMARK VINA RESULT:      -7.8      0.708      1.159
REMARK  Name = 
REMARK  5 active torsions:
REMARK  status: ('A' for Active; 'I' for Inactive)
REMARK    1  A    between atoms: C_2  and  C_4
REMARK    2  A    between atoms: C_8  and  C_9
REMARK    3  A    between atoms: C_9  and  N_10
REMARK    4  A    between atoms: N_10  and  C_11
REMARK    5  A    between atoms: N_19  and  C_20
REMARK                            x       y       z     vdW  Elec       q    Type
REMARK                         _______ _______ _______ _____ _____    ______ ____
ROOT
ATOM      1  C   UNL     1       7.349   6.851  17.811  0.00  0.00    +0.000 A 
ATOM      2  N   UNL     1       8.050   5.937  18.527  0.00  0.00    +0.000 NA
ATOM      3  C   UNL     1       7.379   4.937  19.134  0.00  0.00    +0.000 A 
ATOM      4  N   UNL     1       6.054   4.709  19.145  0.00  0.00    +0.000 NA
ATOM      5  C   UNL     1       5.383   5.628  18.417  0.00  0.00    +0.000 A 
ATOM      6  C   UNL     1       5.950   6.685  17.723  0.00  0.00    +0.000 A 
ATOM      7  N   UNL     1       4.993   7.390  17.028  0.00  0.00    +0.000 NA
ATOM      8  C   UNL     1       3.866   6.764  17.290  0.00  0.00    +0.000 A 
ATOM      9  N   UNL     1       4.024   5.690  18.148  0.00  0.00    +0.000 N 
ENDROOT
BRANCH   9  10
ATOM     10  C   UNL     1       2.989   4.843  18.632  0.00  0.00    +0.000 A 
ATOM     11  C   UNL     1       2.489   3.810  17.824  0.00  0.00    +0.000 A 
ATOM     12  C   UNL     1       1.494   2.958  18.311  0.00  0.00    +0.000 A 
ATOM     13  C   UNL     1       0.970   3.149  19.588  0.00  0.00    +0.000 A 
ATOM     14  C   UNL     1       1.443   4.188  20.383  0.00  0.00    +0.000 A 
ATOM     15  C   UNL     1       2.457   5.028  19.914  0.00  0.00    +0.000 A 
ENDBRANCH   9  10
BRANCH   1  16
ATOM     16  N   UNL     1       7.989   7.928  17.202  0.00  0.00    +0.000 N 
ATOM     17  H   UNL     1       9.001   7.806  17.219  0.00  0.00    +0.000 HD
BRANCH  16  18
ATOM     18  C   UNL     1       7.518   9.256  17.545  0.00  0.00    +0.000 C 
BRANCH  18  23
ATOM     19  C   UNL     1      10.350  11.764  18.166  0.00  0.00    +0.000 A 
ATOM     20  C   UNL     1      10.656  11.497  19.507  0.00  0.00    +0.000 A 
ATOM     21  C   UNL     1       9.985  10.481  20.187  0.00  0.00    +0.000 A 
ATOM     22  C   UNL     1       8.993   9.743  19.540  0.00  0.00    +0.000 A 
ATOM     23  C   UNL     1       8.651  10.014  18.205  0.00  0.00    +0.000 A 
ATOM     24  C   UNL     1       9.347  11.023  17.521  0.00  0.00    +0.000 A 
BRANCH  19  26
ATOM     25  N   UNL     1      12.308  12.647  17.000  0.00  0.00    +0.000 N 
ATOM     26  C   UNL     1      11.021  12.857  17.413  0.00  0.00    +0.000 C 
ATOM     27  O   UNL     1      10.442  13.903  17.144  0.00  0.00    +0.000 OA
ATOM     28  H   UNL     1      12.724  13.371  16.428  0.00  0.00    +0.000 HD
ATOM     29  H   UNL     1      12.741  11.735  16.991  0.00  0.00    +0.000 HD
ENDBRANCH  19  26
ENDBRANCH  18  23
ENDBRANCH  16  18
ENDBRANCH   1  16
TORSDOF 5
ENDMDL
MODEL 8
REMARK VINA RESULT:      -7.8      5.411      7.921
REMARK  Name = 
REMARK  5 active torsions:
REMARK  status: ('A' for Active; 'I' for Inactive)
REMARK    1  A    between atoms: C_2  and  C_4
REMARK    2  A    between atoms: C_8  and  C_9
REMARK    3  A    between atoms: C_9  and  N_10
REMARK    4  A    between atoms: N_10  and  C_11
REMARK    5  A    between atoms: N_19  and  C_20
REMARK                            x       y       z     vdW  Elec       q    Type
REMARK                         _______ _______ _______ _____ _____    ______ ____
ROOT
ATOM      1  C   UNL     1       2.570   7.196  19.283  0.00  0.00    +0.000 A 
ATOM      2  N   UNL     1       2.839   7.644  18.031  0.00  0.00    +0.000 NA
ATOM      3  C   UNL     1       2.272   8.797  17.620  0.00  0.00    +0.000 A 
ATOM      4  N   UNL     1       1.432   9.599  18.296  0.00  0.00    +0.000 NA
ATOM      5  C   UNL     1       1.190   9.135  19.541  0.00  0.00    +0.000 A 
ATOM      6  C   UNL     1       1.727   7.984  20.097  0.00  0.00    +0.000 A 
ATOM      7  N   UNL     1       1.332   7.837  21.407  0.00  0.00    +0.000 NA
ATOM      8  C   UNL     1       0.577   8.888  21.644  0.00  0.00    +0.000 A 
ATOM      9  N   UNL     1       0.428   9.713  20.544  0.00  0.00    +0.000 N 
ENDROOT
BRANCH   9  10
ATOM     10  C   UNL     1      -0.348  10.905  20.487  0.00  0.00    +0.000 A 
ATOM     11  C   UNL     1      -0.096  11.954  21.384  0.00  0.00    +0.000 A 
ATOM     12  C   UNL     1      -0.838  13.136  21.308  0.00  0.00    +0.000 A 
ATOM     13  C   UNL     1      -1.854  13.266  20.363  0.00  0.00    +0.000 A 
ATOM     14  C   UNL     1      -2.126  12.219  19.488  0.00  0.00    +0.000 A 
ATOM     15  C   UNL     1      -1.371  11.044  19.540  0.00  0.00    +0.000 A 
ENDBRANCH   9  10
BRANCH   1  16
ATOM     16  N   UNL     1       3.093   5.989  19.740  0.00  0.00    +0.000 N 
ATOM     17  H   UNL     1       3.865   6.148  20.385  0.00  0.00    +0.000 HD
BRANCH  16  18
ATOM     18  C   UNL     1       3.313   4.950  18.752  0.00  0.00    +0.000 C 
BRANCH  18  23
ATOM     19  C   UNL     1       6.513   4.820  16.647  0.00  0.00    +0.000 A 
ATOM     20  C   UNL     1       7.480   5.154  17.605  0.00  0.00    +0.000 A 
ATOM     21  C   UNL     1       7.101   5.370  18.930  0.00  0.00    +0.000 A 
ATOM     22  C   UNL     1       5.759   5.276  19.300  0.00  0.00    +0.000 A 
ATOM     23  C   UNL     1       4.773   4.970  18.348  0.00  0.00    +0.000 A 
ATOM     24  C   UNL     1       5.164   4.731  17.022  0.00  0.00    +0.000 A 
BRANCH  19  26
ATOM     25  N   UNL     1       6.283   3.561  14.565  0.00  0.00    +0.000 N 
ATOM     26  C   UNL     1       6.870   4.610  15.218  0.00  0.00    +0.000 C 
ATOM     27  O   UNL     1       7.640   5.359  14.630  0.00  0.00    +0.000 OA
ATOM     28  H   UNL     1       6.481   3.477  13.576  0.00  0.00    +0.000 HD
ATOM     29  H   UNL     1       5.481   3.067  14.927  0.00  0.00    +0.000 HD
ENDBRANCH  19  26
ENDBRANCH  18  23
ENDBRANCH  16  18
ENDBRANCH   1  16
TORSDOF 5
ENDMDL
MODEL 9
REMARK VINA RESULT:      -7.7      5.450      7.468
REMARK  Name = 
REMARK  5 active torsions:
REMARK  status: ('A' for Active; 'I' for Inactive)
REMARK    1  A    between atoms: C_2  and  C_4
REMARK    2  A    between atoms: C_8  and  C_9
REMARK    3  A    between atoms: C_9  and  N_10
REMARK    4  A    between atoms: N_10  and  C_11
REMARK    5  A    between atoms: N_19  and  C_20
REMARK                            x       y       z     vdW  Elec       q    Type
REMARK                         _______ _______ _______ _____ _____    ______ ____
ROOT
ATOM      1  C   UNL     1       3.385   4.336  19.182  0.00  0.00    +0.000 A 
ATOM      2  N   UNL     1       2.766   3.635  20.165  0.00  0.00    +0.000 NA
ATOM      3  C   UNL     1       1.912   4.283  20.982  0.00  0.00    +0.000 A 
ATOM      4  N   UNL     1       1.575   5.584  20.973  0.00  0.00    +0.000 NA
ATOM      5  C   UNL     1       2.198   6.255  19.980  0.00  0.00    +0.000 A 
ATOM      6  C   UNL     1       3.075   5.708  19.057  0.00  0.00    +0.000 A 
ATOM      7  N   UNL     1       3.475   6.650  18.136  0.00  0.00    +0.000 NA
ATOM      8  C   UNL     1       2.843   7.748  18.491  0.00  0.00    +0.000 A 
ATOM      9  N   UNL     1       2.061   7.587  19.621  0.00  0.00    +0.000 N 
ENDROOT
BRANCH   9  10
ATOM     10  C   UNL     1       1.285   8.597  20.255  0.00  0.00    +0.000 A 
ATOM     11  C   UNL     1       0.618   9.561  19.484  0.00  0.00    +0.000 A 
ATOM     12  C   UNL     1      -0.170  10.535  20.106  0.00  0.00    +0.000 A 
ATOM     13  C   UNL     1      -0.270  10.572  21.496  0.00  0.00    +0.000 A 
ATOM     14  C   UNL     1       0.410   9.634  22.266  0.00  0.00    +0.000 A 
ATOM     15  C   UNL     1       1.178   8.641  21.651  0.00  0.00    +0.000 A 
ENDBRANCH   9  10
BRANCH   1  16
ATOM     16  N   UNL     1       4.311   3.724  18.340  0.00  0.00    +0.000 N 
ATOM     17  H   UNL     1       5.255   4.051  18.539  0.00  0.00    +0.000 HD
BRANCH  16  18
ATOM     18  C   UNL     1       3.968   3.636  16.934  0.00  0.00    +0.000 C 
BRANCH  18  23
ATOM     19  C   UNL     1       6.409   4.114  14.018  0.00  0.00    +0.000 A 
ATOM     20  C   UNL     1       7.339   4.995  14.587  0.00  0.00    +0.000 A 
ATOM     21  C   UNL     1       7.201   5.390  15.917  0.00  0.00    +0.000 A 
ATOM     22  C   UNL     1       6.127   4.926  16.677  0.00  0.00    +0.000 A 
ATOM     23  C   UNL     1       5.170   4.066  16.117  0.00  0.00    +0.000 A 
ATOM     24  C   UNL     1       5.327   3.655  14.785  0.00  0.00    +0.000 A 
BRANCH  19  26
ATOM     25  N   UNL     1       5.732   2.635  12.194  0.00  0.00    +0.000 N 
ATOM     26  C   UNL     1       6.503   3.691  12.594  0.00  0.00    +0.000 C 
ATOM     27  O   UNL     1       7.222   4.278  11.795  0.00  0.00    +0.000 OA
ATOM     28  H   UNL     1       5.754   2.408  11.208  0.00  0.00    +0.000 HD
ATOM     29  H   UNL     1       4.965   2.275  12.742  0.00  0.00    +0.000 HD
ENDBRANCH  19  26
ENDBRANCH  18  23
ENDBRANCH  16  18
ENDBRANCH   1  16
TORSDOF 5
ENDMDL
