MODEL 1
REMARK VINA RESULT:      -8.3      0.000      0.000
REMARK  Name = 
REMARK  4 active torsions:
REMARK  status: ('A' for Active; 'I' for Inactive)
REMARK    1  A    between atoms: C_1  and  C_2
REMARK    2  A    between atoms: N_6  and  C_7
REMARK    3  A    between atoms: C_10  and  C_11
REMARK    4  A    between atoms: C_16  and  C_17
REMARK                            x       y       z     vdW  Elec       q    Type
REMARK                         _______ _______ _______ _____ _____    ______ ____
ROOT
ATOM      1  C   UNL     1       6.271   5.612  17.388  0.00  0.00    +0.000 C 
ATOM      2  O   UNL     1       6.937   4.623  17.079  0.00  0.00    +0.000 OA
ATOM      3  N   UNL     1       4.867   5.615  17.325  0.00  0.00    +0.000 N 
ATOM      4  C   UNL     1       3.972   6.731  17.596  0.00  0.00    +0.000 C 
ATOM      5  C   UNL     1       3.177   6.433  18.859  0.00  0.00    +0.000 C 
ATOM      6  C   UNL     1       2.466   5.068  18.829  0.00  0.00    +0.000 C 
ATOM      7  C   UNL     1       3.419   3.943  18.310  0.00  0.00    +0.000 C 
ATOM      8  C   UNL     1       4.387   3.155  19.258  0.00  0.00    +0.000 C 
ATOM      9  C   UNL     1       3.401   1.974  19.266  0.00  0.00    +0.000 C 
ATOM     10  C   UNL     1       2.690   2.584  18.052  0.00  0.00    +0.000 C 
ATOM     11  C   UNL     1       4.165   4.379  17.017  0.00  0.00    +0.000 C 
ENDROOT
BRANCH   1  15
ATOM     12  C   UNL     1       8.525   9.174  18.394  0.00  0.00    +0.000 A 
ATOM     13  C   UNL     1       7.594   9.173  17.348  0.00  0.00    +0.000 A 
ATOM     14  C   UNL     1       6.862   8.007  17.047  0.00  0.00    +0.000 A 
ATOM     15  C   UNL     1       7.051   6.818  17.773  0.00  0.00    +0.000 A 
ATOM     16  C   UNL     1       8.044   6.816  18.744  0.00  0.00    +0.000 A 
ATOM     17  F   UNL     1       8.416   5.695  19.361  0.00  0.00    +0.000 F 
ATOM     18  C   UNL     1       8.729   7.976  19.093  0.00  0.00    +0.000 A 
BRANCH  12  24
ATOM     19  C   UNL     1       8.893  10.669  21.274  0.00  0.00    +0.000 C 
ATOM     20  C   UNL     1       9.477  10.992  19.961  0.00  0.00    +0.000 A 
ATOM     21  N   UNL     1      10.285  12.015  19.741  0.00  0.00    +0.000 NA
ATOM     22  N   UNL     1      10.647  11.953  18.430  0.00  0.00    +0.000 NA
ATOM     23  N   UNL     1      10.083  10.920  17.834  0.00  0.00    +0.000 NA
ATOM     24  N   UNL     1       9.307  10.302  18.766  0.00  0.00    +0.000 N 
ENDBRANCH  12  24
ENDBRANCH   1  15
BRANCH   6  25
ATOM     25  C   UNL     1       1.814   4.822  20.199  0.00  0.00    +0.000 C 
ATOM     26  F   UNL     1       1.275   5.960  20.703  0.00  0.00    +0.000 F 
ATOM     27  F   UNL     1       0.797   3.937  20.078  0.00  0.00    +0.000 F 
ATOM     28  F   UNL     1       2.647   4.354  21.143  0.00  0.00    +0.000 F 
ENDBRANCH   6  25
TORSDOF 3
ENDMDL
MODEL 2
REMARK VINA RESULT:      -8.3      0.848      1.205
REMARK  Name = 
REMARK  4 active torsions:
REMARK  status: ('A' for Active; 'I' for Inactive)
REMARK    1  A    between atoms: C_1  and  C_2
REMARK    2  A    between atoms: N_6  and  C_7
REMARK    3  A    between atoms: C_10  and  C_11
REMARK    4  A    between atoms: C_16  and  C_17
REMARK                            x       y       z     vdW  Elec       q    Type
REMARK                         _______ _______ _______ _____ _____    ______ ____
ROOT
ATOM      1  C   UNL     1       6.472   5.731  17.251  0.00  0.00    +0.000 C 
ATOM      2  O   UNL     1       7.166   4.785  16.876  0.00  0.00    +0.000 OA
ATOM      3  N   UNL     1       5.073   5.729  17.115  0.00  0.00    +0.000 N 
ATOM      4  C   UNL     1       4.150   6.803  17.453  0.00  0.00    +0.000 C 
ATOM      5  C   UNL     1       3.295   6.367  18.634  0.00  0.00    +0.000 C 
ATOM      6  C   UNL     1       2.604   5.007  18.423  0.00  0.00    +0.000 C 
ATOM      7  C   UNL     1       3.598   3.952  17.840  0.00  0.00    +0.000 C 
ATOM      8  C   UNL     1       4.526   3.076  18.749  0.00  0.00    +0.000 C 
ATOM      9  C   UNL     1       3.556   1.892  18.581  0.00  0.00    +0.000 C 
ATOM     10  C   UNL     1       2.901   2.622  17.402  0.00  0.00    +0.000 C 
ATOM     11  C   UNL     1       4.404   4.528  16.642  0.00  0.00    +0.000 C 
ENDROOT
BRANCH   1  15
ATOM     12  C   UNL     1       8.629   9.180  18.743  0.00  0.00    +0.000 A 
ATOM     13  C   UNL     1       7.812   9.267  17.610  0.00  0.00    +0.000 A 
ATOM     14  C   UNL     1       7.109   8.136  17.150  0.00  0.00    +0.000 A 
ATOM     15  C   UNL     1       7.214   6.895  17.803  0.00  0.00    +0.000 A 
ATOM     16  C   UNL     1       8.101   6.810  18.868  0.00  0.00    +0.000 A 
ATOM     17  F   UNL     1       8.401   5.642  19.436  0.00  0.00    +0.000 F 
ATOM     18  C   UNL     1       8.753   7.932  19.369  0.00  0.00    +0.000 A 
BRANCH  12  24
ATOM     19  C   UNL     1      10.637  11.312  17.298  0.00  0.00    +0.000 C 
ATOM     20  C   UNL     1      10.261  11.181  18.716  0.00  0.00    +0.000 A 
ATOM     21  N   UNL     1      10.723  11.959  19.680  0.00  0.00    +0.000 NA
ATOM     22  N   UNL     1      10.112  11.562  20.830  0.00  0.00    +0.000 NA
ATOM     23  N   UNL     1       9.286  10.559  20.602  0.00  0.00    +0.000 NA
ATOM     24  N   UNL     1       9.375  10.268  19.276  0.00  0.00    +0.000 N 
ENDBRANCH  12  24
ENDBRANCH   1  15
BRANCH   6  25
ATOM     25  C   UNL     1       1.885   4.614  19.722  0.00  0.00    +0.000 C 
ATOM     26  F   UNL     1       1.276   5.681  20.296  0.00  0.00    +0.000 F 
ATOM     27  F   UNL     1       0.910   3.711  19.460  0.00  0.00    +0.000 F 
ATOM     28  F   UNL     1       2.680   4.086  20.668  0.00  0.00    +0.000 F 
ENDBRANCH   6  25
TORSDOF 3
ENDMDL
MODEL 3
REMARK VINA RESULT:      -8.1      4.670      6.754
REMARK  Name = 
REMARK  4 active torsions:
REMARK  status: ('A' for Active; 'I' for Inactive)
REMARK    1  A    between atoms: C_1  and  C_2
REMARK    2  A    between atoms: N_6  and  C_7
REMARK    3  A    between atoms: C_10  and  C_11
REMARK    4  A    between atoms: C_16  and  C_17
REMARK                            x       y       z     vdW  Elec       q    Type
REMARK                         _______ _______ _______ _____ _____    ______ ____
ROOT
ATOM      1  C   UNL     1       2.328   5.966  18.241  0.00  0.00    +0.000 C 
ATOM      2  O   UNL     1       1.629   5.718  17.257  0.00  0.00    +0.000 OA
ATOM      3  N   UNL     1       3.395   5.136  18.625  0.00  0.00    +0.000 N 
ATOM      4  C   UNL     1       4.248   5.277  19.797  0.00  0.00    +0.000 C 
ATOM      5  C   UNL     1       5.657   5.629  19.342  0.00  0.00    +0.000 C 
ATOM      6  C   UNL     1       6.221   4.662  18.284  0.00  0.00    +0.000 C 
ATOM      7  C   UNL     1       5.168   4.369  17.167  0.00  0.00    +0.000 C 
ATOM      8  C   UNL     1       5.003   5.283  15.905  0.00  0.00    +0.000 C 
ATOM      9  C   UNL     1       5.804   4.264  15.074  0.00  0.00    +0.000 C 
ATOM     10  C   UNL     1       5.605   3.229  16.189  0.00  0.00    +0.000 C 
ATOM     11  C   UNL     1       3.778   4.024  17.770  0.00  0.00    +0.000 C 
ENDROOT
BRANCH   1  15
ATOM     12  C   UNL     1       1.109   9.385  20.607  0.00  0.00    +0.000 A 
ATOM     13  C   UNL     1       1.104   8.091  21.141  0.00  0.00    +0.000 A 
ATOM     14  C   UNL     1       1.518   6.996  20.358  0.00  0.00    +0.000 A 
ATOM     15  C   UNL     1       1.933   7.165  19.026  0.00  0.00    +0.000 A 
ATOM     16  C   UNL     1       1.842   8.443  18.489  0.00  0.00    +0.000 A 
ATOM     17  F   UNL     1       2.043   8.671  17.191  0.00  0.00    +0.000 F 
ATOM     18  C   UNL     1       1.495   9.542  19.269  0.00  0.00    +0.000 A 
BRANCH  12  24
ATOM     19  C   UNL     1      -0.811   9.731  23.226  0.00  0.00    +0.000 C 
ATOM     20  C   UNL     1      -0.124  10.753  22.418  0.00  0.00    +0.000 A 
ATOM     21  N   UNL     1      -0.200  12.053  22.646  0.00  0.00    +0.000 NA
ATOM     22  N   UNL     1       0.600  12.659  21.727  0.00  0.00    +0.000 NA
ATOM     23  N   UNL     1       1.167  11.768  20.935  0.00  0.00    +0.000 NA
ATOM     24  N   UNL     1       0.708  10.547  21.323  0.00  0.00    +0.000 N 
ENDBRANCH  12  24
ENDBRANCH   1  15
BRANCH   6  25
ATOM     25  C   UNL     1       7.582   5.192  17.809  0.00  0.00    +0.000 C 
ATOM     26  F   UNL     1       8.301   5.707  18.836  0.00  0.00    +0.000 F 
ATOM     27  F   UNL     1       8.320   4.181  17.293  0.00  0.00    +0.000 F 
ATOM     28  F   UNL     1       7.516   6.159  16.879  0.00  0.00    +0.000 F 
ENDBRANCH   6  25
TORSDOF 3
ENDMDL
MODEL 4
REMARK VINA RESULT:      -8.1      5.704      8.935
REMARK  Name = 
REMARK  4 active torsions:
REMARK  status: ('A' for Active; 'I' for Inactive)
REMARK    1  A    between atoms: C_1  and  C_2
REMARK    2  A    between atoms: N_6  and  C_7
REMARK    3  A    between atoms: C_10  and  C_11
REMARK    4  A    between atoms: C_16  and  C_17
REMARK                            x       y       z     vdW  Elec       q    Type
REMARK                         _______ _______ _______ _____ _____    ______ ____
ROOT
ATOM      1  C   UNL     1       1.129   9.234  21.342  0.00  0.00    +0.000 C 
ATOM      2  O   UNL     1       1.787   9.428  22.366  0.00  0.00    +0.000 OA
ATOM      3  N   UNL     1       0.058  10.067  20.975  0.00  0.00    +0.000 N 
ATOM      4  C   UNL     1      -0.835   9.908  19.837  0.00  0.00    +0.000 C 
ATOM      5  C   UNL     1      -0.585  11.041  18.851  0.00  0.00    +0.000 C 
ATOM      6  C   UNL     1      -0.649  12.439  19.492  0.00  0.00    +0.000 C 
ATOM      7  C   UNL     1       0.147  12.482  20.837  0.00  0.00    +0.000 C 
ATOM      8  C   UNL     1       1.684  12.780  20.898  0.00  0.00    +0.000 C 
ATOM      9  C   UNL     1       1.376  14.228  21.320  0.00  0.00    +0.000 C 
ATOM     10  C   UNL     1      -0.065  13.808  21.639  0.00  0.00    +0.000 C 
ATOM     11  C   UNL     1      -0.205  11.271  21.747  0.00  0.00    +0.000 C 
ENDROOT
BRANCH   1  15
ATOM     12  C   UNL     1       2.246   5.664  19.154  0.00  0.00    +0.000 A 
ATOM     13  C   UNL     1       1.801   5.596  20.480  0.00  0.00    +0.000 A 
ATOM     14  C   UNL     1       1.430   6.768  21.168  0.00  0.00    +0.000 A 
ATOM     15  C   UNL     1       1.505   8.030  20.554  0.00  0.00    +0.000 A 
ATOM     16  C   UNL     1       2.035   8.084  19.271  0.00  0.00    +0.000 A 
ATOM     17  F   UNL     1       2.309   9.244  18.675  0.00  0.00    +0.000 F 
ATOM     18  C   UNL     1       2.346   6.929  18.559  0.00  0.00    +0.000 A 
BRANCH  12  24
ATOM     19  C   UNL     1       5.113   4.115  18.940  0.00  0.00    +0.000 C 
ATOM     20  C   UNL     1       3.846   3.858  18.234  0.00  0.00    +0.000 A 
ATOM     21  N   UNL     1       3.677   2.899  17.340  0.00  0.00    +0.000 NA
ATOM     22  N   UNL     1       2.373   2.949  16.954  0.00  0.00    +0.000 NA
ATOM     23  N   UNL     1       1.731   3.914  17.584  0.00  0.00    +0.000 NA
ATOM     24  N   UNL     1       2.641   4.535  18.385  0.00  0.00    +0.000 N 
ENDBRANCH  12  24
ENDBRANCH   1  15
BRANCH   6  25
ATOM     25  C   UNL     1      -0.250  13.483  18.438  0.00  0.00    +0.000 C 
ATOM     26  F   UNL     1       1.081  13.452  18.186  0.00  0.00    +0.000 F 
ATOM     27  F   UNL     1      -0.869  13.217  17.263  0.00  0.00    +0.000 F 
ATOM     28  F   UNL     1      -0.537  14.753  18.767  0.00  0.00    +0.000 F 
ENDBRANCH   6  25
TORSDOF 3
ENDMDL
MODEL 5
REMARK VINA RESULT:      -8.0      4.362      6.659
REMARK  Name = 
REMARK  4 active torsions:
REMARK  status: ('A' for Active; 'I' for Inactive)
REMARK    1  A    between atoms: C_1  and  C_2
REMARK    2  A    between atoms: N_6  and  C_7
REMARK    3  A    between atoms: C_10  and  C_11
REMARK    4  A    between atoms: C_16  and  C_17
REMARK                            x       y       z     vdW  Elec       q    Type
REMARK                         _______ _______ _______ _____ _____    ______ ____
ROOT
ATOM      1  C   UNL     1       2.300   5.805  18.238  0.00  0.00    +0.000 C 
ATOM      2  O   UNL     1       1.596   5.519  17.268  0.00  0.00    +0.000 OA
ATOM      3  N   UNL     1       3.401   5.018  18.617  0.00  0.00    +0.000 N 
ATOM      4  C   UNL     1       4.266   5.206  19.773  0.00  0.00    +0.000 C 
ATOM      5  C   UNL     1       5.656   5.600  19.292  0.00  0.00    +0.000 C 
ATOM      6  C   UNL     1       6.237   4.638  18.239  0.00  0.00    +0.000 C 
ATOM      7  C   UNL     1       5.179   4.293  17.142  0.00  0.00    +0.000 C 
ATOM      8  C   UNL     1       4.962   5.182  15.870  0.00  0.00    +0.000 C 
ATOM      9  C   UNL     1       5.786   4.179  15.042  0.00  0.00    +0.000 C 
ATOM     10  C   UNL     1       5.641   3.155  16.174  0.00  0.00    +0.000 C 
ATOM     11  C   UNL     1       3.810   3.908  17.771  0.00  0.00    +0.000 C 
ENDROOT
BRANCH   1  15
ATOM     12  C   UNL     1       1.130   9.364  20.416  0.00  0.00    +0.000 A 
ATOM     13  C   UNL     1       1.550   9.431  19.082  0.00  0.00    +0.000 A 
ATOM     14  C   UNL     1       1.912   8.259  18.389  0.00  0.00    +0.000 A 
ATOM     15  C   UNL     1       1.875   7.000  19.013  0.00  0.00    +0.000 A 
ATOM     16  C   UNL     1       1.545   6.968  20.361  0.00  0.00    +0.000 A 
ATOM     17  F   UNL     1       1.653   5.851  21.081  0.00  0.00    +0.000 F 
ATOM     18  C   UNL     1       1.126   8.108  21.040  0.00  0.00    +0.000 A 
BRANCH  12  24
ATOM     19  C   UNL     1      -0.730   9.594  23.089  0.00  0.00    +0.000 C 
ATOM     20  C   UNL     1      -0.059  10.650  22.312  0.00  0.00    +0.000 A 
ATOM     21  N   UNL     1      -0.126  11.939  22.601  0.00  0.00    +0.000 NA
ATOM     22  N   UNL     1       0.655  12.584  21.692  0.00  0.00    +0.000 NA
ATOM     23  N   UNL     1       1.202  11.729  20.849  0.00  0.00    +0.000 NA
ATOM     24  N   UNL     1       0.748  10.493  21.191  0.00  0.00    +0.000 N 
ENDBRANCH  12  24
ENDBRANCH   1  15
BRANCH   6  25
ATOM     25  C   UNL     1       7.572   5.209  17.735  0.00  0.00    +0.000 C 
ATOM     26  F   UNL     1       8.312   5.713  18.753  0.00  0.00    +0.000 F 
ATOM     27  F   UNL     1       8.313   4.227  17.171  0.00  0.00    +0.000 F 
ATOM     28  F   UNL     1       7.456   6.197  16.833  0.00  0.00    +0.000 F 
ENDBRANCH   6  25
TORSDOF 3
ENDMDL
MODEL 6
REMARK VINA RESULT:      -8.0      4.473      6.832
REMARK  Name = 
REMARK  4 active torsions:
REMARK  status: ('A' for Active; 'I' for Inactive)
REMARK    1  A    between atoms: C_1  and  C_2
REMARK    2  A    between atoms: N_6  and  C_7
REMARK    3  A    between atoms: C_10  and  C_11
REMARK    4  A    between atoms: C_16  and  C_17
REMARK                            x       y       z     vdW  Elec       q    Type
REMARK                         _______ _______ _______ _____ _____    ______ ____
ROOT
ATOM      1  C   UNL     1       2.280   5.466  18.298  0.00  0.00    +0.000 C 
ATOM      2  O   UNL     1       1.585   5.187  17.320  0.00  0.00    +0.000 OA
ATOM      3  N   UNL     1       3.436   4.735  18.623  0.00  0.00    +0.000 N 
ATOM      4  C   UNL     1       4.302   4.917  19.780  0.00  0.00    +0.000 C 
ATOM      5  C   UNL     1       5.655   5.429  19.309  0.00  0.00    +0.000 C 
ATOM      6  C   UNL     1       6.286   4.568  18.199  0.00  0.00    +0.000 C 
ATOM      7  C   UNL     1       5.239   4.214  17.094  0.00  0.00    +0.000 C 
ATOM      8  C   UNL     1       4.948   5.156  15.875  0.00  0.00    +0.000 C 
ATOM      9  C   UNL     1       5.826   4.258  14.985  0.00  0.00    +0.000 C 
ATOM     10  C   UNL     1       5.764   3.165  16.059  0.00  0.00    +0.000 C 
ATOM     11  C   UNL     1       3.907   3.704  17.712  0.00  0.00    +0.000 C 
ENDROOT
BRANCH   1  15
ATOM     12  C   UNL     1       0.919   8.810  20.694  0.00  0.00    +0.000 A 
ATOM     13  C   UNL     1       1.481   9.004  19.427  0.00  0.00    +0.000 A 
ATOM     14  C   UNL     1       1.905   7.901  18.659  0.00  0.00    +0.000 A 
ATOM     15  C   UNL     1       1.787   6.586  19.142  0.00  0.00    +0.000 A 
ATOM     16  C   UNL     1       1.312   6.424  20.437  0.00  0.00    +0.000 A 
ATOM     17  F   UNL     1       1.330   5.238  21.045  0.00  0.00    +0.000 F 
ATOM     18  C   UNL     1       0.834   7.498  21.181  0.00  0.00    +0.000 A 
BRANCH  12  24
ATOM     19  C   UNL     1       0.859  12.043  20.240  0.00  0.00    +0.000 C 
ATOM     20  C   UNL     1       0.445  11.246  21.407  0.00  0.00    +0.000 A 
ATOM     21  N   UNL     1      -0.036  11.763  22.524  0.00  0.00    +0.000 NA
ATOM     22  N   UNL     1      -0.345  10.717  23.339  0.00  0.00    +0.000 NA
ATOM     23  N   UNL     1      -0.066   9.567  22.755  0.00  0.00    +0.000 NA
ATOM     24  N   UNL     1       0.467   9.862  21.537  0.00  0.00    +0.000 N 
ENDBRANCH  12  24
ENDBRANCH   1  15
BRANCH   6  25
ATOM     25  C   UNL     1       7.573   5.254  17.716  0.00  0.00    +0.000 C 
ATOM     26  F   UNL     1       8.301   5.733  18.755  0.00  0.00    +0.000 F 
ATOM     27  F   UNL     1       8.363   4.362  17.073  0.00  0.00    +0.000 F 
ATOM     28  F   UNL     1       7.380   6.293  16.887  0.00  0.00    +0.000 F 
ENDBRANCH   6  25
TORSDOF 3
ENDMDL
MODEL 7
REMARK VINA RESULT:      -7.9      5.717      8.990
REMARK  Name = 
REMARK  4 active torsions:
REMARK  status: ('A' for Active; 'I' for Inactive)
REMARK    1  A    between atoms: C_1  and  C_2
REMARK    2  A    between atoms: N_6  and  C_7
REMARK    3  A    between atoms: C_10  and  C_11
REMARK    4  A    between atoms: C_16  and  C_17
REMARK                            x       y       z     vdW  Elec       q    Type
REMARK                         _______ _______ _______ _____ _____    ______ ____
ROOT
ATOM      1  C   UNL     1       1.135   9.168  21.323  0.00  0.00    +0.000 C 
ATOM      2  O   UNL     1       1.784   9.371  22.350  0.00  0.00    +0.000 OA
ATOM      3  N   UNL     1       0.060   9.991  20.946  0.00  0.00    +0.000 N 
ATOM      4  C   UNL     1      -0.824   9.821  19.801  0.00  0.00    +0.000 C 
ATOM      5  C   UNL     1      -0.576  10.952  18.813  0.00  0.00    +0.000 C 
ATOM      6  C   UNL     1      -0.656  12.352  19.449  0.00  0.00    +0.000 C 
ATOM      7  C   UNL     1       0.130  12.406  20.799  0.00  0.00    +0.000 C 
ATOM      8  C   UNL     1       1.663  12.717  20.870  0.00  0.00    +0.000 C 
ATOM      9  C   UNL     1       1.341  14.164  21.284  0.00  0.00    +0.000 C 
ATOM     10  C   UNL     1      -0.098  13.734  21.594  0.00  0.00    +0.000 C 
ATOM     11  C   UNL     1      -0.219  11.196  21.710  0.00  0.00    +0.000 C 
ENDROOT
BRANCH   1  15
ATOM     12  C   UNL     1       2.297   5.600  19.156  0.00  0.00    +0.000 A 
ATOM     13  C   UNL     1       1.858   5.535  20.484  0.00  0.00    +0.000 A 
ATOM     14  C   UNL     1       1.471   6.706  21.165  0.00  0.00    +0.000 A 
ATOM     15  C   UNL     1       1.526   7.965  20.542  0.00  0.00    +0.000 A 
ATOM     16  C   UNL     1       2.052   8.017  19.257  0.00  0.00    +0.000 A 
ATOM     17  F   UNL     1       2.307   9.177  18.653  0.00  0.00    +0.000 F 
ATOM     18  C   UNL     1       2.378   6.863  18.553  0.00  0.00    +0.000 A 
BRANCH  12  24
ATOM     19  C   UNL     1       0.922   2.664  18.767  0.00  0.00    +0.000 C 
ATOM     20  C   UNL     1       2.179   3.198  18.217  0.00  0.00    +0.000 A 
ATOM     21  N   UNL     1       2.997   2.512  17.437  0.00  0.00    +0.000 NA
ATOM     22  N   UNL     1       4.013   3.352  17.099  0.00  0.00    +0.000 NA
ATOM     23  N   UNL     1       3.846   4.539  17.651  0.00  0.00    +0.000 NA
ATOM     24  N   UNL     1       2.707   4.472  18.393  0.00  0.00    +0.000 N 
ENDBRANCH  12  24
ENDBRANCH   1  15
BRANCH   6  25
ATOM     25  C   UNL     1      -0.259  13.395  18.393  0.00  0.00    +0.000 C 
ATOM     26  F   UNL     1       1.070  13.354  18.129  0.00  0.00    +0.000 F 
ATOM     27  F   UNL     1      -0.891  13.138  17.224  0.00  0.00    +0.000 F 
ATOM     28  F   UNL     1      -0.532  14.667  18.729  0.00  0.00    +0.000 F 
ENDBRANCH   6  25
TORSDOF 3
ENDMDL
MODEL 8
REMARK VINA RESULT:      -7.9      4.751      6.509
REMARK  Name = 
REMARK  4 active torsions:
REMARK  status: ('A' for Active; 'I' for Inactive)
REMARK    1  A    between atoms: C_1  and  C_2
REMARK    2  A    between atoms: N_6  and  C_7
REMARK    3  A    between atoms: C_10  and  C_11
REMARK    4  A    between atoms: C_16  and  C_17
REMARK                            x       y       z     vdW  Elec       q    Type
REMARK                         _______ _______ _______ _____ _____    ______ ____
ROOT
ATOM      1  C   UNL     1       2.133   6.244  20.010  0.00  0.00    +0.000 C 
ATOM      2  O   UNL     1       1.239   5.552  20.501  0.00  0.00    +0.000 OA
ATOM      3  N   UNL     1       3.407   5.724  19.727  0.00  0.00    +0.000 N 
ATOM      4  C   UNL     1       4.563   6.446  19.214  0.00  0.00    +0.000 C 
ATOM      5  C   UNL     1       4.865   5.959  17.804  0.00  0.00    +0.000 C 
ATOM      6  C   UNL     1       5.000   4.429  17.698  0.00  0.00    +0.000 C 
ATOM      7  C   UNL     1       3.848   3.704  18.466  0.00  0.00    +0.000 C 
ATOM      8  C   UNL     1       2.460   3.393  17.808  0.00  0.00    +0.000 C 
ATOM      9  C   UNL     1       2.901   1.934  17.592  0.00  0.00    +0.000 C 
ATOM     10  C   UNL     1       4.055   2.158  18.578  0.00  0.00    +0.000 C 
ATOM     11  C   UNL     1       3.649   4.299  19.889  0.00  0.00    +0.000 C 
ENDROOT
BRANCH   1  15
ATOM     12  C   UNL     1       1.065  10.409  19.476  0.00  0.00    +0.000 A 
ATOM     13  C   UNL     1       0.938   9.779  20.719  0.00  0.00    +0.000 A 
ATOM     14  C   UNL     1       1.304   8.427  20.873  0.00  0.00    +0.000 A 
ATOM     15  C   UNL     1       1.793   7.675  19.792  0.00  0.00    +0.000 A 
ATOM     16  C   UNL     1       1.824   8.293  18.548  0.00  0.00    +0.000 A 
ATOM     17  F   UNL     1       2.102   7.614  17.436  0.00  0.00    +0.000 F 
ATOM     18  C   UNL     1       1.524   9.644  18.395  0.00  0.00    +0.000 A 
BRANCH  12  24
ATOM     19  C   UNL     1      -1.591  11.729  18.109  0.00  0.00    +0.000 C 
ATOM     20  C   UNL     1      -0.376  12.378  18.629  0.00  0.00    +0.000 A 
ATOM     21  N   UNL     1      -0.165  13.683  18.606  0.00  0.00    +0.000 NA
ATOM     22  N   UNL     1       1.034  13.897  19.214  0.00  0.00    +0.000 NA
ATOM     23  N   UNL     1       1.571  12.758  19.610  0.00  0.00    +0.000 NA
ATOM     24  N   UNL     1       0.719  11.767  19.229  0.00  0.00    +0.000 N 
ENDBRANCH  12  24
ENDBRANCH   1  15
BRANCH   6  25
ATOM     25  C   UNL     1       5.168   4.051  16.219  0.00  0.00    +0.000 C 
ATOM     26  F   UNL     1       3.989   4.113  15.553  0.00  0.00    +0.000 F 
ATOM     27  F   UNL     1       6.000   4.926  15.607  0.00  0.00    +0.000 F 
ATOM     28  F   UNL     1       5.652   2.816  16.005  0.00  0.00    +0.000 F 
ENDBRANCH   6  25
TORSDOF 3
ENDMDL
MODEL 9
REMARK VINA RESULT:      -7.8      4.736      6.529
REMARK  Name = 
REMARK  4 active torsions:
REMARK  status: ('A' for Active; 'I' for Inactive)
REMARK    1  A    between atoms: C_1  and  C_2
REMARK    2  A    between atoms: N_6  and  C_7
REMARK    3  A    between atoms: C_10  and  C_11
REMARK    4  A    between atoms: C_16  and  C_17
REMARK                            x       y       z     vdW  Elec       q    Type
REMARK                         _______ _______ _______ _____ _____    ______ ____
ROOT
ATOM      1  C   UNL     1       2.197   6.341  19.869  0.00  0.00    +0.000 C 
ATOM      2  O   UNL     1       1.363   5.629  20.432  0.00  0.00    +0.000 OA
ATOM      3  N   UNL     1       3.475   5.865  19.530  0.00  0.00    +0.000 N 
ATOM      4  C   UNL     1       4.568   6.616  18.929  0.00  0.00    +0.000 C 
ATOM      5  C   UNL     1       4.811   6.095  17.520  0.00  0.00    +0.000 C 
ATOM      6  C   UNL     1       5.006   4.569  17.455  0.00  0.00    +0.000 C 
ATOM      7  C   UNL     1       3.931   3.823  18.311  0.00  0.00    +0.000 C 
ATOM      8  C   UNL     1       2.524   3.433  17.743  0.00  0.00    +0.000 C 
ATOM      9  C   UNL     1       3.015   1.987  17.548  0.00  0.00    +0.000 C 
ATOM     10  C   UNL     1       4.211   2.292  18.458  0.00  0.00    +0.000 C 
ATOM     11  C   UNL     1       3.787   4.457  19.723  0.00  0.00    +0.000 C 
ENDROOT
BRANCH   1  15
ATOM     12  C   UNL     1       1.072  10.446  19.059  0.00  0.00    +0.000 A 
ATOM     13  C   UNL     1       1.595   9.623  18.055  0.00  0.00    +0.000 A 
ATOM     14  C   UNL     1       1.941   8.286  18.337  0.00  0.00    +0.000 A 
ATOM     15  C   UNL     1       1.784   7.748  19.626  0.00  0.00    +0.000 A 
ATOM     16  C   UNL     1       1.351   8.608  20.627  0.00  0.00    +0.000 A 
ATOM     17  F   UNL     1       1.340   8.241  21.908  0.00  0.00    +0.000 F 
ATOM     18  C   UNL     1       0.948   9.911  20.349  0.00  0.00    +0.000 A 
BRANCH  12  24
ATOM     19  C   UNL     1      -1.797  11.783  18.257  0.00  0.00    +0.000 C 
ATOM     20  C   UNL     1      -0.493  12.422  18.497  0.00  0.00    +0.000 A 
ATOM     21  N   UNL     1      -0.277  13.723  18.406  0.00  0.00    +0.000 NA
ATOM     22  N   UNL     1       1.026  13.928  18.744  0.00  0.00    +0.000 NA
ATOM     23  N   UNL     1       1.621  12.789  19.039  0.00  0.00    +0.000 NA
ATOM     24  N   UNL     1       0.697  11.804  18.865  0.00  0.00    +0.000 N 
ENDBRANCH  12  24
ENDBRANCH   1  15
BRANCH   6  25
ATOM     25  C   UNL     1       5.107   4.148  15.981  0.00  0.00    +0.000 C 
ATOM     26  F   UNL     1       5.749   5.084  15.240  0.00  0.00    +0.000 F 
ATOM     27  F   UNL     1       5.830   3.009  15.871  0.00  0.00    +0.000 F 
ATOM     28  F   UNL     1       3.927   3.938  15.374  0.00  0.00    +0.000 F 
ENDBRANCH   6  25
TORSDOF 3
ENDMDL
