MODEL 1
REMARK VINA RESULT:      -7.1      0.000      0.000
REMARK  Name = 
REMARK  6 active torsions:
REMARK  status: ('A' for Active; 'I' for Inactive)
REMARK    1  A    between atoms: C_1  and  O_2
REMARK    2  A    between atoms: O_2  and  C_3
REMARK    3  A    between atoms: C_3  and  C_5
REMARK    4  A    between atoms: C_7  and  C_8
REMARK    5  A    between atoms: C_13  and  C_14
REMARK    6  A    between atoms: C_16  and  C_17
REMARK                            x       y       z     vdW  Elec       q    Type
REMARK                         _______ _______ _______ _____ _____    ______ ____
ROOT
ATOM      1  C   UNL     1       5.979   4.738  17.520  0.00  0.00    +0.000 C 
ATOM      2  O   UNL     1       6.892   4.320  18.247  0.00  0.00    +0.000 OA
ATOM      3  N   UNL     1       4.896   5.432  18.060  0.00  0.00    +0.000 N 
ATOM      4  C   UNL     1       4.855   5.714  19.493  0.00  0.00    +0.000 C 
ATOM      5  C   UNL     1       3.617   5.073  20.126  0.00  0.00    +0.000 C 
ATOM      6  C   UNL     1       2.311   5.429  19.391  0.00  0.00    +0.000 C 
ATOM      7  C   UNL     1       2.463   5.204  17.880  0.00  0.00    +0.000 C 
ATOM      8  C   UNL     1       3.716   5.874  17.325  0.00  0.00    +0.000 C 
ENDROOT
BRANCH   1  11
ATOM      9  C   UNL     1       6.114   4.253  14.152  0.00  0.00    +0.000 C 
ATOM     10  C   UNL     1       5.519   5.514  14.901  0.00  0.00    +0.000 C 
ATOM     11  C   UNL     1       6.022   4.482  16.038  0.00  0.00    +0.000 C 
ATOM     12  C   UNL     1       7.310   4.436  15.158  0.00  0.00    +0.000 C 
ATOM     13  C   UNL     1       5.576   3.198  15.210  0.00  0.00    +0.000 C 
BRANCH   9  14
ATOM     14  C   UNL     1       6.318   3.981  12.695  0.00  0.00    +0.000 C 
ATOM     15  O   UNL     1       7.330   4.312  12.073  0.00  0.00    +0.000 OA
BRANCH  14  17
ATOM     16  C   UNL     1       5.633   2.099  11.499  0.00  0.00    +0.000 C 
ATOM     17  O   UNL     1       5.267   3.327  12.132  0.00  0.00    +0.000 OA
ENDBRANCH  14  17
ENDBRANCH   9  14
ENDBRANCH   1  11
BRANCH   6  18
ATOM     18  C   UNL     1       1.889   6.851  19.674  0.00  0.00    +0.000 A 
ATOM     19  N   UNL     1       1.403   7.251  20.827  0.00  0.00    +0.000 NA
ATOM     20  C   UNL     1       1.122   8.614  20.815  0.00  0.00    +0.000 A 
ATOM     21  C   UNL     1       1.417   9.226  19.610  0.00  0.00    +0.000 A 
ATOM     22  S   UNL     1       2.050   8.087  18.494  0.00  0.00    +0.000 S 
BRANCH  20  23
ATOM     23  C   UNL     1       0.554   9.283  22.035  0.00  0.00    +0.000 C 
ATOM     24  F   UNL     1       0.298  10.603  21.847  0.00  0.00    +0.000 F 
ATOM     25  F   UNL     1      -0.614   8.707  22.423  0.00  0.00    +0.000 F 
ATOM     26  F   UNL     1       1.404   9.194  23.094  0.00  0.00    +0.000 F 
ENDBRANCH  20  23
ENDBRANCH   6  18
TORSDOF 5
ENDMDL
MODEL 2
REMARK VINA RESULT:      -7.0      3.465      5.150
REMARK  Name = 
REMARK  6 active torsions:
REMARK  status: ('A' for Active; 'I' for Inactive)
REMARK    1  A    between atoms: C_1  and  O_2
REMARK    2  A    between atoms: O_2  and  C_3
REMARK    3  A    between atoms: C_3  and  C_5
REMARK    4  A    between atoms: C_7  and  C_8
REMARK    5  A    between atoms: C_13  and  C_14
REMARK    6  A    between atoms: C_16  and  C_17
REMARK                            x       y       z     vdW  Elec       q    Type
REMARK                         _______ _______ _______ _____ _____    ______ ____
ROOT
ATOM      1  C   UNL     1       2.117   6.700  19.891  0.00  0.00    +0.000 C 
ATOM      2  O   UNL     1       1.704   6.012  20.836  0.00  0.00    +0.000 OA
ATOM      3  N   UNL     1       1.846   8.068  19.830  0.00  0.00    +0.000 N 
ATOM      4  C   UNL     1       1.107   8.711  20.914  0.00  0.00    +0.000 C 
ATOM      5  C   UNL     1      -0.185   9.336  20.380  0.00  0.00    +0.000 C 
ATOM      6  C   UNL     1       0.048  10.253  19.164  0.00  0.00    +0.000 C 
ATOM      7  C   UNL     1       0.916   9.547  18.113  0.00  0.00    +0.000 C 
ATOM      8  C   UNL     1       2.182   8.954  18.722  0.00  0.00    +0.000 C 
ENDROOT
BRANCH   1  11
ATOM      9  C   UNL     1       3.983   5.306  17.406  0.00  0.00    +0.000 C 
ATOM     10  C   UNL     1       3.830   6.850  17.719  0.00  0.00    +0.000 C 
ATOM     11  C   UNL     1       2.906   6.058  18.782  0.00  0.00    +0.000 C 
ATOM     12  C   UNL     1       4.189   5.188  18.961  0.00  0.00    +0.000 C 
ATOM     13  C   UNL     1       2.468   4.951  17.727  0.00  0.00    +0.000 C 
BRANCH   9  14
ATOM     14  C   UNL     1       4.845   4.583  16.420  0.00  0.00    +0.000 C 
ATOM     15  O   UNL     1       5.128   3.387  16.506  0.00  0.00    +0.000 OA
BRANCH  14  17
ATOM     16  C   UNL     1       6.260   4.776  14.575  0.00  0.00    +0.000 C 
ATOM     17  O   UNL     1       5.279   5.390  15.414  0.00  0.00    +0.000 OA
ENDBRANCH  14  17
ENDBRANCH   9  14
ENDBRANCH   1  11
BRANCH   6  18
ATOM     18  C   UNL     1       0.676  11.564  19.574  0.00  0.00    +0.000 A 
ATOM     19  N   UNL     1       1.614  12.170  18.881  0.00  0.00    +0.000 NA
ATOM     20  C   UNL     1       1.990  13.370  19.477  0.00  0.00    +0.000 A 
ATOM     21  C   UNL     1       1.297  13.646  20.643  0.00  0.00    +0.000 A 
ATOM     22  S   UNL     1       0.173  12.397  20.987  0.00  0.00    +0.000 S 
BRANCH  20  23
ATOM     23  C   UNL     1       3.053  14.227  18.852  0.00  0.00    +0.000 C 
ATOM     24  F   UNL     1       3.830  13.551  17.967  0.00  0.00    +0.000 F 
ATOM     25  F   UNL     1       2.517  15.279  18.180  0.00  0.00    +0.000 F 
ATOM     26  F   UNL     1       3.889  14.749  19.790  0.00  0.00    +0.000 F 
ENDBRANCH  20  23
ENDBRANCH   6  18
TORSDOF 5
ENDMDL
MODEL 3
REMARK VINA RESULT:      -6.9      3.540      5.331
REMARK  Name = 
REMARK  6 active torsions:
REMARK  status: ('A' for Active; 'I' for Inactive)
REMARK    1  A    between atoms: C_1  and  O_2
REMARK    2  A    between atoms: O_2  and  C_3
REMARK    3  A    between atoms: C_3  and  C_5
REMARK    4  A    between atoms: C_7  and  C_8
REMARK    5  A    between atoms: C_13  and  C_14
REMARK    6  A    between atoms: C_16  and  C_17
REMARK                            x       y       z     vdW  Elec       q    Type
REMARK                         _______ _______ _______ _____ _____    ______ ____
ROOT
ATOM      1  C   UNL     1       2.094   6.854  19.931  0.00  0.00    +0.000 C 
ATOM      2  O   UNL     1       1.618   6.183  20.857  0.00  0.00    +0.000 OA
ATOM      3  N   UNL     1       1.809   8.215  19.813  0.00  0.00    +0.000 N 
ATOM      4  C   UNL     1       0.976   8.872  20.818  0.00  0.00    +0.000 C 
ATOM      5  C   UNL     1      -0.278   9.462  20.168  0.00  0.00    +0.000 C 
ATOM      6  C   UNL     1       0.037  10.353  18.951  0.00  0.00    +0.000 C 
ATOM      7  C   UNL     1       0.995   9.636  17.990  0.00  0.00    +0.000 C 
ATOM      8  C   UNL     1       2.218   9.079  18.713  0.00  0.00    +0.000 C 
ENDROOT
BRANCH   1  11
ATOM      9  C   UNL     1       4.081   5.280  17.657  0.00  0.00    +0.000 C 
ATOM     10  C   UNL     1       4.168   5.157  19.232  0.00  0.00    +0.000 C 
ATOM     11  C   UNL     1       2.977   6.198  18.905  0.00  0.00    +0.000 C 
ATOM     12  C   UNL     1       2.539   5.088  17.900  0.00  0.00    +0.000 C 
ATOM     13  C   UNL     1       3.740   6.832  17.659  0.00  0.00    +0.000 C 
BRANCH   9  14
ATOM     14  C   UNL     1       4.824   4.565  16.572  0.00  0.00    +0.000 C 
ATOM     15  O   UNL     1       5.016   3.348  16.563  0.00  0.00    +0.000 OA
BRANCH  14  17
ATOM     16  C   UNL     1       5.913   4.733  14.516  0.00  0.00    +0.000 C 
ATOM     17  O   UNL     1       5.261   5.405  15.596  0.00  0.00    +0.000 OA
ENDBRANCH  14  17
ENDBRANCH   9  14
ENDBRANCH   1  11
BRANCH   6  18
ATOM     18  C   UNL     1       0.611  11.684  19.375  0.00  0.00    +0.000 A 
ATOM     19  N   UNL     1       1.590  12.289  18.742  0.00  0.00    +0.000 NA
ATOM     20  C   UNL     1       1.901  13.510  19.334  0.00  0.00    +0.000 A 
ATOM     21  C   UNL     1       1.116  13.801  20.436  0.00  0.00    +0.000 A 
ATOM     22  S   UNL     1      -0.012  12.542  20.724  0.00  0.00    +0.000 S 
BRANCH  20  23
ATOM     23  C   UNL     1       2.996  14.370  18.772  0.00  0.00    +0.000 C 
ATOM     24  F   UNL     1       3.730  14.991  19.730  0.00  0.00    +0.000 F 
ATOM     25  F   UNL     1       3.865  13.645  18.020  0.00  0.00    +0.000 F 
ATOM     26  F   UNL     1       2.500  15.344  17.963  0.00  0.00    +0.000 F 
ENDBRANCH  20  23
ENDBRANCH   6  18
TORSDOF 5
ENDMDL
MODEL 4
REMARK VINA RESULT:      -6.8      3.543      5.451
REMARK  Name = 
REMARK  6 active torsions:
REMARK  status: ('A' for Active; 'I' for Inactive)
REMARK    1  A    between atoms: C_1  and  O_2
REMARK    2  A    between atoms: O_2  and  C_3
REMARK    3  A    between atoms: C_3  and  C_5
REMARK    4  A    between atoms: C_7  and  C_8
REMARK    5  A    between atoms: C_13  and  C_14
REMARK    6  A    between atoms: C_16  and  C_17
REMARK                            x       y       z     vdW  Elec       q    Type
REMARK                         _______ _______ _______ _____ _____    ______ ____
ROOT
ATOM      1  C   UNL     1       2.117   6.875  19.949  0.00  0.00    +0.000 C 
ATOM      2  O   UNL     1       1.598   6.218  20.863  0.00  0.00    +0.000 OA
ATOM      3  N   UNL     1       1.828   8.230  19.789  0.00  0.00    +0.000 N 
ATOM      4  C   UNL     1       0.939   8.900  20.736  0.00  0.00    +0.000 C 
ATOM      5  C   UNL     1      -0.283   9.467  20.010  0.00  0.00    +0.000 C 
ATOM      6  C   UNL     1       0.088  10.336  18.793  0.00  0.00    +0.000 C 
ATOM      7  C   UNL     1       1.101   9.609  17.898  0.00  0.00    +0.000 C 
ATOM      8  C   UNL     1       2.289   9.076  18.694  0.00  0.00    +0.000 C 
ENDROOT
BRANCH   1  11
ATOM      9  C   UNL     1       4.240   5.276  17.820  0.00  0.00    +0.000 C 
ATOM     10  C   UNL     1       4.316   5.283  19.400  0.00  0.00    +0.000 C 
ATOM     11  C   UNL     1       3.058   6.206  18.984  0.00  0.00    +0.000 C 
ATOM     12  C   UNL     1       2.713   4.991  18.067  0.00  0.00    +0.000 C 
ATOM     13  C   UNL     1       3.788   6.794  17.697  0.00  0.00    +0.000 C 
BRANCH   9  14
ATOM     14  C   UNL     1       5.045   4.534  16.800  0.00  0.00    +0.000 C 
ATOM     15  O   UNL     1       4.576   4.086  15.752  0.00  0.00    +0.000 OA
BRANCH  14  17
ATOM     16  C   UNL     1       7.147   5.547  16.807  0.00  0.00    +0.000 C 
ATOM     17  O   UNL     1       6.353   4.410  17.155  0.00  0.00    +0.000 OA
ENDBRANCH  14  17
ENDBRANCH   9  14
ENDBRANCH   1  11
BRANCH   6  18
ATOM     18  C   UNL     1       0.629  11.680  19.220  0.00  0.00    +0.000 A 
ATOM     19  N   UNL     1       1.628  12.286  18.619  0.00  0.00    +0.000 NA
ATOM     20  C   UNL     1       1.900  13.519  19.205  0.00  0.00    +0.000 A 
ATOM     21  C   UNL     1       1.066  13.819  20.268  0.00  0.00    +0.000 A 
ATOM     22  S   UNL     1      -0.060  12.551  20.527  0.00  0.00    +0.000 S 
BRANCH  20  23
ATOM     23  C   UNL     1       3.009  14.383  18.676  0.00  0.00    +0.000 C 
ATOM     24  F   UNL     1       3.959  13.679  18.007  0.00  0.00    +0.000 F 
ATOM     25  F   UNL     1       2.542  15.326  17.816  0.00  0.00    +0.000 F 
ATOM     26  F   UNL     1       3.645  15.048  19.677  0.00  0.00    +0.000 F 
ENDBRANCH  20  23
ENDBRANCH   6  18
TORSDOF 5
ENDMDL
MODEL 5
REMARK VINA RESULT:      -6.8      3.574      5.406
REMARK  Name = 
REMARK  6 active torsions:
REMARK  status: ('A' for Active; 'I' for Inactive)
REMARK    1  A    between atoms: C_1  and  O_2
REMARK    2  A    between atoms: O_2  and  C_3
REMARK    3  A    between atoms: C_3  and  C_5
REMARK    4  A    between atoms: C_7  and  C_8
REMARK    5  A    between atoms: C_13  and  C_14
REMARK    6  A    between atoms: C_16  and  C_17
REMARK                            x       y       z     vdW  Elec       q    Type
REMARK                         _______ _______ _______ _____ _____    ______ ____
ROOT
ATOM      1  C   UNL     1       1.999   6.795  20.064  0.00  0.00    +0.000 C 
ATOM      2  O   UNL     1       1.493   6.178  21.013  0.00  0.00    +0.000 OA
ATOM      3  N   UNL     1       1.788   8.165  19.909  0.00  0.00    +0.000 N 
ATOM      4  C   UNL     1       1.000   8.897  20.899  0.00  0.00    +0.000 C 
ATOM      5  C   UNL     1      -0.224   9.535  20.239  0.00  0.00    +0.000 C 
ATOM      6  C   UNL     1       0.129  10.372  18.995  0.00  0.00    +0.000 C 
ATOM      7  C   UNL     1       1.040   9.576  18.050  0.00  0.00    +0.000 C 
ATOM      8  C   UNL     1       2.236   8.973  18.781  0.00  0.00    +0.000 C 
ENDROOT
BRANCH   1  11
ATOM      9  C   UNL     1       3.830   5.164  17.702  0.00  0.00    +0.000 C 
ATOM     10  C   UNL     1       2.262   5.080  17.906  0.00  0.00    +0.000 C 
ATOM     11  C   UNL     1       2.837   6.062  19.053  0.00  0.00    +0.000 C 
ATOM     12  C   UNL     1       3.592   6.711  17.852  0.00  0.00    +0.000 C 
ATOM     13  C   UNL     1       4.168   5.212  19.253  0.00  0.00    +0.000 C 
BRANCH   9  14
ATOM     14  C   UNL     1       4.716   4.580  16.647  0.00  0.00    +0.000 C 
ATOM     15  O   UNL     1       4.837   3.370  16.448  0.00  0.00    +0.000 OA
BRANCH  14  17
ATOM     16  C   UNL     1       6.795   5.433  16.020  0.00  0.00    +0.000 C 
ATOM     17  O   UNL     1       5.372   5.532  15.929  0.00  0.00    +0.000 OA
ENDBRANCH  14  17
ENDBRANCH   9  14
ENDBRANCH   1  11
BRANCH   6  18
ATOM     18  C   UNL     1       0.779  11.681  19.376  0.00  0.00    +0.000 A 
ATOM     19  N   UNL     1       1.711  12.267  18.659  0.00  0.00    +0.000 NA
ATOM     20  C   UNL     1       2.111  13.471  19.232  0.00  0.00    +0.000 A 
ATOM     21  C   UNL     1       1.443  13.770  20.406  0.00  0.00    +0.000 A 
ATOM     22  S   UNL     1       0.311  12.538  20.787  0.00  0.00    +0.000 S 
BRANCH  20  23
ATOM     23  C   UNL     1       3.172  14.307  18.577  0.00  0.00    +0.000 C 
ATOM     24  F   UNL     1       2.678  15.159  17.642  0.00  0.00    +0.000 F 
ATOM     25  F   UNL     1       3.842  15.066  19.483  0.00  0.00    +0.000 F 
ATOM     26  F   UNL     1       4.102  13.535  17.952  0.00  0.00    +0.000 F 
ENDBRANCH  20  23
ENDBRANCH   6  18
TORSDOF 5
ENDMDL
MODEL 6
REMARK VINA RESULT:      -6.8      4.912      6.538
REMARK  Name = 
REMARK  6 active torsions:
REMARK  status: ('A' for Active; 'I' for Inactive)
REMARK    1  A    between atoms: C_1  and  O_2
REMARK    2  A    between atoms: O_2  and  C_3
REMARK    3  A    between atoms: C_3  and  C_5
REMARK    4  A    between atoms: C_7  and  C_8
REMARK    5  A    between atoms: C_13  and  C_14
REMARK    6  A    between atoms: C_16  and  C_17
REMARK                            x       y       z     vdW  Elec       q    Type
REMARK                         _______ _______ _______ _____ _____    ______ ____
ROOT
ATOM      1  C   UNL     1       2.707   7.606  18.353  0.00  0.00    +0.000 C 
ATOM      2  O   UNL     1       3.569   7.788  17.481  0.00  0.00    +0.000 OA
ATOM      3  N   UNL     1       1.721   8.563  18.595  0.00  0.00    +0.000 N 
ATOM      4  C   UNL     1       1.670   9.776  17.781  0.00  0.00    +0.000 C 
ATOM      5  C   UNL     1       1.835  11.016  18.662  0.00  0.00    +0.000 C 
ATOM      6  C   UNL     1       0.866  11.038  19.860  0.00  0.00    +0.000 C 
ATOM      7  C   UNL     1       0.899   9.697  20.606  0.00  0.00    +0.000 C 
ATOM      8  C   UNL     1       0.727   8.512  19.660  0.00  0.00    +0.000 C 
ENDROOT
BRANCH   1  11
ATOM      9  C   UNL     1       2.652   4.767  20.232  0.00  0.00    +0.000 C 
ATOM     10  C   UNL     1       1.914   6.129  20.558  0.00  0.00    +0.000 C 
ATOM     11  C   UNL     1       2.728   6.349  19.179  0.00  0.00    +0.000 C 
ATOM     12  C   UNL     1       2.062   4.992  18.792  0.00  0.00    +0.000 C 
ATOM     13  C   UNL     1       3.959   5.455  19.647  0.00  0.00    +0.000 C 
BRANCH   9  14
ATOM     14  C   UNL     1       2.616   3.440  20.922  0.00  0.00    +0.000 C 
ATOM     15  O   UNL     1       2.289   3.291  22.101  0.00  0.00    +0.000 OA
BRANCH  14  17
ATOM     16  C   UNL     1       4.370   2.093  20.181  0.00  0.00    +0.000 C 
ATOM     17  O   UNL     1       2.980   2.415  20.105  0.00  0.00    +0.000 OA
ENDBRANCH  14  17
ENDBRANCH   9  14
ENDBRANCH   1  11
BRANCH   6  18
ATOM     18  C   UNL     1      -0.543  11.365  19.424  0.00  0.00    +0.000 A 
ATOM     19  N   UNL     1      -1.045  11.016  18.262  0.00  0.00    +0.000 NA
ATOM     20  C   UNL     1      -2.369  11.426  18.137  0.00  0.00    +0.000 A 
ATOM     21  C   UNL     1      -2.845  12.095  19.251  0.00  0.00    +0.000 A 
ATOM     22  S   UNL     1      -1.628  12.205  20.454  0.00  0.00    +0.000 S 
BRANCH  20  23
ATOM     23  C   UNL     1      -3.140  11.132  16.881  0.00  0.00    +0.000 C 
ATOM     24  F   UNL     1      -2.439  11.407  15.750  0.00  0.00    +0.000 F 
ATOM     25  F   UNL     1      -3.502   9.824  16.811  0.00  0.00    +0.000 F 
ATOM     26  F   UNL     1      -4.288  11.859  16.819  0.00  0.00    +0.000 F 
ENDBRANCH  20  23
ENDBRANCH   6  18
TORSDOF 5
ENDMDL
MODEL 7
REMARK VINA RESULT:      -6.8      1.826      2.550
REMARK  Name = 
REMARK  6 active torsions:
REMARK  status: ('A' for Active; 'I' for Inactive)
REMARK    1  A    between atoms: C_1  and  O_2
REMARK    2  A    between atoms: O_2  and  C_3
REMARK    3  A    between atoms: C_3  and  C_5
REMARK    4  A    between atoms: C_7  and  C_8
REMARK    5  A    between atoms: C_13  and  C_14
REMARK    6  A    between atoms: C_16  and  C_17
REMARK                            x       y       z     vdW  Elec       q    Type
REMARK                         _______ _______ _______ _____ _____    ______ ____
ROOT
ATOM      1  C   UNL     1       6.468   5.538  15.988  0.00  0.00    +0.000 C 
ATOM      2  O   UNL     1       7.436   6.298  16.134  0.00  0.00    +0.000 OA
ATOM      3  N   UNL     1       5.515   5.392  16.997  0.00  0.00    +0.000 N 
ATOM      4  C   UNL     1       5.631   6.177  18.225  0.00  0.00    +0.000 C 
ATOM      5  C   UNL     1       5.759   5.252  19.438  0.00  0.00    +0.000 C 
ATOM      6  C   UNL     1       4.657   4.178  19.496  0.00  0.00    +0.000 C 
ATOM      7  C   UNL     1       4.525   3.465  18.142  0.00  0.00    +0.000 C 
ATOM      8  C   UNL     1       4.400   4.453  16.986  0.00  0.00    +0.000 C 
ENDROOT
BRANCH   1  11
ATOM      9  C   UNL     1       6.054   3.692  13.157  0.00  0.00    +0.000 C 
ATOM     10  C   UNL     1       6.152   3.141  14.637  0.00  0.00    +0.000 C 
ATOM     11  C   UNL     1       6.319   4.746  14.718  0.00  0.00    +0.000 C 
ATOM     12  C   UNL     1       5.061   4.733  13.794  0.00  0.00    +0.000 C 
ATOM     13  C   UNL     1       7.146   4.828  13.361  0.00  0.00    +0.000 C 
BRANCH   9  14
ATOM     14  C   UNL     1       5.773   2.993  11.864  0.00  0.00    +0.000 C 
ATOM     15  O   UNL     1       4.688   3.043  11.282  0.00  0.00    +0.000 OA
BRANCH  14  17
ATOM     16  C   UNL     1       6.545   0.944  11.059  0.00  0.00    +0.000 C 
ATOM     17  O   UNL     1       6.847   2.299  11.400  0.00  0.00    +0.000 OA
ENDBRANCH  14  17
ENDBRANCH   9  14
ENDBRANCH   1  11
BRANCH   6  18
ATOM     18  C   UNL     1       3.331   4.768  19.913  0.00  0.00    +0.000 A 
ATOM     19  N   UNL     1       3.137   6.053  20.112  0.00  0.00    +0.000 NA
ATOM     20  C   UNL     1       1.817   6.318  20.464  0.00  0.00    +0.000 A 
ATOM     21  C   UNL     1       1.024   5.185  20.521  0.00  0.00    +0.000 A 
ATOM     22  S   UNL     1       1.940   3.788  20.129  0.00  0.00    +0.000 S 
BRANCH  20  23
ATOM     23  C   UNL     1       1.373   7.726  20.741  0.00  0.00    +0.000 C 
ATOM     24  F   UNL     1       2.118   8.341  21.695  0.00  0.00    +0.000 F 
ATOM     25  F   UNL     1       1.445   8.501  19.627  0.00  0.00    +0.000 F 
ATOM     26  F   UNL     1       0.081   7.769  21.163  0.00  0.00    +0.000 F 
ENDBRANCH  20  23
ENDBRANCH   6  18
TORSDOF 5
ENDMDL
MODEL 8
REMARK VINA RESULT:      -6.8      3.619      5.513
REMARK  Name = 
REMARK  6 active torsions:
REMARK  status: ('A' for Active; 'I' for Inactive)
REMARK    1  A    between atoms: C_1  and  O_2
REMARK    2  A    between atoms: O_2  and  C_3
REMARK    3  A    between atoms: C_3  and  C_5
REMARK    4  A    between atoms: C_7  and  C_8
REMARK    5  A    between atoms: C_13  and  C_14
REMARK    6  A    between atoms: C_16  and  C_17
REMARK                            x       y       z     vdW  Elec       q    Type
REMARK                         _______ _______ _______ _____ _____    ______ ____
ROOT
ATOM      1  C   UNL     1       2.008   7.262  19.932  0.00  0.00    +0.000 C 
ATOM      2  O   UNL     1       1.717   6.729  21.012  0.00  0.00    +0.000 OA
ATOM      3  N   UNL     1       1.610   8.569  19.650  0.00  0.00    +0.000 N 
ATOM      4  C   UNL     1       0.880   9.340  20.654  0.00  0.00    +0.000 C 
ATOM      5  C   UNL     1      -0.493   9.751  20.116  0.00  0.00    +0.000 C 
ATOM      6  C   UNL     1      -0.418  10.445  18.742  0.00  0.00    +0.000 C 
ATOM      7  C   UNL     1       0.447   9.630  17.771  0.00  0.00    +0.000 C 
ATOM      8  C   UNL     1       1.797   9.261  18.380  0.00  0.00    +0.000 C 
ENDROOT
BRANCH   1  11
ATOM      9  C   UNL     1       3.849   5.578  17.614  0.00  0.00    +0.000 C 
ATOM     10  C   UNL     1       3.736   7.149  17.771  0.00  0.00    +0.000 C 
ATOM     11  C   UNL     1       2.785   6.492  18.899  0.00  0.00    +0.000 C 
ATOM     12  C   UNL     1       4.043   5.610  19.175  0.00  0.00    +0.000 C 
ATOM     13  C   UNL     1       2.323   5.297  17.956  0.00  0.00    +0.000 C 
BRANCH   9  14
ATOM     14  C   UNL     1       4.697   4.738  16.712  0.00  0.00    +0.000 C 
ATOM     15  O   UNL     1       4.376   3.613  16.324  0.00  0.00    +0.000 OA
BRANCH  14  17
ATOM     16  C   UNL     1       7.024   4.590  16.679  0.00  0.00    +0.000 C 
ATOM     17  O   UNL     1       5.858   5.354  16.362  0.00  0.00    +0.000 OA
ENDBRANCH  14  17
ENDBRANCH   9  14
ENDBRANCH   1  11
BRANCH   6  18
ATOM     18  C   UNL     1       0.110  11.855  18.864  0.00  0.00    +0.000 A 
ATOM     19  N   UNL     1       1.360  12.186  18.634  0.00  0.00    +0.000 NA
ATOM     20  C   UNL     1       1.562  13.554  18.797  0.00  0.00    +0.000 A 
ATOM     21  C   UNL     1       0.414  14.239  19.157  0.00  0.00    +0.000 A 
ATOM     22  S   UNL     1      -0.915  13.164  19.287  0.00  0.00    +0.000 S 
BRANCH  20  23
ATOM     23  C   UNL     1       2.923  14.151  18.585  0.00  0.00    +0.000 C 
ATOM     24  F   UNL     1       3.543  14.490  19.745  0.00  0.00    +0.000 F 
ATOM     25  F   UNL     1       3.751  13.292  17.934  0.00  0.00    +0.000 F 
ATOM     26  F   UNL     1       2.860  15.280  17.828  0.00  0.00    +0.000 F 
ENDBRANCH  20  23
ENDBRANCH   6  18
TORSDOF 5
ENDMDL
MODEL 9
REMARK VINA RESULT:      -6.7      3.197      5.012
REMARK  Name = 
REMARK  6 active torsions:
REMARK  status: ('A' for Active; 'I' for Inactive)
REMARK    1  A    between atoms: C_1  and  O_2
REMARK    2  A    between atoms: O_2  and  C_3
REMARK    3  A    between atoms: C_3  and  C_5
REMARK    4  A    between atoms: C_7  and  C_8
REMARK    5  A    between atoms: C_13  and  C_14
REMARK    6  A    between atoms: C_16  and  C_17
REMARK                            x       y       z     vdW  Elec       q    Type
REMARK                         _______ _______ _______ _____ _____    ______ ____
ROOT
ATOM      1  C   UNL     1       1.890   6.694  20.096  0.00  0.00    +0.000 C 
ATOM      2  O   UNL     1       1.406   6.181  21.115  0.00  0.00    +0.000 OA
ATOM      3  N   UNL     1       1.790   8.067  19.869  0.00  0.00    +0.000 N 
ATOM      4  C   UNL     1       1.149   8.923  20.865  0.00  0.00    +0.000 C 
ATOM      5  C   UNL     1      -0.061   9.635  20.254  0.00  0.00    +0.000 C 
ATOM      6  C   UNL     1       0.269  10.363  18.938  0.00  0.00    +0.000 C 
ATOM      7  C   UNL     1       1.031   9.433  17.982  0.00  0.00    +0.000 C 
ATOM      8  C   UNL     1       2.221   8.765  18.663  0.00  0.00    +0.000 C 
ENDROOT
BRANCH   1  11
ATOM      9  C   UNL     1       3.542   4.758  17.833  0.00  0.00    +0.000 C 
ATOM     10  C   UNL     1       3.944   6.216  18.300  0.00  0.00    +0.000 C 
ATOM     11  C   UNL     1       2.581   5.830  19.076  0.00  0.00    +0.000 C 
ATOM     12  C   UNL     1       3.349   4.505  19.373  0.00  0.00    +0.000 C 
ATOM     13  C   UNL     1       1.979   5.041  17.831  0.00  0.00    +0.000 C 
BRANCH   9  14
ATOM     14  C   UNL     1       4.240   3.786  16.935  0.00  0.00    +0.000 C 
ATOM     15  O   UNL     1       4.283   2.572  17.143  0.00  0.00    +0.000 OA
BRANCH  14  17
ATOM     16  C   UNL     1       6.104   3.853  15.534  0.00  0.00    +0.000 C 
ATOM     17  O   UNL     1       4.820   4.388  15.862  0.00  0.00    +0.000 OA
ENDBRANCH  14  17
ENDBRANCH   9  14
ENDBRANCH   1  11
BRANCH   6  18
ATOM     18  C   UNL     1       1.059  11.625  19.188  0.00  0.00    +0.000 A 
ATOM     19  N   UNL     1       0.892  12.392  20.242  0.00  0.00    +0.000 NA
ATOM     20  C   UNL     1       1.768  13.473  20.228  0.00  0.00    +0.000 A 
ATOM     21  C   UNL     1       2.604  13.489  19.125  0.00  0.00    +0.000 A 
ATOM     22  S   UNL     1       2.288  12.144  18.109  0.00  0.00    +0.000 S 
BRANCH  20  23
ATOM     23  C   UNL     1       1.747  14.482  21.341  0.00  0.00    +0.000 C 
ATOM     24  F   UNL     1       1.504  15.746  20.908  0.00  0.00    +0.000 F 
ATOM     25  F   UNL     1       0.791  14.191  22.261  0.00  0.00    +0.000 F 
ATOM     26  F   UNL     1       2.932  14.515  22.007  0.00  0.00    +0.000 F 
ENDBRANCH  20  23
ENDBRANCH   6  18
TORSDOF 5
ENDMDL
