MODEL 1
REMARK VINA RESULT:      -8.4      0.000      0.000
REMARK  Name = 
REMARK  5 active torsions:
REMARK  status: ('A' for Active; 'I' for Inactive)
REMARK    1  A    between atoms: C_1  and  C_2
REMARK    2  A    between atoms: C_3  and  N_4
REMARK    3  A    between atoms: C_5  and  C_7
REMARK    4  A    between atoms: N_20  and  C_21
REMARK    5  A    between atoms: N_27  and  C_28
REMARK                            x       y       z     vdW  Elec       q    Type
REMARK                         _______ _______ _______ _____ _____    ______ ____
ROOT
ATOM      1  N   UNL     1       2.037   7.959  19.485  0.00  0.00    +0.000 N 
ATOM      2  C   UNL     1       1.351   8.848  18.686  0.00  0.00    +0.000 C 
ATOM      3  O   UNL     1       1.090   8.678  17.502  0.00  0.00    +0.000 OA
ATOM      4  H   UNL     1       2.375   8.294  20.384  0.00  0.00    +0.000 HD
ENDROOT
BRANCH   2   5
ATOM      5  C   UNL     1       1.024  10.153  19.366  0.00  0.00    +0.000 A 
ATOM      6  C   UNL     1       1.376  11.287  18.731  0.00  0.00    +0.000 A 
ATOM      7  C   UNL     1       1.011  12.618  19.253  0.00  0.00    +0.000 A 
ATOM      8  O   UNL     1       1.312  13.631  18.635  0.00  0.00    +0.000 OA
ATOM      9  N   UNL     1       0.311  12.654  20.421  0.00  0.00    +0.000 N 
ATOM     10  C   UNL     1      -0.008  11.514  21.165  0.00  0.00    +0.000 A 
ATOM     11  C   UNL     1      -0.677  11.676  22.381  0.00  0.00    +0.000 A 
ATOM     12  C   UNL     1      -0.969  10.562  23.163  0.00  0.00    +0.000 A 
ATOM     13  C   UNL     1      -0.585   9.297  22.729  0.00  0.00    +0.000 A 
ATOM     14  C   UNL     1       0.068   9.138  21.501  0.00  0.00    +0.000 A 
ATOM     15  C   UNL     1       0.363  10.246  20.688  0.00  0.00    +0.000 A 
ATOM     16  H   UNL     1       0.059  13.573  20.757  0.00  0.00    +0.000 HD
ENDBRANCH   2   5
BRANCH   1  19
ATOM     17  C   UNL     1       1.587   4.924  20.599  0.00  0.00    +0.000 C 
ATOM     18  C   UNL     1       2.394   5.464  19.461  0.00  0.00    +0.000 A 
ATOM     19  C   UNL     1       2.595   6.757  19.142  0.00  0.00    +0.000 A 
ATOM     20  C   UNL     1       3.782   6.755  18.224  0.00  0.00    +0.000 A 
ATOM     21  O   UNL     1       4.260   7.785  17.768  0.00  0.00    +0.000 OA
ATOM     22  N   UNL     1       4.143   5.424  18.041  0.00  0.00    +0.000 N 
ATOM     23  N   UNL     1       3.181   4.604  18.665  0.00  0.00    +0.000 N 
ATOM     24  C   UNL     1       3.576   3.267  19.102  0.00  0.00    +0.000 C 
BRANCH  22  25
ATOM     25  C   UNL     1       5.086   4.987  17.098  0.00  0.00    +0.000 A 
ATOM     26  C   UNL     1       4.629   4.608  15.829  0.00  0.00    +0.000 A 
ATOM     27  C   UNL     1       5.530   4.216  14.840  0.00  0.00    +0.000 A 
ATOM     28  C   UNL     1       6.890   4.151  15.128  0.00  0.00    +0.000 A 
ATOM     29  C   UNL     1       7.351   4.492  16.401  0.00  0.00    +0.000 A 
ATOM     30  C   UNL     1       6.452   4.928  17.381  0.00  0.00    +0.000 A 
ENDBRANCH  22  25
ENDBRANCH   1  19
TORSDOF 3
ENDMDL
MODEL 2
REMARK VINA RESULT:      -8.3      2.159      8.921
REMARK  Name = 
REMARK  5 active torsions:
REMARK  status: ('A' for Active; 'I' for Inactive)
REMARK    1  A    between atoms: C_1  and  C_2
REMARK    2  A    between atoms: C_3  and  N_4
REMARK    3  A    between atoms: C_5  and  C_7
REMARK    4  A    between atoms: N_20  and  C_21
REMARK    5  A    between atoms: N_27  and  C_28
REMARK                            x       y       z     vdW  Elec       q    Type
REMARK                         _______ _______ _______ _____ _____    ______ ____
ROOT
ATOM      1  N   UNL     1       1.160   8.618  19.881  0.00  0.00    +0.000 N 
ATOM      2  C   UNL     1       2.078   8.242  18.925  0.00  0.00    +0.000 C 
ATOM      3  O   UNL     1       2.391   8.907  17.945  0.00  0.00    +0.000 OA
ATOM      4  H   UNL     1       0.829   7.904  20.526  0.00  0.00    +0.000 HD
ENDROOT
BRANCH   2   5
ATOM      5  C   UNL     1       2.616   6.846  19.111  0.00  0.00    +0.000 A 
ATOM      6  C   UNL     1       2.195   6.160  20.191  0.00  0.00    +0.000 A 
ATOM      7  C   UNL     1       2.573   4.751  20.415  0.00  0.00    +0.000 A 
ATOM      8  O   UNL     1       2.145   4.141  21.385  0.00  0.00    +0.000 OA
ATOM      9  N   UNL     1       3.384   4.173  19.486  0.00  0.00    +0.000 N 
ATOM     10  C   UNL     1       3.919   4.861  18.392  0.00  0.00    +0.000 A 
ATOM     11  C   UNL     1       4.790   4.181  17.536  0.00  0.00    +0.000 A 
ATOM     12  C   UNL     1       5.370   4.853  16.464  0.00  0.00    +0.000 A 
ATOM     13  C   UNL     1       5.082   6.199  16.259  0.00  0.00    +0.000 A 
ATOM     14  C   UNL     1       4.194   6.871  17.108  0.00  0.00    +0.000 A 
ATOM     15  C   UNL     1       3.586   6.210  18.190  0.00  0.00    +0.000 A 
ATOM     16  H   UNL     1       3.622   3.204  19.648  0.00  0.00    +0.000 HD
ENDBRANCH   2   5
BRANCH   1  19
ATOM     17  C   UNL     1      -0.938   9.948  17.763  0.00  0.00    +0.000 C 
ATOM     18  C   UNL     1      -0.569  10.308  19.168  0.00  0.00    +0.000 A 
ATOM     19  C   UNL     1       0.391   9.750  19.929  0.00  0.00    +0.000 A 
ATOM     20  C   UNL     1       0.629  10.729  21.041  0.00  0.00    +0.000 A 
ATOM     21  O   UNL     1       1.476  10.546  21.905  0.00  0.00    +0.000 OA
ATOM     22  N   UNL     1      -0.274  11.771  20.855  0.00  0.00    +0.000 N 
ATOM     23  N   UNL     1      -1.140  11.435  19.796  0.00  0.00    +0.000 N 
ATOM     24  C   UNL     1      -1.783  12.513  19.047  0.00  0.00    +0.000 C 
BRANCH  22  25
ATOM     25  C   UNL     1      -0.502  12.790  21.793  0.00  0.00    +0.000 A 
ATOM     26  C   UNL     1       0.258  13.963  21.697  0.00  0.00    +0.000 A 
ATOM     27  C   UNL     1       0.034  15.025  22.573  0.00  0.00    +0.000 A 
ATOM     28  C   UNL     1      -0.916  14.902  23.582  0.00  0.00    +0.000 A 
ATOM     29  C   UNL     1      -1.652  13.722  23.708  0.00  0.00    +0.000 A 
ATOM     30  C   UNL     1      -1.459  12.673  22.804  0.00  0.00    +0.000 A 
ENDBRANCH  22  25
ENDBRANCH   1  19
TORSDOF 3
ENDMDL
MODEL 3
REMARK VINA RESULT:      -8.3      2.169      8.951
REMARK  Name = 
REMARK  5 active torsions:
REMARK  status: ('A' for Active; 'I' for Inactive)
REMARK    1  A    between atoms: C_1  and  C_2
REMARK    2  A    between atoms: C_3  and  N_4
REMARK    3  A    between atoms: C_5  and  C_7
REMARK    4  A    between atoms: N_20  and  C_21
REMARK    5  A    between atoms: N_27  and  C_28
REMARK                            x       y       z     vdW  Elec       q    Type
REMARK                         _______ _______ _______ _____ _____    ______ ____
ROOT
ATOM      1  N   UNL     1       1.672   9.118  19.399  0.00  0.00    +0.000 N 
ATOM      2  C   UNL     1       2.163   8.413  18.321  0.00  0.00    +0.000 C 
ATOM      3  O   UNL     1       2.099   8.773  17.153  0.00  0.00    +0.000 OA
ATOM      4  H   UNL     1       1.595   8.630  20.289  0.00  0.00    +0.000 HD
ENDROOT
BRANCH   2   5
ATOM      5  C   UNL     1       2.712   7.056  18.680  0.00  0.00    +0.000 A 
ATOM      6  C   UNL     1       2.256   6.483  19.810  0.00  0.00    +0.000 A 
ATOM      7  C   UNL     1       2.643   5.114  20.201  0.00  0.00    +0.000 A 
ATOM      8  O   UNL     1       2.185   4.605  21.215  0.00  0.00    +0.000 OA
ATOM      9  N   UNL     1       3.499   4.453  19.373  0.00  0.00    +0.000 N 
ATOM     10  C   UNL     1       4.068   5.027  18.231  0.00  0.00    +0.000 A 
ATOM     11  C   UNL     1       4.981   4.274  17.489  0.00  0.00    +0.000 A 
ATOM     12  C   UNL     1       5.595   4.836  16.374  0.00  0.00    +0.000 A 
ATOM     13  C   UNL     1       5.298   6.147  16.012  0.00  0.00    +0.000 A 
ATOM     14  C   UNL     1       4.368   6.891  16.748  0.00  0.00    +0.000 A 
ATOM     15  C   UNL     1       3.726   6.341  17.871  0.00  0.00    +0.000 A 
ATOM     16  H   UNL     1       3.743   3.511  19.648  0.00  0.00    +0.000 HD
ENDBRANCH   2   5
BRANCH   1  19
ATOM     17  C   UNL     1       2.396  12.074  18.218  0.00  0.00    +0.000 C 
ATOM     18  C   UNL     1       1.159  11.526  18.855  0.00  0.00    +0.000 A 
ATOM     19  C   UNL     1       0.993  10.307  19.405  0.00  0.00    +0.000 A 
ATOM     20  C   UNL     1      -0.239  10.423  20.253  0.00  0.00    +0.000 A 
ATOM     21  O   UNL     1      -0.659   9.494  20.929  0.00  0.00    +0.000 OA
ATOM     22  N   UNL     1      -0.726  11.715  20.076  0.00  0.00    +0.000 N 
ATOM     23  N   UNL     1       0.036  12.351  19.075  0.00  0.00    +0.000 N 
ATOM     24  C   UNL     1       0.119  13.810  19.078  0.00  0.00    +0.000 C 
BRANCH  22  25
ATOM     25  C   UNL     1      -1.972  12.157  20.546  0.00  0.00    +0.000 A 
ATOM     26  C   UNL     1      -3.031  12.250  19.634  0.00  0.00    +0.000 A 
ATOM     27  C   UNL     1      -4.301  12.636  20.062  0.00  0.00    +0.000 A 
ATOM     28  C   UNL     1      -4.509  12.979  21.395  0.00  0.00    +0.000 A 
ATOM     29  C   UNL     1      -3.450  12.923  22.303  0.00  0.00    +0.000 A 
ATOM     30  C   UNL     1      -2.186  12.495  21.885  0.00  0.00    +0.000 A 
ENDBRANCH  22  25
ENDBRANCH   1  19
TORSDOF 3
ENDMDL
MODEL 4
REMARK VINA RESULT:      -8.3      1.836      8.220
REMARK  Name = 
REMARK  5 active torsions:
REMARK  status: ('A' for Active; 'I' for Inactive)
REMARK    1  A    between atoms: C_1  and  C_2
REMARK    2  A    between atoms: C_3  and  N_4
REMARK    3  A    between atoms: C_5  and  C_7
REMARK    4  A    between atoms: N_20  and  C_21
REMARK    5  A    between atoms: N_27  and  C_28
REMARK                            x       y       z     vdW  Elec       q    Type
REMARK                         _______ _______ _______ _____ _____    ______ ____
ROOT
ATOM      1  N   UNL     1       1.774   8.555  18.819  0.00  0.00    +0.000 N 
ATOM      2  C   UNL     1       2.293   7.409  19.382  0.00  0.00    +0.000 C 
ATOM      3  O   UNL     1       2.291   7.144  20.577  0.00  0.00    +0.000 OA
ATOM      4  H   UNL     1       2.018   8.760  17.853  0.00  0.00    +0.000 HD
ENDROOT
BRANCH   2   5
ATOM      5  C   UNL     1       2.995   6.510  18.396  0.00  0.00    +0.000 A 
ATOM      6  C   UNL     1       3.935   7.069  17.610  0.00  0.00    +0.000 A 
ATOM      7  C   UNL     1       4.758   6.264  16.686  0.00  0.00    +0.000 A 
ATOM      8  O   UNL     1       5.630   6.793  16.010  0.00  0.00    +0.000 OA
ATOM      9  N   UNL     1       4.516   4.924  16.650  0.00  0.00    +0.000 N 
ATOM     10  C   UNL     1       3.498   4.302  17.381  0.00  0.00    +0.000 A 
ATOM     11  C   UNL     1       3.302   2.928  17.219  0.00  0.00    +0.000 A 
ATOM     12  C   UNL     1       2.269   2.292  17.901  0.00  0.00    +0.000 A 
ATOM     13  C   UNL     1       1.436   3.033  18.734  0.00  0.00    +0.000 A 
ATOM     14  C   UNL     1       1.648   4.406  18.908  0.00  0.00    +0.000 A 
ATOM     15  C   UNL     1       2.692   5.069  18.239  0.00  0.00    +0.000 A 
ATOM     16  H   UNL     1       5.097   4.386  16.022  0.00  0.00    +0.000 HD
ENDBRANCH   2   5
BRANCH   1  19
ATOM     17  C   UNL     1      -0.379   8.795  21.260  0.00  0.00    +0.000 C 
ATOM     18  C   UNL     1       0.407   9.825  20.514  0.00  0.00    +0.000 A 
ATOM     19  C   UNL     1       1.203   9.631  19.445  0.00  0.00    +0.000 A 
ATOM     20  C   UNL     1       1.393  10.992  18.843  0.00  0.00    +0.000 A 
ATOM     21  O   UNL     1       2.044  11.173  17.824  0.00  0.00    +0.000 OA
ATOM     22  N   UNL     1       0.720  11.889  19.666  0.00  0.00    +0.000 N 
ATOM     23  N   UNL     1       0.251  11.198  20.802  0.00  0.00    +0.000 N 
ATOM     24  C   UNL     1      -0.910  11.726  21.515  0.00  0.00    +0.000 C 
BRANCH  22  25
ATOM     25  C   UNL     1       0.818  13.285  19.555  0.00  0.00    +0.000 A 
ATOM     26  C   UNL     1       1.909  13.924  20.157  0.00  0.00    +0.000 A 
ATOM     27  C   UNL     1       2.080  15.302  20.032  0.00  0.00    +0.000 A 
ATOM     28  C   UNL     1       1.134  16.058  19.346  0.00  0.00    +0.000 A 
ATOM     29  C   UNL     1       0.024  15.434  18.773  0.00  0.00    +0.000 A 
ATOM     30  C   UNL     1      -0.126  14.046  18.861  0.00  0.00    +0.000 A 
ENDBRANCH  22  25
ENDBRANCH   1  19
TORSDOF 3
ENDMDL
MODEL 5
REMARK VINA RESULT:      -8.1      2.124      8.633
REMARK  Name = 
REMARK  5 active torsions:
REMARK  status: ('A' for Active; 'I' for Inactive)
REMARK    1  A    between atoms: C_1  and  C_2
REMARK    2  A    between atoms: C_3  and  N_4
REMARK    3  A    between atoms: C_5  and  C_7
REMARK    4  A    between atoms: N_20  and  C_21
REMARK    5  A    between atoms: N_27  and  C_28
REMARK                            x       y       z     vdW  Elec       q    Type
REMARK                         _______ _______ _______ _____ _____    ______ ____
ROOT
ATOM      1  N   UNL     1       1.342   8.739  19.028  0.00  0.00    +0.000 N 
ATOM      2  C   UNL     1       1.963   7.824  19.852  0.00  0.00    +0.000 C 
ATOM      3  O   UNL     1       2.137   7.961  21.056  0.00  0.00    +0.000 OA
ATOM      4  H   UNL     1       1.441   8.614  18.023  0.00  0.00    +0.000 HD
ENDROOT
BRANCH   2   5
ATOM      5  C   UNL     1       2.539   6.638  19.121  0.00  0.00    +0.000 A 
ATOM      6  C   UNL     1       3.357   6.890  18.082  0.00  0.00    +0.000 A 
ATOM      7  C   UNL     1       4.061   5.809  17.364  0.00  0.00    +0.000 A 
ATOM      8  O   UNL     1       4.828   6.069  16.447  0.00  0.00    +0.000 OA
ATOM      9  N   UNL     1       3.833   4.534  17.789  0.00  0.00    +0.000 N 
ATOM     10  C   UNL     1       2.930   4.208  18.807  0.00  0.00    +0.000 A 
ATOM     11  C   UNL     1       2.733   2.861  19.117  0.00  0.00    +0.000 A 
ATOM     12  C   UNL     1       1.808   2.506  20.095  0.00  0.00    +0.000 A 
ATOM     13  C   UNL     1       1.084   3.498  20.750  0.00  0.00    +0.000 A 
ATOM     14  C   UNL     1       1.299   4.848  20.448  0.00  0.00    +0.000 A 
ATOM     15  C   UNL     1       2.237   5.232  19.473  0.00  0.00    +0.000 A 
ATOM     16  H   UNL     1       4.332   3.808  17.295  0.00  0.00    +0.000 HD
ENDBRANCH   2   5
BRANCH   1  19
ATOM     17  C   UNL     1       2.247  11.766  18.205  0.00  0.00    +0.000 C 
ATOM     18  C   UNL     1       1.072  11.245  18.972  0.00  0.00    +0.000 A 
ATOM     19  C   UNL     1       0.840   9.972  19.346  0.00  0.00    +0.000 A 
ATOM     20  C   UNL     1      -0.205  10.063  20.419  0.00  0.00    +0.000 A 
ATOM     21  O   UNL     1      -0.626   9.078  21.010  0.00  0.00    +0.000 OA
ATOM     22  N   UNL     1      -0.537  11.409  20.540  0.00  0.00    +0.000 N 
ATOM     23  N   UNL     1       0.123  12.130  19.524  0.00  0.00    +0.000 N 
ATOM     24  C   UNL     1       0.400  13.549  19.739  0.00  0.00    +0.000 C 
BRANCH  22  25
ATOM     25  C   UNL     1      -1.615  11.888  21.300  0.00  0.00    +0.000 A 
ATOM     26  C   UNL     1      -2.743  12.368  20.623  0.00  0.00    +0.000 A 
ATOM     27  C   UNL     1      -3.861  12.808  21.333  0.00  0.00    +0.000 A 
ATOM     28  C   UNL     1      -3.838  12.817  22.724  0.00  0.00    +0.000 A 
ATOM     29  C   UNL     1      -2.704  12.374  23.407  0.00  0.00    +0.000 A 
ATOM     30  C   UNL     1      -1.599  11.892  22.697  0.00  0.00    +0.000 A 
ENDBRANCH  22  25
ENDBRANCH   1  19
TORSDOF 3
ENDMDL
MODEL 6
REMARK VINA RESULT:      -8.0      2.043      2.812
REMARK  Name = 
REMARK  5 active torsions:
REMARK  status: ('A' for Active; 'I' for Inactive)
REMARK    1  A    between atoms: C_1  and  C_2
REMARK    2  A    between atoms: C_3  and  N_4
REMARK    3  A    between atoms: C_5  and  C_7
REMARK    4  A    between atoms: N_20  and  C_21
REMARK    5  A    between atoms: N_27  and  C_28
REMARK                            x       y       z     vdW  Elec       q    Type
REMARK                         _______ _______ _______ _____ _____    ______ ____
ROOT
ATOM      1  N   UNL     1       1.559   8.662  18.434  0.00  0.00    +0.000 N 
ATOM      2  C   UNL     1       1.070   9.507  19.408  0.00  0.00    +0.000 C 
ATOM      3  O   UNL     1       1.238   9.369  20.613  0.00  0.00    +0.000 OA
ATOM      4  H   UNL     1       1.185   8.757  17.494  0.00  0.00    +0.000 HD
ENDROOT
BRANCH   2   5
ATOM      5  C   UNL     1       0.180  10.600  18.875  0.00  0.00    +0.000 A 
ATOM      6  C   UNL     1      -1.003  10.232  18.348  0.00  0.00    +0.000 A 
ATOM      7  C   UNL     1      -1.998  11.225  17.895  0.00  0.00    +0.000 A 
ATOM      8  O   UNL     1      -3.080  10.863  17.455  0.00  0.00    +0.000 OA
ATOM      9  N   UNL     1      -1.660  12.539  18.019  0.00  0.00    +0.000 N 
ATOM     10  C   UNL     1      -0.414  12.976  18.481  0.00  0.00    +0.000 A 
ATOM     11  C   UNL     1      -0.157  14.350  18.509  0.00  0.00    +0.000 A 
ATOM     12  C   UNL     1       1.089  14.811  18.922  0.00  0.00    +0.000 A 
ATOM     13  C   UNL     1       2.071  13.898  19.299  0.00  0.00    +0.000 A 
ATOM     14  C   UNL     1       1.801  12.524  19.287  0.00  0.00    +0.000 A 
ATOM     15  C   UNL     1       0.546  12.035  18.885  0.00  0.00    +0.000 A 
ATOM     16  H   UNL     1      -2.357  13.205  17.717  0.00  0.00    +0.000 HD
ENDBRANCH   2   5
BRANCH   1  19
ATOM     17  C   UNL     1       1.421   6.260  20.641  0.00  0.00    +0.000 C 
ATOM     18  C   UNL     1       2.217   6.422  19.385  0.00  0.00    +0.000 A 
ATOM     19  C   UNL     1       2.277   7.506  18.588  0.00  0.00    +0.000 A 
ATOM     20  C   UNL     1       3.503   7.308  17.747  0.00  0.00    +0.000 A 
ATOM     21  O   UNL     1       3.877   8.136  16.928  0.00  0.00    +0.000 OA
ATOM     22  N   UNL     1       4.033   6.070  18.098  0.00  0.00    +0.000 N 
ATOM     23  N   UNL     1       3.144   5.435  18.988  0.00  0.00    +0.000 N 
ATOM     24  C   UNL     1       3.674   4.434  19.913  0.00  0.00    +0.000 C 
BRANCH  22  25
ATOM     25  C   UNL     1       5.071   5.433  17.401  0.00  0.00    +0.000 A 
ATOM     26  C   UNL     1       4.749   4.711  16.245  0.00  0.00    +0.000 A 
ATOM     27  C   UNL     1       5.751   4.102  15.489  0.00  0.00    +0.000 A 
ATOM     28  C   UNL     1       7.076   4.170  15.912  0.00  0.00    +0.000 A 
ATOM     29  C   UNL     1       7.400   4.857  17.083  0.00  0.00    +0.000 A 
ATOM     30  C   UNL     1       6.402   5.504  17.818  0.00  0.00    +0.000 A 
ENDBRANCH  22  25
ENDBRANCH   1  19
TORSDOF 3
ENDMDL
MODEL 7
REMARK VINA RESULT:      -8.0      2.164      8.694
REMARK  Name = 
REMARK  5 active torsions:
REMARK  status: ('A' for Active; 'I' for Inactive)
REMARK    1  A    between atoms: C_1  and  C_2
REMARK    2  A    between atoms: C_3  and  N_4
REMARK    3  A    between atoms: C_5  and  C_7
REMARK    4  A    between atoms: N_20  and  C_21
REMARK    5  A    between atoms: N_27  and  C_28
REMARK                            x       y       z     vdW  Elec       q    Type
REMARK                         _______ _______ _______ _____ _____    ______ ____
ROOT
ATOM      1  N   UNL     1       1.345   9.040  18.866  0.00  0.00    +0.000 N 
ATOM      2  C   UNL     1       1.897   8.108  19.718  0.00  0.00    +0.000 C 
ATOM      3  O   UNL     1       1.969   8.218  20.936  0.00  0.00    +0.000 OA
ATOM      4  H   UNL     1       1.527   8.939  17.871  0.00  0.00    +0.000 HD
ENDROOT
BRANCH   2   5
ATOM      5  C   UNL     1       2.536   6.939  19.012  0.00  0.00    +0.000 A 
ATOM      6  C   UNL     1       3.337   7.212  17.965  0.00  0.00    +0.000 A 
ATOM      7  C   UNL     1       4.097   6.156  17.268  0.00  0.00    +0.000 A 
ATOM      8  O   UNL     1       4.847   6.438  16.343  0.00  0.00    +0.000 OA
ATOM      9  N   UNL     1       3.941   4.881  17.722  0.00  0.00    +0.000 N 
ATOM     10  C   UNL     1       3.060   4.528  18.749  0.00  0.00    +0.000 A 
ATOM     11  C   UNL     1       2.937   3.179  19.090  0.00  0.00    +0.000 A 
ATOM     12  C   UNL     1       2.036   2.795  20.079  0.00  0.00    +0.000 A 
ATOM     13  C   UNL     1       1.260   3.760  20.715  0.00  0.00    +0.000 A 
ATOM     14  C   UNL     1       1.400   5.113  20.382  0.00  0.00    +0.000 A 
ATOM     15  C   UNL     1       2.312   5.526  19.396  0.00  0.00    +0.000 A 
ATOM     16  H   UNL     1       4.478   4.172  17.242  0.00  0.00    +0.000 HD
ENDBRANCH   2   5
BRANCH   1  19
ATOM     17  C   UNL     1       2.361  12.087  18.284  0.00  0.00    +0.000 C 
ATOM     18  C   UNL     1       1.098  11.549  18.877  0.00  0.00    +0.000 A 
ATOM     19  C   UNL     1       0.814  10.265  19.169  0.00  0.00    +0.000 A 
ATOM     20  C   UNL     1      -0.355  10.325  20.107  0.00  0.00    +0.000 A 
ATOM     21  O   UNL     1      -0.852   9.322  20.601  0.00  0.00    +0.000 OA
ATOM     22  N   UNL     1      -0.692  11.669  20.240  0.00  0.00    +0.000 N 
ATOM     23  N   UNL     1       0.093  12.422  19.344  0.00  0.00    +0.000 N 
ATOM     24  C   UNL     1       0.349  13.828  19.648  0.00  0.00    +0.000 C 
BRANCH  22  25
ATOM     25  C   UNL     1      -1.854  12.129  20.879  0.00  0.00    +0.000 A 
ATOM     26  C   UNL     1      -1.873  12.159  22.280  0.00  0.00    +0.000 A 
ATOM     27  C   UNL     1      -2.984  12.655  22.961  0.00  0.00    +0.000 A 
ATOM     28  C   UNL     1      -4.103  13.077  22.249  0.00  0.00    +0.000 A 
ATOM     29  C   UNL     1      -4.106  13.016  20.854  0.00  0.00    +0.000 A 
ATOM     30  C   UNL     1      -2.976  12.560  20.168  0.00  0.00    +0.000 A 
ENDBRANCH  22  25
ENDBRANCH   1  19
TORSDOF 3
ENDMDL
MODEL 8
REMARK VINA RESULT:      -7.9      2.413      8.303
REMARK  Name = 
REMARK  5 active torsions:
REMARK  status: ('A' for Active; 'I' for Inactive)
REMARK    1  A    between atoms: C_1  and  C_2
REMARK    2  A    between atoms: C_3  and  N_4
REMARK    3  A    between atoms: C_5  and  C_7
REMARK    4  A    between atoms: N_20  and  C_21
REMARK    5  A    between atoms: N_27  and  C_28
REMARK                            x       y       z     vdW  Elec       q    Type
REMARK                         _______ _______ _______ _____ _____    ______ ____
ROOT
ATOM      1  N   UNL     1       1.550   8.882  17.903  0.00  0.00    +0.000 N 
ATOM      2  C   UNL     1       2.090   7.908  18.715  0.00  0.00    +0.000 C 
ATOM      3  O   UNL     1       1.972   7.858  19.933  0.00  0.00    +0.000 OA
ATOM      4  H   UNL     1       1.886   8.939  16.944  0.00  0.00    +0.000 HD
ENDROOT
BRANCH   2   5
ATOM      5  C   UNL     1       2.969   6.925  17.986  0.00  0.00    +0.000 A 
ATOM      6  C   UNL     1       4.046   7.416  17.343  0.00  0.00    +0.000 A 
ATOM      7  C   UNL     1       5.032   6.534  16.688  0.00  0.00    +0.000 A 
ATOM      8  O   UNL     1       6.021   7.006  16.143  0.00  0.00    +0.000 OA
ATOM      9  N   UNL     1       4.798   5.193  16.747  0.00  0.00    +0.000 N 
ATOM     10  C   UNL     1       3.655   4.633  17.328  0.00  0.00    +0.000 A 
ATOM     11  C   UNL     1       3.492   3.246  17.276  0.00  0.00    +0.000 A 
ATOM     12  C   UNL     1       2.344   2.666  17.808  0.00  0.00    +0.000 A 
ATOM     13  C   UNL     1       1.365   3.474  18.379  0.00  0.00    +0.000 A 
ATOM     14  C   UNL     1       1.543   4.861  18.445  0.00  0.00    +0.000 A 
ATOM     15  C   UNL     1       2.699   5.470  17.926  0.00  0.00    +0.000 A 
ATOM     16  H   UNL     1       5.489   4.604  16.305  0.00  0.00    +0.000 HD
ENDBRANCH   2   5
BRANCH   1  19
ATOM     17  C   UNL     1      -1.647   9.538  17.846  0.00  0.00    +0.000 C 
ATOM     18  C   UNL     1      -0.477  10.304  18.376  0.00  0.00    +0.000 A 
ATOM     19  C   UNL     1       0.827   9.989  18.260  0.00  0.00    +0.000 A 
ATOM     20  C   UNL     1       1.567  11.257  18.569  0.00  0.00    +0.000 A 
ATOM     21  O   UNL     1       2.787  11.333  18.521  0.00  0.00    +0.000 OA
ATOM     22  N   UNL     1       0.607  12.209  18.900  0.00  0.00    +0.000 N 
ATOM     23  N   UNL     1      -0.653  11.580  18.953  0.00  0.00    +0.000 N 
ATOM     24  C   UNL     1      -1.850  12.388  18.727  0.00  0.00    +0.000 C 
BRANCH  22  25
ATOM     25  C   UNL     1       0.904  13.470  19.438  0.00  0.00    +0.000 A 
ATOM     26  C   UNL     1       0.984  13.595  20.831  0.00  0.00    +0.000 A 
ATOM     27  C   UNL     1       1.326  14.815  21.414  0.00  0.00    +0.000 A 
ATOM     28  C   UNL     1       1.540  15.931  20.610  0.00  0.00    +0.000 A 
ATOM     29  C   UNL     1       1.426  15.824  19.222  0.00  0.00    +0.000 A 
ATOM     30  C   UNL     1       1.126  14.591  18.635  0.00  0.00    +0.000 A 
ENDBRANCH  22  25
ENDBRANCH   1  19
TORSDOF 3
ENDMDL
MODEL 9
REMARK VINA RESULT:      -7.8      1.260      2.695
REMARK  Name = 
REMARK  5 active torsions:
REMARK  status: ('A' for Active; 'I' for Inactive)
REMARK    1  A    between atoms: C_1  and  C_2
REMARK    2  A    between atoms: C_3  and  N_4
REMARK    3  A    between atoms: C_5  and  C_7
REMARK    4  A    between atoms: N_20  and  C_21
REMARK    5  A    between atoms: N_27  and  C_28
REMARK                            x       y       z     vdW  Elec       q    Type
REMARK                         _______ _______ _______ _____ _____    ______ ____
ROOT
ATOM      1  N   UNL     1       1.896   7.849  19.677  0.00  0.00    +0.000 N 
ATOM      2  C   UNL     1       1.281   8.822  18.918  0.00  0.00    +0.000 C 
ATOM      3  O   UNL     1       1.110   8.771  17.707  0.00  0.00    +0.000 OA
ATOM      4  H   UNL     1       2.167   8.090  20.627  0.00  0.00    +0.000 HD
ENDROOT
BRANCH   2   5
ATOM      5  C   UNL     1       0.915  10.060  19.696  0.00  0.00    +0.000 A 
ATOM      6  C   UNL     1       0.065   9.913  20.729  0.00  0.00    +0.000 A 
ATOM      7  C   UNL     1      -0.278  11.036  21.623  0.00  0.00    +0.000 A 
ATOM      8  O   UNL     1      -1.025  10.865  22.577  0.00  0.00    +0.000 OA
ATOM      9  N   UNL     1       0.294  12.242  21.348  0.00  0.00    +0.000 N 
ATOM     10  C   UNL     1       1.117  12.472  20.241  0.00  0.00    +0.000 A 
ATOM     11  C   UNL     1       1.599  13.766  20.025  0.00  0.00    +0.000 A 
ATOM     12  C   UNL     1       2.384  14.033  18.907  0.00  0.00    +0.000 A 
ATOM     13  C   UNL     1       2.677  13.008  18.011  0.00  0.00    +0.000 A 
ATOM     14  C   UNL     1       2.207  11.710  18.242  0.00  0.00    +0.000 A 
ATOM     15  C   UNL     1       1.422  11.413  19.371  0.00  0.00    +0.000 A 
ATOM     16  H   UNL     1       0.058  12.997  21.977  0.00  0.00    +0.000 HD
ENDBRANCH   2   5
BRANCH   1  19
ATOM     17  C   UNL     1       1.465   4.744  20.589  0.00  0.00    +0.000 C 
ATOM     18  C   UNL     1       2.277   5.363  19.495  0.00  0.00    +0.000 A 
ATOM     19  C   UNL     1       2.468   6.676  19.262  0.00  0.00    +0.000 A 
ATOM     20  C   UNL     1       3.662   6.744  18.356  0.00  0.00    +0.000 A 
ATOM     21  O   UNL     1       4.134   7.805  17.972  0.00  0.00    +0.000 OA
ATOM     22  N   UNL     1       4.037   5.431  18.091  0.00  0.00    +0.000 N 
ATOM     23  N   UNL     1       3.077   4.564  18.652  0.00  0.00    +0.000 N 
ATOM     24  C   UNL     1       3.481   3.205  19.005  0.00  0.00    +0.000 C 
BRANCH  22  25
ATOM     25  C   UNL     1       4.991   5.064  17.129  0.00  0.00    +0.000 A 
ATOM     26  C   UNL     1       6.343   5.079  17.495  0.00  0.00    +0.000 A 
ATOM     27  C   UNL     1       7.325   4.675  16.592  0.00  0.00    +0.000 A 
ATOM     28  C   UNL     1       6.967   4.302  15.300  0.00  0.00    +0.000 A 
ATOM     29  C   UNL     1       5.625   4.319  14.915  0.00  0.00    +0.000 A 
ATOM     30  C   UNL     1       4.635   4.682  15.833  0.00  0.00    +0.000 A 
ENDBRANCH  22  25
ENDBRANCH   1  19
TORSDOF 3
ENDMDL
