MODEL 1
REMARK VINA RESULT:      -8.0      0.000      0.000
REMARK  Name = 
REMARK  4 active torsions:
REMARK  status: ('A' for Active; 'I' for Inactive)
REMARK    1  A    between atoms: C_1  and  C_2
REMARK    2  A    between atoms: C_3  and  N_4
REMARK    3  A    between atoms: C_5  and  C_7
REMARK    4  A    between atoms: N_18  and  C_19
REMARK                            x       y       z     vdW  Elec       q    Type
REMARK                         _______ _______ _______ _____ _____    ______ ____
ROOT
ATOM      1  N   UNL     1       2.846   7.425  18.665  0.00  0.00    +0.000 N 
ATOM      2  C   UNL     1       2.815   6.045  18.565  0.00  0.00    +0.000 C 
ATOM      3  O   UNL     1       1.947   5.347  19.085  0.00  0.00    +0.000 OA
ATOM      4  H   UNL     1       3.337   7.965  17.969  0.00  0.00    +0.000 HD
ENDROOT
BRANCH   2   5
ATOM      5  C   UNL     1       3.875   5.372  17.758  0.00  0.00    +0.000 A 
ATOM      6  C   UNL     1       3.751   4.064  17.259  0.00  0.00    +0.000 A 
ATOM      7  C   UNL     1       4.699   3.532  16.364  0.00  0.00    +0.000 A 
ATOM      8  C   UNL     1       5.769   4.362  16.019  0.00  0.00    +0.000 A 
ATOM      9  N   UNL     1       6.844   4.221  15.183  0.00  0.00    +0.000 N 
ATOM     10  N   UNL     1       7.628   5.312  15.186  0.00  0.00    +0.000 NA
ATOM     11  N   UNL     1       7.084   6.197  16.014  0.00  0.00    +0.000 NA
ATOM     12  C   UNL     1       5.942   5.641  16.529  0.00  0.00    +0.000 A 
ATOM     13  C   UNL     1       4.989   6.161  17.412  0.00  0.00    +0.000 A 
ATOM     14  H   UNL     1       7.090   3.443  14.580  0.00  0.00    +0.000 HD
ENDBRANCH   2   5
BRANCH   1  17
ATOM     15  C   UNL     1       1.522  10.179  18.001  0.00  0.00    +0.000 C 
ATOM     16  C   UNL     1       1.356   9.310  19.198  0.00  0.00    +0.000 A 
ATOM     17  C   UNL     1       1.949   8.098  19.484  0.00  0.00    +0.000 A 
ATOM     18  C   UNL     1       1.458   7.746  20.758  0.00  0.00    +0.000 A 
ATOM     19  N   UNL     1       0.698   8.702  21.292  0.00  0.00    +0.000 NA
ATOM     20  N   UNL     1       0.530   9.601  20.287  0.00  0.00    +0.000 N 
BRANCH  20  21
ATOM     21  C   UNL     1      -0.339  10.705  20.489  0.00  0.00    +0.000 A 
ATOM     22  C   UNL     1      -0.136  11.540  21.599  0.00  0.00    +0.000 A 
ATOM     23  C   UNL     1      -0.907  12.696  21.760  0.00  0.00    +0.000 A 
ATOM     24  C   UNL     1      -1.911  13.003  20.843  0.00  0.00    +0.000 A 
ATOM     25  C   UNL     1      -2.169  12.134  19.785  0.00  0.00    +0.000 A 
ATOM     26  C   UNL     1      -1.391  10.988  19.619  0.00  0.00    +0.000 A 
ATOM     27  F   UNL     1      -1.758  10.131  18.658  0.00  0.00    +0.000 F 
ENDBRANCH  20  21
ENDBRANCH   1  17
TORSDOF 3
ENDMDL
MODEL 2
REMARK VINA RESULT:      -7.9      1.200      1.221
REMARK  Name = 
REMARK  4 active torsions:
REMARK  status: ('A' for Active; 'I' for Inactive)
REMARK    1  A    between atoms: C_1  and  C_2
REMARK    2  A    between atoms: C_3  and  N_4
REMARK    3  A    between atoms: C_5  and  C_7
REMARK    4  A    between atoms: N_18  and  C_19
REMARK                            x       y       z     vdW  Elec       q    Type
REMARK                         _______ _______ _______ _____ _____    ______ ____
ROOT
ATOM      1  N   UNL     1       2.575   7.510  19.225  0.00  0.00    +0.000 N 
ATOM      2  C   UNL     1       2.635   6.135  19.362  0.00  0.00    +0.000 C 
ATOM      3  O   UNL     1       1.821   5.482  20.011  0.00  0.00    +0.000 OA
ATOM      4  H   UNL     1       3.020   7.954  18.437  0.00  0.00    +0.000 HD
ENDROOT
BRANCH   2   5
ATOM      5  C   UNL     1       3.728   5.403  18.656  0.00  0.00    +0.000 A 
ATOM      6  C   UNL     1       3.544   4.730  17.436  0.00  0.00    +0.000 A 
ATOM      7  C   UNL     1       4.636   4.198  16.724  0.00  0.00    +0.000 A 
ATOM      8  C   UNL     1       5.898   4.360  17.302  0.00  0.00    +0.000 A 
ATOM      9  N   UNL     1       7.166   4.018  16.916  0.00  0.00    +0.000 N 
ATOM     10  N   UNL     1       8.083   4.379  17.828  0.00  0.00    +0.000 NA
ATOM     11  N   UNL     1       7.444   4.973  18.829  0.00  0.00    +0.000 NA
ATOM     12  C   UNL     1       6.107   4.980  18.526  0.00  0.00    +0.000 A 
ATOM     13  C   UNL     1       5.014   5.511  19.220  0.00  0.00    +0.000 A 
ATOM     14  H   UNL     1       7.477   3.569  16.060  0.00  0.00    +0.000 HD
ENDBRANCH   2   5
BRANCH   1  17
ATOM     15  C   UNL     1       1.334  10.222  18.281  0.00  0.00    +0.000 C 
ATOM     16  C   UNL     1       1.087   9.449  19.529  0.00  0.00    +0.000 A 
ATOM     17  C   UNL     1       1.644   8.255  19.939  0.00  0.00    +0.000 A 
ATOM     18  C   UNL     1       1.076   8.007  21.206  0.00  0.00    +0.000 A 
ATOM     19  N   UNL     1       0.303   9.010  21.622  0.00  0.00    +0.000 NA
ATOM     20  N   UNL     1       0.206   9.831  20.543  0.00  0.00    +0.000 N 
BRANCH  20  21
ATOM     21  C   UNL     1      -0.655  10.958  20.612  0.00  0.00    +0.000 A 
ATOM     22  C   UNL     1      -0.536  11.844  21.694  0.00  0.00    +0.000 A 
ATOM     23  C   UNL     1      -1.296  13.018  21.729  0.00  0.00    +0.000 A 
ATOM     24  C   UNL     1      -2.205  13.295  20.709  0.00  0.00    +0.000 A 
ATOM     25  C   UNL     1      -2.383  12.379  19.675  0.00  0.00    +0.000 A 
ATOM     26  C   UNL     1      -1.617  11.215  19.637  0.00  0.00    +0.000 A 
ATOM     27  F   UNL     1      -1.912  10.316  18.688  0.00  0.00    +0.000 F 
ENDBRANCH  20  21
ENDBRANCH   1  17
TORSDOF 3
ENDMDL
MODEL 3
REMARK VINA RESULT:      -7.9      5.548      8.385
REMARK  Name = 
REMARK  4 active torsions:
REMARK  status: ('A' for Active; 'I' for Inactive)
REMARK    1  A    between atoms: C_1  and  C_2
REMARK    2  A    between atoms: C_3  and  N_4
REMARK    3  A    between atoms: C_5  and  C_7
REMARK    4  A    between atoms: N_18  and  C_19
REMARK                            x       y       z     vdW  Elec       q    Type
REMARK                         _______ _______ _______ _____ _____    ______ ____
ROOT
ATOM      1  N   UNL     1       7.440   8.231  17.364  0.00  0.00    +0.000 N 
ATOM      2  C   UNL     1       8.316   8.921  18.182  0.00  0.00    +0.000 C 
ATOM      3  O   UNL     1       8.867   8.421  19.160  0.00  0.00    +0.000 OA
ATOM      4  H   UNL     1       7.291   8.541  16.417  0.00  0.00    +0.000 HD
ENDROOT
BRANCH   2   5
ATOM      5  C   UNL     1       8.633  10.339  17.839  0.00  0.00    +0.000 A 
ATOM      6  C   UNL     1       7.661  11.270  17.434  0.00  0.00    +0.000 A 
ATOM      7  C   UNL     1       7.976  12.634  17.282  0.00  0.00    +0.000 A 
ATOM      8  C   UNL     1       9.300  13.003  17.538  0.00  0.00    +0.000 A 
ATOM      9  N   UNL     1       9.968  14.198  17.527  0.00  0.00    +0.000 N 
ATOM     10  N   UNL     1      11.266  14.049  17.836  0.00  0.00    +0.000 NA
ATOM     11  N   UNL     1      11.482  12.758  18.065  0.00  0.00    +0.000 NA
ATOM     12  C   UNL     1      10.291  12.100  17.896  0.00  0.00    +0.000 A 
ATOM     13  C   UNL     1       9.963  10.748  18.050  0.00  0.00    +0.000 A 
ATOM     14  H   UNL     1       9.612  15.131  17.346  0.00  0.00    +0.000 HD
ENDBRANCH   2   5
BRANCH   1  17
ATOM     15  C   UNL     1       4.484   7.212  17.279  0.00  0.00    +0.000 C 
ATOM     16  C   UNL     1       5.728   6.484  17.651  0.00  0.00    +0.000 A 
ATOM     17  C   UNL     1       7.028   6.944  17.690  0.00  0.00    +0.000 A 
ATOM     18  C   UNL     1       7.788   5.846  18.141  0.00  0.00    +0.000 A 
ATOM     19  N   UNL     1       7.026   4.801  18.468  0.00  0.00    +0.000 NA
ATOM     20  N   UNL     1       5.781   5.145  18.046  0.00  0.00    +0.000 N 
BRANCH  20  21
ATOM     21  C   UNL     1       4.735   4.191  18.139  0.00  0.00    +0.000 A 
ATOM     22  C   UNL     1       4.401   3.664  19.397  0.00  0.00    +0.000 A 
ATOM     23  C   UNL     1       3.304   2.807  19.532  0.00  0.00    +0.000 A 
ATOM     24  C   UNL     1       2.560   2.438  18.412  0.00  0.00    +0.000 A 
ATOM     25  C   UNL     1       2.937   2.896  17.152  0.00  0.00    +0.000 A 
ATOM     26  C   UNL     1       4.024   3.759  17.020  0.00  0.00    +0.000 A 
ATOM     27  F   UNL     1       4.413   4.073  15.778  0.00  0.00    +0.000 F 
ENDBRANCH  20  21
ENDBRANCH   1  17
TORSDOF 3
ENDMDL
MODEL 4
REMARK VINA RESULT:      -7.8      2.409      3.358
REMARK  Name = 
REMARK  4 active torsions:
REMARK  status: ('A' for Active; 'I' for Inactive)
REMARK    1  A    between atoms: C_1  and  C_2
REMARK    2  A    between atoms: C_3  and  N_4
REMARK    3  A    between atoms: C_5  and  C_7
REMARK    4  A    between atoms: N_18  and  C_19
REMARK                            x       y       z     vdW  Elec       q    Type
REMARK                         _______ _______ _______ _____ _____    ______ ____
ROOT
ATOM      1  N   UNL     1       1.862   8.406  19.582  0.00  0.00    +0.000 N 
ATOM      2  C   UNL     1       2.378   8.014  18.360  0.00  0.00    +0.000 C 
ATOM      3  O   UNL     1       2.278   8.686  17.335  0.00  0.00    +0.000 OA
ATOM      4  H   UNL     1       2.250   8.028  20.433  0.00  0.00    +0.000 HD
ENDROOT
BRANCH   2   5
ATOM      5  C   UNL     1       3.123   6.723  18.290  0.00  0.00    +0.000 A 
ATOM      6  C   UNL     1       4.229   6.514  17.449  0.00  0.00    +0.000 A 
ATOM      7  C   UNL     1       5.002   5.341  17.538  0.00  0.00    +0.000 A 
ATOM      8  C   UNL     1       4.601   4.397  18.487  0.00  0.00    +0.000 A 
ATOM      9  N   UNL     1       5.095   3.183  18.881  0.00  0.00    +0.000 N 
ATOM     10  N   UNL     1       4.345   2.625  19.846  0.00  0.00    +0.000 NA
ATOM     11  N   UNL     1       3.347   3.460  20.114  0.00  0.00    +0.000 NA
ATOM     12  C   UNL     1       3.488   4.555  19.301  0.00  0.00    +0.000 A 
ATOM     13  C   UNL     1       2.732   5.729  19.208  0.00  0.00    +0.000 A 
ATOM     14  H   UNL     1       5.926   2.695  18.565  0.00  0.00    +0.000 HD
ENDBRANCH   2   5
BRANCH   1  17
ATOM     15  C   UNL     1      -0.554   8.746  21.538  0.00  0.00    +0.000 C 
ATOM     16  C   UNL     1       0.009   9.706  20.550  0.00  0.00    +0.000 A 
ATOM     17  C   UNL     1       1.073   9.545  19.688  0.00  0.00    +0.000 A 
ATOM     18  C   UNL     1       1.140  10.754  18.965  0.00  0.00    +0.000 A 
ATOM     19  N   UNL     1       0.136  11.580  19.262  0.00  0.00    +0.000 NA
ATOM     20  N   UNL     1      -0.479  10.995  20.323  0.00  0.00    +0.000 N 
BRANCH  20  21
ATOM     21  C   UNL     1      -1.538  11.685  20.970  0.00  0.00    +0.000 A 
ATOM     22  C   UNL     1      -2.560  12.252  20.192  0.00  0.00    +0.000 A 
ATOM     23  C   UNL     1      -3.669  12.841  20.809  0.00  0.00    +0.000 A 
ATOM     24  C   UNL     1      -3.746  12.905  22.200  0.00  0.00    +0.000 A 
ATOM     25  C   UNL     1      -2.696  12.414  22.972  0.00  0.00    +0.000 A 
ATOM     26  C   UNL     1      -1.597  11.818  22.357  0.00  0.00    +0.000 A 
ATOM     27  F   UNL     1      -0.567  11.472  23.140  0.00  0.00    +0.000 F 
ENDBRANCH  20  21
ENDBRANCH   1  17
TORSDOF 3
ENDMDL
MODEL 5
REMARK VINA RESULT:      -7.8      1.939      2.666
REMARK  Name = 
REMARK  4 active torsions:
REMARK  status: ('A' for Active; 'I' for Inactive)
REMARK    1  A    between atoms: C_1  and  C_2
REMARK    2  A    between atoms: C_3  and  N_4
REMARK    3  A    between atoms: C_5  and  C_7
REMARK    4  A    between atoms: N_18  and  C_19
REMARK                            x       y       z     vdW  Elec       q    Type
REMARK                         _______ _______ _______ _____ _____    ______ ____
ROOT
ATOM      1  N   UNL     1       1.812   8.410  19.464  0.00  0.00    +0.000 N 
ATOM      2  C   UNL     1       2.297   8.132  18.199  0.00  0.00    +0.000 C 
ATOM      3  O   UNL     1       2.208   8.912  17.253  0.00  0.00    +0.000 OA
ATOM      4  H   UNL     1       2.196   7.930  20.263  0.00  0.00    +0.000 HD
ENDROOT
BRANCH   2   5
ATOM      5  C   UNL     1       2.994   6.830  17.980  0.00  0.00    +0.000 A 
ATOM      6  C   UNL     1       2.396   5.584  18.235  0.00  0.00    +0.000 A 
ATOM      7  C   UNL     1       3.027   4.383  17.857  0.00  0.00    +0.000 A 
ATOM      8  C   UNL     1       4.275   4.498  17.239  0.00  0.00    +0.000 A 
ATOM      9  N   UNL     1       5.160   3.593  16.719  0.00  0.00    +0.000 N 
ATOM     10  N   UNL     1       6.258   4.190  16.228  0.00  0.00    +0.000 NA
ATOM     11  N   UNL     1       6.119   5.499  16.405  0.00  0.00    +0.000 NA
ATOM     12  C   UNL     1       4.909   5.712  17.014  0.00  0.00    +0.000 A 
ATOM     13  C   UNL     1       4.269   6.899  17.388  0.00  0.00    +0.000 A 
ATOM     14  H   UNL     1       5.077   2.584  16.644  0.00  0.00    +0.000 HD
ENDBRANCH   2   5
BRANCH   1  17
ATOM     15  C   UNL     1      -0.592   8.612  21.455  0.00  0.00    +0.000 C 
ATOM     16  C   UNL     1       0.008   9.658  20.582  0.00  0.00    +0.000 A 
ATOM     17  C   UNL     1       1.066   9.558  19.703  0.00  0.00    +0.000 A 
ATOM     18  C   UNL     1       1.179  10.838  19.124  0.00  0.00    +0.000 A 
ATOM     19  N   UNL     1       0.207  11.662  19.518  0.00  0.00    +0.000 NA
ATOM     20  N   UNL     1      -0.431  10.982  20.507  0.00  0.00    +0.000 N 
BRANCH  20  21
ATOM     21  C   UNL     1      -1.464  11.632  21.232  0.00  0.00    +0.000 A 
ATOM     22  C   UNL     1      -2.453  12.338  20.529  0.00  0.00    +0.000 A 
ATOM     23  C   UNL     1      -3.540  12.894  21.212  0.00  0.00    +0.000 A 
ATOM     24  C   UNL     1      -3.627  12.785  22.600  0.00  0.00    +0.000 A 
ATOM     25  C   UNL     1      -2.606  12.155  23.307  0.00  0.00    +0.000 A 
ATOM     26  C   UNL     1      -1.529  11.592  22.624  0.00  0.00    +0.000 A 
ATOM     27  F   UNL     1      -0.521  11.104  23.361  0.00  0.00    +0.000 F 
ENDBRANCH  20  21
ENDBRANCH   1  17
TORSDOF 3
ENDMDL
MODEL 6
REMARK VINA RESULT:      -7.7      2.454      3.241
REMARK  Name = 
REMARK  4 active torsions:
REMARK  status: ('A' for Active; 'I' for Inactive)
REMARK    1  A    between atoms: C_1  and  C_2
REMARK    2  A    between atoms: C_3  and  N_4
REMARK    3  A    between atoms: C_5  and  C_7
REMARK    4  A    between atoms: N_18  and  C_19
REMARK                            x       y       z     vdW  Elec       q    Type
REMARK                         _______ _______ _______ _____ _____    ______ ____
ROOT
ATOM      1  N   UNL     1       1.828   8.014  19.442  0.00  0.00    +0.000 N 
ATOM      2  C   UNL     1       2.431   7.778  18.219  0.00  0.00    +0.000 C 
ATOM      3  O   UNL     1       2.502   8.619  17.325  0.00  0.00    +0.000 OA
ATOM      4  H   UNL     1       2.088   7.458  20.242  0.00  0.00    +0.000 HD
ENDROOT
BRANCH   2   5
ATOM      5  C   UNL     1       3.057   6.443  17.986  0.00  0.00    +0.000 A 
ATOM      6  C   UNL     1       4.444   6.250  17.871  0.00  0.00    +0.000 A 
ATOM      7  C   UNL     1       4.999   4.957  17.820  0.00  0.00    +0.000 A 
ATOM      8  C   UNL     1       4.100   3.888  17.873  0.00  0.00    +0.000 A 
ATOM      9  N   UNL     1       4.249   2.527  17.877  0.00  0.00    +0.000 N 
ATOM     10  N   UNL     1       3.066   1.894  17.928  0.00  0.00    +0.000 NA
ATOM     11  N   UNL     1       2.114   2.819  17.967  0.00  0.00    +0.000 NA
ATOM     12  C   UNL     1       2.723   4.047  17.942  0.00  0.00    +0.000 A 
ATOM     13  C   UNL     1       2.185   5.337  17.999  0.00  0.00    +0.000 A 
ATOM     14  H   UNL     1       5.100   1.974  17.870  0.00  0.00    +0.000 HD
ENDBRANCH   2   5
BRANCH   1  17
ATOM     15  C   UNL     1       1.427   9.330  22.251  0.00  0.00    +0.000 C 
ATOM     16  C   UNL     1       0.964   9.789  20.912  0.00  0.00    +0.000 A 
ATOM     17  C   UNL     1       1.142   9.198  19.678  0.00  0.00    +0.000 A 
ATOM     18  C   UNL     1       0.469  10.043  18.772  0.00  0.00    +0.000 A 
ATOM     19  N   UNL     1      -0.178  11.034  19.386  0.00  0.00    +0.000 NA
ATOM     20  N   UNL     1       0.230  10.955  20.679  0.00  0.00    +0.000 N 
BRANCH  20  21
ATOM     21  C   UNL     1      -0.189  11.954  21.596  0.00  0.00    +0.000 A 
ATOM     22  C   UNL     1       0.342  13.249  21.485  0.00  0.00    +0.000 A 
ATOM     23  C   UNL     1      -0.136  14.278  22.304  0.00  0.00    +0.000 A 
ATOM     24  C   UNL     1      -1.112  14.014  23.263  0.00  0.00    +0.000 A 
ATOM     25  C   UNL     1      -1.583  12.714  23.429  0.00  0.00    +0.000 A 
ATOM     26  C   UNL     1      -1.114  11.692  22.605  0.00  0.00    +0.000 A 
ATOM     27  F   UNL     1      -1.512  10.444  22.886  0.00  0.00    +0.000 F 
ENDBRANCH  20  21
ENDBRANCH   1  17
TORSDOF 3
ENDMDL
MODEL 7
REMARK VINA RESULT:      -7.7      2.468      3.265
REMARK  Name = 
REMARK  4 active torsions:
REMARK  status: ('A' for Active; 'I' for Inactive)
REMARK    1  A    between atoms: C_1  and  C_2
REMARK    2  A    between atoms: C_3  and  N_4
REMARK    3  A    between atoms: C_5  and  C_7
REMARK    4  A    between atoms: N_18  and  C_19
REMARK                            x       y       z     vdW  Elec       q    Type
REMARK                         _______ _______ _______ _____ _____    ______ ____
ROOT
ATOM      1  N   UNL     1       1.789   8.014  19.328  0.00  0.00    +0.000 N 
ATOM      2  C   UNL     1       2.464   7.793  18.141  0.00  0.00    +0.000 C 
ATOM      3  O   UNL     1       2.587   8.644  17.263  0.00  0.00    +0.000 OA
ATOM      4  H   UNL     1       2.001   7.449  20.136  0.00  0.00    +0.000 HD
ENDROOT
BRANCH   2   5
ATOM      5  C   UNL     1       3.103   6.460  17.930  0.00  0.00    +0.000 A 
ATOM      6  C   UNL     1       4.487   6.286  17.765  0.00  0.00    +0.000 A 
ATOM      7  C   UNL     1       5.062   5.001  17.738  0.00  0.00    +0.000 A 
ATOM      8  C   UNL     1       4.186   3.920  17.865  0.00  0.00    +0.000 A 
ATOM      9  N   UNL     1       4.358   2.563  17.911  0.00  0.00    +0.000 N 
ATOM     10  N   UNL     1       3.190   1.912  18.032  0.00  0.00    +0.000 NA
ATOM     11  N   UNL     1       2.224   2.823  18.077  0.00  0.00    +0.000 NA
ATOM     12  C   UNL     1       2.810   4.059  17.984  0.00  0.00    +0.000 A 
ATOM     13  C   UNL     1       2.251   5.342  18.017  0.00  0.00    +0.000 A 
ATOM     14  H   UNL     1       5.218   2.024  17.889  0.00  0.00    +0.000 HD
ENDBRANCH   2   5
BRANCH   1  17
ATOM     15  C   UNL     1       1.232   9.304  22.123  0.00  0.00    +0.000 C 
ATOM     16  C   UNL     1       0.842   9.775  20.765  0.00  0.00    +0.000 A 
ATOM     17  C   UNL     1       1.089   9.195  19.538  0.00  0.00    +0.000 A 
ATOM     18  C   UNL     1       0.465  10.048  18.603  0.00  0.00    +0.000 A 
ATOM     19  N   UNL     1      -0.216  11.033  19.189  0.00  0.00    +0.000 NA
ATOM     20  N   UNL     1       0.121  10.942  20.503  0.00  0.00    +0.000 N 
BRANCH  20  21
ATOM     21  C   UNL     1      -0.350  11.933  21.404  0.00  0.00    +0.000 A 
ATOM     22  C   UNL     1      -1.417  11.624  22.262  0.00  0.00    +0.000 A 
ATOM     23  C   UNL     1      -1.827  12.543  23.234  0.00  0.00    +0.000 A 
ATOM     24  C   UNL     1      -1.206  13.788  23.328  0.00  0.00    +0.000 A 
ATOM     25  C   UNL     1      -0.201  14.127  22.426  0.00  0.00    +0.000 A 
ATOM     26  C   UNL     1       0.215  13.206  21.465  0.00  0.00    +0.000 A 
ATOM     27  F   UNL     1       1.099  13.627  20.552  0.00  0.00    +0.000 F 
ENDBRANCH  20  21
ENDBRANCH   1  17
TORSDOF 3
ENDMDL
MODEL 8
REMARK VINA RESULT:      -7.7      2.294      3.057
REMARK  Name = 
REMARK  4 active torsions:
REMARK  status: ('A' for Active; 'I' for Inactive)
REMARK    1  A    between atoms: C_1  and  C_2
REMARK    2  A    between atoms: C_3  and  N_4
REMARK    3  A    between atoms: C_5  and  C_7
REMARK    4  A    between atoms: N_18  and  C_19
REMARK                            x       y       z     vdW  Elec       q    Type
REMARK                         _______ _______ _______ _____ _____    ______ ____
ROOT
ATOM      1  N   UNL     1       1.896   8.147  19.396  0.00  0.00    +0.000 N 
ATOM      2  C   UNL     1       2.421   7.818  18.159  0.00  0.00    +0.000 C 
ATOM      3  O   UNL     1       2.448   8.593  17.206  0.00  0.00    +0.000 OA
ATOM      4  H   UNL     1       2.196   7.644  20.216  0.00  0.00    +0.000 HD
ENDROOT
BRANCH   2   5
ATOM      5  C   UNL     1       3.014   6.459  17.984  0.00  0.00    +0.000 A 
ATOM      6  C   UNL     1       4.396   6.209  18.033  0.00  0.00    +0.000 A 
ATOM      7  C   UNL     1       4.900   4.894  18.030  0.00  0.00    +0.000 A 
ATOM      8  C   UNL     1       3.958   3.863  17.959  0.00  0.00    +0.000 A 
ATOM      9  N   UNL     1       4.050   2.498  17.962  0.00  0.00    +0.000 N 
ATOM     10  N   UNL     1       2.844   1.914  17.861  0.00  0.00    +0.000 NA
ATOM     11  N   UNL     1       1.933   2.879  17.799  0.00  0.00    +0.000 NA
ATOM     12  C   UNL     1       2.591   4.080  17.865  0.00  0.00    +0.000 A 
ATOM     13  C   UNL     1       2.103   5.391  17.875  0.00  0.00    +0.000 A 
ATOM     14  H   UNL     1       4.872   1.909  18.048  0.00  0.00    +0.000 HD
ENDBRANCH   2   5
BRANCH   1  17
ATOM     15  C   UNL     1      -0.329   8.664  21.532  0.00  0.00    +0.000 C 
ATOM     16  C   UNL     1       0.261   9.595  20.532  0.00  0.00    +0.000 A 
ATOM     17  C   UNL     1       1.240   9.356  19.590  0.00  0.00    +0.000 A 
ATOM     18  C   UNL     1       1.381  10.576  18.897  0.00  0.00    +0.000 A 
ATOM     19  N   UNL     1       0.493  11.490  19.289  0.00  0.00    +0.000 NA
ATOM     20  N   UNL     1      -0.105  10.934  20.376  0.00  0.00    +0.000 N 
BRANCH  20  21
ATOM     21  C   UNL     1      -1.038  11.706  21.118  0.00  0.00    +0.000 A 
ATOM     22  C   UNL     1      -0.735  12.055  22.443  0.00  0.00    +0.000 A 
ATOM     23  C   UNL     1      -1.586  12.905  23.158  0.00  0.00    +0.000 A 
ATOM     24  C   UNL     1      -2.759  13.378  22.573  0.00  0.00    +0.000 A 
ATOM     25  C   UNL     1      -3.101  12.969  21.286  0.00  0.00    +0.000 A 
ATOM     26  C   UNL     1      -2.248  12.131  20.571  0.00  0.00    +0.000 A 
ATOM     27  F   UNL     1      -2.682  11.676  19.388  0.00  0.00    +0.000 F 
ENDBRANCH  20  21
ENDBRANCH   1  17
TORSDOF 3
ENDMDL
MODEL 9
REMARK VINA RESULT:      -7.6      2.805      9.076
REMARK  Name = 
REMARK  4 active torsions:
REMARK  status: ('A' for Active; 'I' for Inactive)
REMARK    1  A    between atoms: C_1  and  C_2
REMARK    2  A    between atoms: C_3  and  N_4
REMARK    3  A    between atoms: C_5  and  C_7
REMARK    4  A    between atoms: N_18  and  C_19
REMARK                            x       y       z     vdW  Elec       q    Type
REMARK                         _______ _______ _______ _____ _____    ______ ____
ROOT
ATOM      1  N   UNL     1       0.907   9.867  19.837  0.00  0.00    +0.000 N 
ATOM      2  C   UNL     1      -0.242  10.431  19.313  0.00  0.00    +0.000 C 
ATOM      3  O   UNL     1      -0.761  10.059  18.263  0.00  0.00    +0.000 OA
ATOM      4  H   UNL     1       1.097   9.945  20.824  0.00  0.00    +0.000 HD
ENDROOT
BRANCH   2   5
ATOM      5  C   UNL     1      -0.903  11.528  20.080  0.00  0.00    +0.000 A 
ATOM      6  C   UNL     1      -2.141  12.085  19.718  0.00  0.00    +0.000 A 
ATOM      7  C   UNL     1      -2.805  12.996  20.561  0.00  0.00    +0.000 A 
ATOM      8  C   UNL     1      -2.161  13.326  21.757  0.00  0.00    +0.000 A 
ATOM      9  N   UNL     1      -2.488  14.128  22.817  0.00  0.00    +0.000 N 
ATOM     10  N   UNL     1      -1.525  14.140  23.753  0.00  0.00    +0.000 NA
ATOM     11  N   UNL     1      -0.548  13.343  23.336  0.00  0.00    +0.000 NA
ATOM     12  C   UNL     1      -0.919  12.827  22.121  0.00  0.00    +0.000 A 
ATOM     13  C   UNL     1      -0.272  11.917  21.278  0.00  0.00    +0.000 A 
ATOM     14  H   UNL     1      -3.334  14.665  22.979  0.00  0.00    +0.000 HD
ENDBRANCH   2   5
BRANCH   1  17
ATOM     15  C   UNL     1       1.532   6.966  20.824  0.00  0.00    +0.000 C 
ATOM     16  C   UNL     1       1.899   7.633  19.544  0.00  0.00    +0.000 A 
ATOM     17  C   UNL     1       1.623   8.916  19.120  0.00  0.00    +0.000 A 
ATOM     18  C   UNL     1       2.235   9.019  17.854  0.00  0.00    +0.000 A 
ATOM     19  N   UNL     1       2.937   7.930  17.539  0.00  0.00    +0.000 NA
ATOM     20  N   UNL     1       2.625   7.034  18.512  0.00  0.00    +0.000 N 
BRANCH  20  21
ATOM     21  C   UNL     1       3.123   5.708  18.412  0.00  0.00    +0.000 A 
ATOM     22  C   UNL     1       4.440   5.441  18.817  0.00  0.00    +0.000 A 
ATOM     23  C   UNL     1       4.918   4.126  18.831  0.00  0.00    +0.000 A 
ATOM     24  C   UNL     1       4.103   3.078  18.404  0.00  0.00    +0.000 A 
ATOM     25  C   UNL     1       2.824   3.351  17.926  0.00  0.00    +0.000 A 
ATOM     26  C   UNL     1       2.345   4.660  17.923  0.00  0.00    +0.000 A 
ATOM     27  F   UNL     1       1.156   4.878  17.345  0.00  0.00    +0.000 F 
ENDBRANCH  20  21
ENDBRANCH   1  17
TORSDOF 3
ENDMDL
