MODEL 1
REMARK VINA RESULT:      -8.9      0.000      0.000
REMARK  Name = 
REMARK  4 active torsions:
REMARK  status: ('A' for Active; 'I' for Inactive)
REMARK    1  A    between atoms: S_2  and  N_4
REMARK    2  A    between atoms: S_2  and  C_21
REMARK    3  A    between atoms: N_4  and  C_5
REMARK    4  A    between atoms: C_8  and  C_9
REMARK                            x       y       z     vdW  Elec       q    Type
REMARK                         _______ _______ _______ _____ _____    ______ ____
ROOT
ATOM      1  C   UNL     1       2.713   5.737  19.177  0.00  0.00    +0.000 A 
ATOM      2  C   UNL     1       2.081   5.827  20.415  0.00  0.00    +0.000 A 
ATOM      3  C   UNL     1       1.527   7.045  20.834  0.00  0.00    +0.000 A 
ATOM      4  C   UNL     1       1.585   8.187  20.016  0.00  0.00    +0.000 A 
ATOM      5  C   UNL     1       2.254   8.083  18.788  0.00  0.00    +0.000 A 
ATOM      6  C   UNL     1       2.787   6.863  18.357  0.00  0.00    +0.000 A 
ENDROOT
BRANCH   4   7
ATOM      7  C   UNL     1       0.964   9.439  20.478  0.00  0.00    +0.000 A 
ATOM      8  N   UNL     1       1.102   9.940  21.696  0.00  0.00    +0.000 NA
ATOM      9  N   UNL     1       0.402  11.114  21.778  0.00  0.00    +0.000 NA
ATOM     10  C   UNL     1      -0.183  11.330  20.619  0.00  0.00    +0.000 A 
ATOM     11  N   UNL     1       0.111  10.279  19.778  0.00  0.00    +0.000 N 
ATOM     12  C   UNL     1      -0.405  10.074  18.440  0.00  0.00    +0.000 C 
ATOM     13  C   UNL     1      -1.859  10.491  18.244  0.00  0.00    +0.000 C 
ATOM     14  C   UNL     1      -2.053  11.990  18.033  0.00  0.00    +0.000 C 
ATOM     15  C   UNL     1      -1.132  12.894  18.850  0.00  0.00    +0.000 C 
ATOM     16  C   UNL     1      -1.052  12.508  20.321  0.00  0.00    +0.000 C 
ENDBRANCH   4   7
BRANCH   1  17
ATOM     17  N   UNL     1       3.206   4.470  18.705  0.00  0.00    +0.000 N 
ATOM     18  H   UNL     1       2.723   3.698  19.174  0.00  0.00    +0.000 HD
BRANCH  17  20
ATOM     19  O   UNL     1       5.377   5.416  19.687  0.00  0.00    +0.000 OA
ATOM     20  S   UNL     1       4.885   4.264  18.962  0.00  0.00    +0.000 S 
ATOM     21  O   UNL     1       5.096   2.924  19.469  0.00  0.00    +0.000 OA
BRANCH  20  22
ATOM     22  C   UNL     1       5.563   4.330  17.320  0.00  0.00    +0.000 A 
ATOM     23  C   UNL     1       4.679   4.212  16.234  0.00  0.00    +0.000 A 
ATOM     24  C   UNL     1       5.136   4.401  14.928  0.00  0.00    +0.000 A 
ATOM     25  C   UNL     1       6.473   4.714  14.699  0.00  0.00    +0.000 A 
ATOM     26  C   UNL     1       7.359   4.810  15.774  0.00  0.00    +0.000 A 
ATOM     27  C   UNL     1       6.911   4.613  17.089  0.00  0.00    +0.000 A 
ATOM     28 CL   UNL     1       8.100   4.697  18.338  0.00  0.00    +0.000 Cl
ENDBRANCH  20  22
ENDBRANCH  17  20
ENDBRANCH   1  17
TORSDOF 4
ENDMDL
MODEL 2
REMARK VINA RESULT:      -8.5      1.201      2.063
REMARK  Name = 
REMARK  4 active torsions:
REMARK  status: ('A' for Active; 'I' for Inactive)
REMARK    1  A    between atoms: S_2  and  N_4
REMARK    2  A    between atoms: S_2  and  C_21
REMARK    3  A    between atoms: N_4  and  C_5
REMARK    4  A    between atoms: C_8  and  C_9
REMARK                            x       y       z     vdW  Elec       q    Type
REMARK                         _______ _______ _______ _____ _____    ______ ____
ROOT
ATOM      1  C   UNL     1       2.626   5.727  18.922  0.00  0.00    +0.000 A 
ATOM      2  C   UNL     1       2.670   6.667  17.895  0.00  0.00    +0.000 A 
ATOM      3  C   UNL     1       2.200   7.969  18.115  0.00  0.00    +0.000 A 
ATOM      4  C   UNL     1       1.692   8.355  19.367  0.00  0.00    +0.000 A 
ATOM      5  C   UNL     1       1.628   7.385  20.378  0.00  0.00    +0.000 A 
ATOM      6  C   UNL     1       2.118   6.091  20.169  0.00  0.00    +0.000 A 
ENDROOT
BRANCH   4   7
ATOM      7  C   UNL     1       1.237   9.741  19.567  0.00  0.00    +0.000 A 
ATOM      8  N   UNL     1       1.636  10.774  18.841  0.00  0.00    +0.000 NA
ATOM      9  N   UNL     1       1.008  11.904  19.290  0.00  0.00    +0.000 NA
ATOM     10  C   UNL     1       0.236  11.576  20.305  0.00  0.00    +0.000 A 
ATOM     11  N   UNL     1       0.377  10.225  20.541  0.00  0.00    +0.000 N 
ATOM     12  C   UNL     1      -0.224   9.473  21.623  0.00  0.00    +0.000 C 
ATOM     13  C   UNL     1      -0.308  10.216  22.951  0.00  0.00    +0.000 C 
ATOM     14  C   UNL     1      -1.480  11.188  23.048  0.00  0.00    +0.000 C 
ATOM     15  C   UNL     1      -1.819  11.940  21.761  0.00  0.00    +0.000 C 
ATOM     16  C   UNL     1      -0.601  12.544  21.073  0.00  0.00    +0.000 C 
ENDBRANCH   4   7
BRANCH   1  17
ATOM     17  N   UNL     1       3.187   4.416  18.729  0.00  0.00    +0.000 N 
ATOM     18  H   UNL     1       2.732   3.735  19.345  0.00  0.00    +0.000 HD
BRANCH  17  20
ATOM     19  O   UNL     1       5.256   5.583  19.691  0.00  0.00    +0.000 OA
ATOM     20  S   UNL     1       4.869   4.351  19.038  0.00  0.00    +0.000 S 
ATOM     21  O   UNL     1       5.162   3.068  19.641  0.00  0.00    +0.000 OA
BRANCH  20  22
ATOM     22  C   UNL     1       5.585   4.356  17.410  0.00  0.00    +0.000 A 
ATOM     23  C   UNL     1       4.745   4.085  16.317  0.00  0.00    +0.000 A 
ATOM     24  C   UNL     1       5.221   4.218  15.011  0.00  0.00    +0.000 A 
ATOM     25  C   UNL     1       6.533   4.625  14.788  0.00  0.00    +0.000 A 
ATOM     26  C   UNL     1       7.377   4.874  15.873  0.00  0.00    +0.000 A 
ATOM     27  C   UNL     1       6.911   4.735  17.188  0.00  0.00    +0.000 A 
ATOM     28 CL   UNL     1       8.054   5.009  18.453  0.00  0.00    +0.000 Cl
ENDBRANCH  20  22
ENDBRANCH  17  20
ENDBRANCH   1  17
TORSDOF 4
ENDMDL
MODEL 3
REMARK VINA RESULT:      -8.3      4.443      9.435
REMARK  Name = 
REMARK  4 active torsions:
REMARK  status: ('A' for Active; 'I' for Inactive)
REMARK    1  A    between atoms: S_2  and  N_4
REMARK    2  A    between atoms: S_2  and  C_21
REMARK    3  A    between atoms: N_4  and  C_5
REMARK    4  A    between atoms: C_8  and  C_9
REMARK                            x       y       z     vdW  Elec       q    Type
REMARK                         _______ _______ _______ _____ _____    ______ ____
ROOT
ATOM      1  C   UNL     1       0.536   9.825  19.739  0.00  0.00    +0.000 A 
ATOM      2  C   UNL     1       0.877   9.865  18.389  0.00  0.00    +0.000 A 
ATOM      3  C   UNL     1       1.743   8.900  17.854  0.00  0.00    +0.000 A 
ATOM      4  C   UNL     1       2.269   7.874  18.658  0.00  0.00    +0.000 A 
ATOM      5  C   UNL     1       1.939   7.871  20.021  0.00  0.00    +0.000 A 
ATOM      6  C   UNL     1       1.057   8.819  20.553  0.00  0.00    +0.000 A 
ENDROOT
BRANCH   4   7
ATOM      7  C   UNL     1       3.150   6.862  18.052  0.00  0.00    +0.000 A 
ATOM      8  N   UNL     1       4.238   7.137  17.350  0.00  0.00    +0.000 NA
ATOM      9  N   UNL     1       4.819   5.964  16.949  0.00  0.00    +0.000 NA
ATOM     10  C   UNL     1       4.082   4.965  17.385  0.00  0.00    +0.000 A 
ATOM     11  N   UNL     1       2.995   5.484  18.055  0.00  0.00    +0.000 N 
ATOM     12  C   UNL     1       1.889   4.734  18.614  0.00  0.00    +0.000 C 
ATOM     13  C   UNL     1       1.451   3.529  17.790  0.00  0.00    +0.000 C 
ATOM     14  C   UNL     1       2.320   2.290  17.988  0.00  0.00    +0.000 C 
ATOM     15  C   UNL     1       3.814   2.557  18.164  0.00  0.00    +0.000 C 
ATOM     16  C   UNL     1       4.384   3.524  17.134  0.00  0.00    +0.000 C 
ENDBRANCH   4   7
BRANCH   1  17
ATOM     17  N   UNL     1      -0.419  10.760  20.273  0.00  0.00    +0.000 N 
ATOM     18  H   UNL     1      -1.167  10.936  19.597  0.00  0.00    +0.000 HD
BRANCH  17  20
ATOM     19  O   UNL     1       1.543  12.022  21.337  0.00  0.00    +0.000 OA
ATOM     20  S   UNL     1       0.275  12.269  20.684  0.00  0.00    +0.000 S 
ATOM     21  O   UNL     1       0.194  13.127  19.521  0.00  0.00    +0.000 OA
BRANCH  20  22
ATOM     22  C   UNL     1      -0.843  12.915  21.907  0.00  0.00    +0.000 A 
ATOM     23  C   UNL     1      -1.968  12.145  22.248  0.00  0.00    +0.000 A 
ATOM     24  C   UNL     1      -2.797  12.535  23.301  0.00  0.00    +0.000 A 
ATOM     25  C   UNL     1      -2.508  13.689  24.022  0.00  0.00    +0.000 A 
ATOM     26  C   UNL     1      -1.403  14.469  23.672  0.00  0.00    +0.000 A 
ATOM     27  C   UNL     1      -0.569  14.091  22.610  0.00  0.00    +0.000 A 
ATOM     28 CL   UNL     1       0.734  15.156  22.224  0.00  0.00    +0.000 Cl
ENDBRANCH  20  22
ENDBRANCH  17  20
ENDBRANCH   1  17
TORSDOF 4
ENDMDL
MODEL 4
REMARK VINA RESULT:      -8.3      0.878      1.006
REMARK  Name = 
REMARK  4 active torsions:
REMARK  status: ('A' for Active; 'I' for Inactive)
REMARK    1  A    between atoms: S_2  and  N_4
REMARK    2  A    between atoms: S_2  and  C_21
REMARK    3  A    between atoms: N_4  and  C_5
REMARK    4  A    between atoms: C_8  and  C_9
REMARK                            x       y       z     vdW  Elec       q    Type
REMARK                         _______ _______ _______ _____ _____    ______ ____
ROOT
ATOM      1  C   UNL     1       2.563   6.070  19.022  0.00  0.00    +0.000 A 
ATOM      2  C   UNL     1       2.071   5.796  20.296  0.00  0.00    +0.000 A 
ATOM      3  C   UNL     1       1.485   6.817  21.057  0.00  0.00    +0.000 A 
ATOM      4  C   UNL     1       1.368   8.122  20.550  0.00  0.00    +0.000 A 
ATOM      5  C   UNL     1       1.897   8.384  19.278  0.00  0.00    +0.000 A 
ATOM      6  C   UNL     1       2.462   7.362  18.506  0.00  0.00    +0.000 A 
ENDROOT
BRANCH   4   7
ATOM      7  C   UNL     1       0.717   9.159  21.367  0.00  0.00    +0.000 A 
ATOM      8  N   UNL     1       0.630   9.129  22.688  0.00  0.00    +0.000 NA
ATOM      9  N   UNL     1      -0.026  10.252  23.118  0.00  0.00    +0.000 NA
ATOM     10  C   UNL     1      -0.361  10.966  22.065  0.00  0.00    +0.000 A 
ATOM     11  N   UNL     1       0.054  10.297  20.933  0.00  0.00    +0.000 N 
ATOM     12  C   UNL     1      -0.195  10.689  19.561  0.00  0.00    +0.000 C 
ATOM     13  C   UNL     1      -1.563  11.313  19.311  0.00  0.00    +0.000 C 
ATOM     14  C   UNL     1      -1.653  12.789  19.692  0.00  0.00    +0.000 C 
ATOM     15  C   UNL     1      -0.878  13.193  20.945  0.00  0.00    +0.000 C 
ATOM     16  C   UNL     1      -1.106  12.259  22.127  0.00  0.00    +0.000 C 
ENDBRANCH   4   7
BRANCH   1  17
ATOM     17  N   UNL     1       3.087   5.008  18.203  0.00  0.00    +0.000 N 
ATOM     18  H   UNL     1       2.489   4.179  18.263  0.00  0.00    +0.000 HD
BRANCH  17  20
ATOM     19  O   UNL     1       5.265   5.613  19.411  0.00  0.00    +0.000 OA
ATOM     20  S   UNL     1       4.672   4.538  18.645  0.00  0.00    +0.000 S 
ATOM     21  O   UNL     1       4.604   3.194  19.181  0.00  0.00    +0.000 OA
BRANCH  20  22
ATOM     22  C   UNL     1       5.524   4.452  17.087  0.00  0.00    +0.000 A 
ATOM     23  C   UNL     1       4.759   4.252  15.925  0.00  0.00    +0.000 A 
ATOM     24  C   UNL     1       5.358   4.321  14.666  0.00  0.00    +0.000 A 
ATOM     25  C   UNL     1       6.719   4.595  14.558  0.00  0.00    +0.000 A 
ATOM     26  C   UNL     1       7.486   4.773  15.712  0.00  0.00    +0.000 A 
ATOM     27  C   UNL     1       6.895   4.696  16.982  0.00  0.00    +0.000 A 
ATOM     28 CL   UNL     1       7.945   4.872  18.341  0.00  0.00    +0.000 Cl
ENDBRANCH  20  22
ENDBRANCH  17  20
ENDBRANCH   1  17
TORSDOF 4
ENDMDL
MODEL 5
REMARK VINA RESULT:      -8.3      1.484      1.974
REMARK  Name = 
REMARK  4 active torsions:
REMARK  status: ('A' for Active; 'I' for Inactive)
REMARK    1  A    between atoms: S_2  and  N_4
REMARK    2  A    between atoms: S_2  and  C_21
REMARK    3  A    between atoms: N_4  and  C_5
REMARK    4  A    between atoms: C_8  and  C_9
REMARK                            x       y       z     vdW  Elec       q    Type
REMARK                         _______ _______ _______ _____ _____    ______ ____
ROOT
ATOM      1  C   UNL     1       2.381   5.097  18.779  0.00  0.00    +0.000 A 
ATOM      2  C   UNL     1       1.779   5.049  20.035  0.00  0.00    +0.000 A 
ATOM      3  C   UNL     1       1.446   6.237  20.700  0.00  0.00    +0.000 A 
ATOM      4  C   UNL     1       1.697   7.490  20.114  0.00  0.00    +0.000 A 
ATOM      5  C   UNL     1       2.333   7.517  18.864  0.00  0.00    +0.000 A 
ATOM      6  C   UNL     1       2.645   6.332  18.188  0.00  0.00    +0.000 A 
ENDROOT
BRANCH   4   7
ATOM      7  C   UNL     1       1.304   8.715  20.831  0.00  0.00    +0.000 A 
ATOM      8  N   UNL     1       1.443   8.898  22.135  0.00  0.00    +0.000 NA
ATOM      9  N   UNL     1       0.987  10.148  22.461  0.00  0.00    +0.000 NA
ATOM     10  C   UNL     1       0.550  10.729  21.364  0.00  0.00    +0.000 A 
ATOM     11  N   UNL     1       0.694   9.848  20.315  0.00  0.00    +0.000 N 
ATOM     12  C   UNL     1       0.255  10.054  18.950  0.00  0.00    +0.000 C 
ATOM     13  C   UNL     1      -1.066  10.801  18.808  0.00  0.00    +0.000 C 
ATOM     14  C   UNL     1      -0.940  12.317  18.939  0.00  0.00    +0.000 C 
ATOM     15  C   UNL     1       0.075  12.806  19.971  0.00  0.00    +0.000 C 
ATOM     16  C   UNL     1      -0.040  12.101  21.317  0.00  0.00    +0.000 C 
ENDBRANCH   4   7
BRANCH   1  17
ATOM     17  N   UNL     1       2.645   3.882  18.055  0.00  0.00    +0.000 N 
ATOM     18  H   UNL     1       1.877   3.216  18.176  0.00  0.00    +0.000 HD
BRANCH  17  20
ATOM     19  O   UNL     1       4.020   2.894  19.981  0.00  0.00    +0.000 OA
ATOM     20  S   UNL     1       4.087   3.104  18.550  0.00  0.00    +0.000 S 
ATOM     21  O   UNL     1       4.328   1.997  17.648  0.00  0.00    +0.000 OA
BRANCH  20  22
ATOM     22  C   UNL     1       5.339   4.329  18.245  0.00  0.00    +0.000 A 
ATOM     23  C   UNL     1       6.004   4.886  19.350  0.00  0.00    +0.000 A 
ATOM     24  C   UNL     1       7.091   5.742  19.162  0.00  0.00    +0.000 A 
ATOM     25  C   UNL     1       7.524   6.042  17.874  0.00  0.00    +0.000 A 
ATOM     26  C   UNL     1       6.852   5.508  16.772  0.00  0.00    +0.000 A 
ATOM     27  C   UNL     1       5.753   4.654  16.950  0.00  0.00    +0.000 A 
ATOM     28 CL   UNL     1       4.959   4.097  15.522  0.00  0.00    +0.000 Cl
ENDBRANCH  20  22
ENDBRANCH  17  20
ENDBRANCH   1  17
TORSDOF 4
ENDMDL
MODEL 6
REMARK VINA RESULT:      -8.3      4.235      9.391
REMARK  Name = 
REMARK  4 active torsions:
REMARK  status: ('A' for Active; 'I' for Inactive)
REMARK    1  A    between atoms: S_2  and  N_4
REMARK    2  A    between atoms: S_2  and  C_21
REMARK    3  A    between atoms: N_4  and  C_5
REMARK    4  A    between atoms: C_8  and  C_9
REMARK                            x       y       z     vdW  Elec       q    Type
REMARK                         _______ _______ _______ _____ _____    ______ ____
ROOT
ATOM      1  C   UNL     1       0.507   9.783  19.641  0.00  0.00    +0.000 A 
ATOM      2  C   UNL     1       0.899   9.850  18.305  0.00  0.00    +0.000 A 
ATOM      3  C   UNL     1       1.796   8.905  17.789  0.00  0.00    +0.000 A 
ATOM      4  C   UNL     1       2.306   7.873  18.595  0.00  0.00    +0.000 A 
ATOM      5  C   UNL     1       1.924   7.843  19.944  0.00  0.00    +0.000 A 
ATOM      6  C   UNL     1       1.010   8.770  20.457  0.00  0.00    +0.000 A 
ENDROOT
BRANCH   4   7
ATOM      7  C   UNL     1       3.222   6.882  18.007  0.00  0.00    +0.000 A 
ATOM      8  N   UNL     1       4.335   7.183  17.355  0.00  0.00    +0.000 NA
ATOM      9  N   UNL     1       4.946   6.024  16.956  0.00  0.00    +0.000 NA
ATOM     10  C   UNL     1       4.203   5.009  17.342  0.00  0.00    +0.000 A 
ATOM     11  N   UNL     1       3.084   5.503  17.977  0.00  0.00    +0.000 N 
ATOM     12  C   UNL     1       1.964   4.730  18.475  0.00  0.00    +0.000 C 
ATOM     13  C   UNL     1       1.574   3.537  17.610  0.00  0.00    +0.000 C 
ATOM     14  C   UNL     1       2.449   2.304  17.820  0.00  0.00    +0.000 C 
ATOM     15  C   UNL     1       3.931   2.583  18.063  0.00  0.00    +0.000 C 
ATOM     16  C   UNL     1       4.531   3.576  17.076  0.00  0.00    +0.000 C 
ENDBRANCH   4   7
BRANCH   1  17
ATOM     17  N   UNL     1      -0.480  10.696  20.154  0.00  0.00    +0.000 N 
ATOM     18  H   UNL     1      -1.177  10.912  19.437  0.00  0.00    +0.000 HD
BRANCH  17  20
ATOM     19  O   UNL     1       1.385  11.885  21.451  0.00  0.00    +0.000 OA
ATOM     20  S   UNL     1       0.189  12.177  20.690  0.00  0.00    +0.000 S 
ATOM     21  O   UNL     1       0.231  13.081  19.559  0.00  0.00    +0.000 OA
BRANCH  20  22
ATOM     22  C   UNL     1      -1.034  12.793  21.824  0.00  0.00    +0.000 A 
ATOM     23  C   UNL     1      -1.540  14.087  21.614  0.00  0.00    +0.000 A 
ATOM     24  C   UNL     1      -2.602  14.563  22.385  0.00  0.00    +0.000 A 
ATOM     25  C   UNL     1      -3.169  13.751  23.364  0.00  0.00    +0.000 A 
ATOM     26  C   UNL     1      -2.654  12.473  23.591  0.00  0.00    +0.000 A 
ATOM     27  C   UNL     1      -1.581  11.989  22.827  0.00  0.00    +0.000 A 
ATOM     28 CL   UNL     1      -0.984  10.419  23.229  0.00  0.00    +0.000 Cl
ENDBRANCH  20  22
ENDBRANCH  17  20
ENDBRANCH   1  17
TORSDOF 4
ENDMDL
MODEL 7
REMARK VINA RESULT:      -8.3      4.773      9.236
REMARK  Name = 
REMARK  4 active torsions:
REMARK  status: ('A' for Active; 'I' for Inactive)
REMARK    1  A    between atoms: S_2  and  N_4
REMARK    2  A    between atoms: S_2  and  C_21
REMARK    3  A    between atoms: N_4  and  C_5
REMARK    4  A    between atoms: C_8  and  C_9
REMARK                            x       y       z     vdW  Elec       q    Type
REMARK                         _______ _______ _______ _____ _____    ______ ____
ROOT
ATOM      1  C   UNL     1       1.232  10.066  19.118  0.00  0.00    +0.000 A 
ATOM      2  C   UNL     1       1.257   9.180  20.193  0.00  0.00    +0.000 A 
ATOM      3  C   UNL     1       1.800   7.898  20.034  0.00  0.00    +0.000 A 
ATOM      4  C   UNL     1       2.340   7.487  18.803  0.00  0.00    +0.000 A 
ATOM      5  C   UNL     1       2.277   8.382  17.726  0.00  0.00    +0.000 A 
ATOM      6  C   UNL     1       1.756   9.671  17.887  0.00  0.00    +0.000 A 
ENDROOT
BRANCH   4   7
ATOM      7  C   UNL     1       2.931   6.144  18.686  0.00  0.00    +0.000 A 
ATOM      8  N   UNL     1       3.781   5.778  17.740  0.00  0.00    +0.000 NA
ATOM      9  N   UNL     1       4.135   4.470  17.938  0.00  0.00    +0.000 NA
ATOM     10  C   UNL     1       3.489   4.021  18.994  0.00  0.00    +0.000 A 
ATOM     11  N   UNL     1       2.687   5.032  19.477  0.00  0.00    +0.000 N 
ATOM     12  C   UNL     1       1.743   4.933  20.572  0.00  0.00    +0.000 C 
ATOM     13  C   UNL     1       0.998   3.606  20.659  0.00  0.00    +0.000 C 
ATOM     14  C   UNL     1       1.798   2.485  21.318  0.00  0.00    +0.000 C 
ATOM     15  C   UNL     1       3.293   2.471  21.003  0.00  0.00    +0.000 C 
ATOM     16  C   UNL     1       3.602   2.628  19.519  0.00  0.00    +0.000 C 
ENDBRANCH   4   7
BRANCH   1  17
ATOM     17  N   UNL     1       0.755  11.412  19.298  0.00  0.00    +0.000 N 
ATOM     18  H   UNL     1       0.916  11.726  20.258  0.00  0.00    +0.000 HD
BRANCH  17  20
ATOM     19  O   UNL     1      -1.097  12.754  18.140  0.00  0.00    +0.000 OA
ATOM     20  S   UNL     1      -0.916  11.582  18.970  0.00  0.00    +0.000 S 
ATOM     21  O   UNL     1      -1.421  10.291  18.551  0.00  0.00    +0.000 OA
BRANCH  20  22
ATOM     22  C   UNL     1      -1.612  11.939  20.566  0.00  0.00    +0.000 A 
ATOM     23  C   UNL     1      -0.756  11.926  21.680  0.00  0.00    +0.000 A 
ATOM     24  C   UNL     1      -1.218  12.339  22.931  0.00  0.00    +0.000 A 
ATOM     25  C   UNL     1      -2.533  12.773  23.077  0.00  0.00    +0.000 A 
ATOM     26  C   UNL     1      -3.393  12.766  21.977  0.00  0.00    +0.000 A 
ATOM     27  C   UNL     1      -2.941  12.344  20.718  0.00  0.00    +0.000 A 
ATOM     28 CL   UNL     1      -4.102  12.320  19.441  0.00  0.00    +0.000 Cl
ENDBRANCH  20  22
ENDBRANCH  17  20
ENDBRANCH   1  17
TORSDOF 4
ENDMDL
MODEL 8
REMARK VINA RESULT:      -8.2      4.792      9.450
REMARK  Name = 
REMARK  4 active torsions:
REMARK  status: ('A' for Active; 'I' for Inactive)
REMARK    1  A    between atoms: S_2  and  N_4
REMARK    2  A    between atoms: S_2  and  C_21
REMARK    3  A    between atoms: N_4  and  C_5
REMARK    4  A    between atoms: C_8  and  C_9
REMARK                            x       y       z     vdW  Elec       q    Type
REMARK                         _______ _______ _______ _____ _____    ______ ____
ROOT
ATOM      1  C   UNL     1       0.934  10.284  19.386  0.00  0.00    +0.000 A 
ATOM      2  C   UNL     1       1.498   9.955  18.155  0.00  0.00    +0.000 A 
ATOM      3  C   UNL     1       2.118   8.711  17.977  0.00  0.00    +0.000 A 
ATOM      4  C   UNL     1       2.172   7.771  19.021  0.00  0.00    +0.000 A 
ATOM      5  C   UNL     1       1.627   8.134  20.261  0.00  0.00    +0.000 A 
ATOM      6  C   UNL     1       0.986   9.366  20.436  0.00  0.00    +0.000 A 
ENDROOT
BRANCH   4   7
ATOM      7  C   UNL     1       2.805   6.463  18.784  0.00  0.00    +0.000 A 
ATOM      8  N   UNL     1       3.689   6.219  17.830  0.00  0.00    +0.000 NA
ATOM      9  N   UNL     1       4.076   4.908  17.904  0.00  0.00    +0.000 NA
ATOM     10  C   UNL     1       3.418   4.336  18.890  0.00  0.00    +0.000 A 
ATOM     11  N   UNL     1       2.574   5.270  19.451  0.00  0.00    +0.000 N 
ATOM     12  C   UNL     1       1.607   5.035  20.504  0.00  0.00    +0.000 C 
ATOM     13  C   UNL     1       0.899   3.686  20.434  0.00  0.00    +0.000 C 
ATOM     14  C   UNL     1       1.715   2.526  20.998  0.00  0.00    +0.000 C 
ATOM     15  C   UNL     1       3.217   2.584  20.725  0.00  0.00    +0.000 C 
ATOM     16  C   UNL     1       3.558   2.900  19.274  0.00  0.00    +0.000 C 
ENDBRANCH   4   7
BRANCH   1  17
ATOM     17  N   UNL     1       0.221  11.523  19.549  0.00  0.00    +0.000 N 
ATOM     18  H   UNL     1       0.073  11.726  20.542  0.00  0.00    +0.000 HD
BRANCH  17  20
ATOM     19  O   UNL     1      -1.278  12.481  17.704  0.00  0.00    +0.000 OA
ATOM     20  S   UNL     1      -1.311  11.522  18.787  0.00  0.00    +0.000 S 
ATOM     21  O   UNL     1      -1.688  10.144  18.547  0.00  0.00    +0.000 OA
BRANCH  20  22
ATOM     22  C   UNL     1      -2.394  12.164  20.042  0.00  0.00    +0.000 A 
ATOM     23  C   UNL     1      -1.827  12.570  21.262  0.00  0.00    +0.000 A 
ATOM     24  C   UNL     1      -2.607  13.213  22.224  0.00  0.00    +0.000 A 
ATOM     25  C   UNL     1      -3.954  13.460  21.975  0.00  0.00    +0.000 A 
ATOM     26  C   UNL     1      -4.527  13.037  20.773  0.00  0.00    +0.000 A 
ATOM     27  C   UNL     1      -3.753  12.383  19.803  0.00  0.00    +0.000 A 
ATOM     28 CL   UNL     1      -4.573  11.851  18.380  0.00  0.00    +0.000 Cl
ENDBRANCH  20  22
ENDBRANCH  17  20
ENDBRANCH   1  17
TORSDOF 4
ENDMDL
MODEL 9
REMARK VINA RESULT:      -8.1      4.303      9.417
REMARK  Name = 
REMARK  4 active torsions:
REMARK  status: ('A' for Active; 'I' for Inactive)
REMARK    1  A    between atoms: S_2  and  N_4
REMARK    2  A    between atoms: S_2  and  C_21
REMARK    3  A    between atoms: N_4  and  C_5
REMARK    4  A    between atoms: C_8  and  C_9
REMARK                            x       y       z     vdW  Elec       q    Type
REMARK                         _______ _______ _______ _____ _____    ______ ____
ROOT
ATOM      1  C   UNL     1       1.317   9.643  19.458  0.00  0.00    +0.000 A 
ATOM      2  C   UNL     1       1.476   8.549  20.306  0.00  0.00    +0.000 A 
ATOM      3  C   UNL     1       2.002   7.347  19.811  0.00  0.00    +0.000 A 
ATOM      4  C   UNL     1       2.390   7.226  18.465  0.00  0.00    +0.000 A 
ATOM      5  C   UNL     1       2.192   8.329  17.622  0.00  0.00    +0.000 A 
ATOM      6  C   UNL     1       1.689   9.537  18.118  0.00  0.00    +0.000 A 
ENDROOT
BRANCH   4   7
ATOM      7  C   UNL     1       2.968   5.957  17.991  0.00  0.00    +0.000 A 
ATOM      8  N   UNL     1       2.425   4.766  18.188  0.00  0.00    +0.000 NA
ATOM      9  N   UNL     1       3.218   3.813  17.606  0.00  0.00    +0.000 NA
ATOM     10  C   UNL     1       4.259   4.411  17.068  0.00  0.00    +0.000 A 
ATOM     11  N   UNL     1       4.165   5.763  17.319  0.00  0.00    +0.000 N 
ATOM     12  C   UNL     1       5.147   6.772  16.981  0.00  0.00    +0.000 C 
ATOM     13  C   UNL     1       6.598   6.328  17.125  0.00  0.00    +0.000 C 
ATOM     14  C   UNL     1       7.117   5.506  15.948  0.00  0.00    +0.000 C 
ATOM     15  C   UNL     1       6.110   4.540  15.326  0.00  0.00    +0.000 C 
ATOM     16  C   UNL     1       5.361   3.700  16.352  0.00  0.00    +0.000 C 
ENDBRANCH   4   7
BRANCH   1  17
ATOM     17  N   UNL     1       0.860  10.904  19.979  0.00  0.00    +0.000 N 
ATOM     18  H   UNL     1       0.817  10.877  21.002  0.00  0.00    +0.000 HD
BRANCH  17  20
ATOM     19  O   UNL     1      -0.534  12.421  18.454  0.00  0.00    +0.000 OA
ATOM     20  S   UNL     1      -0.692  11.344  19.408  0.00  0.00    +0.000 S 
ATOM     21  O   UNL     1      -1.394  10.130  19.046  0.00  0.00    +0.000 OA
BRANCH  20  22
ATOM     22  C   UNL     1      -1.486  12.014  20.851  0.00  0.00    +0.000 A 
ATOM     23  C   UNL     1      -0.726  12.138  22.026  0.00  0.00    +0.000 A 
ATOM     24  C   UNL     1      -1.255  12.789  23.143  0.00  0.00    +0.000 A 
ATOM     25  C   UNL     1      -2.539  13.323  23.092  0.00  0.00    +0.000 A 
ATOM     26  C   UNL     1      -3.305  13.182  21.933  0.00  0.00    +0.000 A 
ATOM     27  C   UNL     1      -2.787  12.522  20.809  0.00  0.00    +0.000 A 
ATOM     28 CL   UNL     1      -3.838  12.352  19.451  0.00  0.00    +0.000 Cl
ENDBRANCH  20  22
ENDBRANCH  17  20
ENDBRANCH   1  17
TORSDOF 4
ENDMDL
