MODEL 1
REMARK VINA RESULT:      -8.8      0.000      0.000
REMARK  Name = 
REMARK  5 active torsions:
REMARK  status: ('A' for Active; 'I' for Inactive)
REMARK    1  A    between atoms: C_1  and  C_2
REMARK    2  A    between atoms: C_4  and  C_5
REMARK    3  A    between atoms: N_6  and  C_7
REMARK    4  A    between atoms: C_10  and  N_11
REMARK    5  A    between atoms: C_12  and  C_14
REMARK                            x       y       z     vdW  Elec       q    Type
REMARK                         _______ _______ _______ _____ _____    ______ ____
ROOT
ATOM      1  C   UNL     1       4.405   5.971  17.620  0.00  0.00    +0.000 A 
ATOM      2  C   UNL     1       3.834   7.203  17.288  0.00  0.00    +0.000 A 
ATOM      3  C   UNL     1       2.892   7.802  18.131  0.00  0.00    +0.000 A 
ATOM      4  C   UNL     1       2.491   7.184  19.318  0.00  0.00    +0.000 A 
ATOM      5  C   UNL     1       3.055   5.951  19.649  0.00  0.00    +0.000 A 
ATOM      6  C   UNL     1       3.982   5.340  18.794  0.00  0.00    +0.000 A 
ATOM      7  F   UNL     1       4.497   4.167  19.191  0.00  0.00    +0.000 F 
ENDROOT
BRANCH   1  13
ATOM      8  C   UNL     1       6.149   3.782  13.687  0.00  0.00    +0.000 C 
ATOM      9  C   UNL     1       6.162   4.428  15.022  0.00  0.00    +0.000 A 
ATOM     10  C   UNL     1       7.276   4.714  15.827  0.00  0.00    +0.000 A 
ATOM     11  C   UNL     1       6.763   5.298  16.968  0.00  0.00    +0.000 A 
ATOM     12  C   UNL     1       7.492   5.662  18.205  0.00  0.00    +0.000 C 
ATOM     13  N   UNL     1       5.384   5.373  16.783  0.00  0.00    +0.000 N 
ATOM     14  N   UNL     1       5.022   4.793  15.610  0.00  0.00    +0.000 NA
ENDBRANCH   1  13
BRANCH   4  15
ATOM     15  N   UNL     1       1.573   7.776  20.219  0.00  0.00    +0.000 N 
ATOM     16  C   UNL     1       1.107   9.081  20.145  0.00  0.00    +0.000 C 
ATOM     17  O   UNL     1       1.249   9.807  19.166  0.00  0.00    +0.000 OA
ATOM     18  H   UNL     1       1.216   7.181  20.952  0.00  0.00    +0.000 HD
BRANCH  16  19
ATOM     19  C   UNL     1       0.454   9.582  21.346  0.00  0.00    +0.000 A 
ATOM     20  C   UNL     1       0.594   9.236  22.710  0.00  0.00    +0.000 A 
ATOM     21  N   UNL     1      -0.067  10.054  23.532  0.00  0.00    +0.000 NA
ATOM     22  N   UNL     1      -0.623  10.955  22.710  0.00  0.00    +0.000 N 
ATOM     23  N   UNL     1      -1.186  12.078  23.212  0.00  0.00    +0.000 NA
ATOM     24  C   UNL     1      -1.670  12.846  22.290  0.00  0.00    +0.000 A 
ATOM     25  C   UNL     1      -1.734  12.547  20.839  0.00  0.00    +0.000 A 
ATOM     26  C   UNL     1      -1.115  11.436  20.424  0.00  0.00    +0.000 A 
ATOM     27  C   UNL     1      -0.454  10.631  21.382  0.00  0.00    +0.000 A 
ENDBRANCH  16  19
ENDBRANCH   4  15
TORSDOF 3
ENDMDL
MODEL 2
REMARK VINA RESULT:      -8.4      2.078      3.270
REMARK  Name = 
REMARK  5 active torsions:
REMARK  status: ('A' for Active; 'I' for Inactive)
REMARK    1  A    between atoms: C_1  and  C_2
REMARK    2  A    between atoms: C_4  and  C_5
REMARK    3  A    between atoms: N_6  and  C_7
REMARK    4  A    between atoms: C_10  and  N_11
REMARK    5  A    between atoms: C_12  and  C_14
REMARK                            x       y       z     vdW  Elec       q    Type
REMARK                         _______ _______ _______ _____ _____    ______ ____
ROOT
ATOM      1  C   UNL     1       2.696   7.070  18.554  0.00  0.00    +0.000 A 
ATOM      2  C   UNL     1       2.459   8.195  17.760  0.00  0.00    +0.000 A 
ATOM      3  C   UNL     1       1.747   9.288  18.267  0.00  0.00    +0.000 A 
ATOM      4  C   UNL     1       1.250   9.281  19.572  0.00  0.00    +0.000 A 
ATOM      5  C   UNL     1       1.481   8.156  20.365  0.00  0.00    +0.000 A 
ATOM      6  C   UNL     1       2.174   7.052  19.850  0.00  0.00    +0.000 A 
ATOM      7  F   UNL     1       2.376   6.018  20.680  0.00  0.00    +0.000 F 
ENDROOT
BRANCH   1  13
ATOM      8  C   UNL     1       6.632   4.617  17.216  0.00  0.00    +0.000 C 
ATOM      9  C   UNL     1       5.198   4.873  17.487  0.00  0.00    +0.000 A 
ATOM     10  C   UNL     1       4.130   3.967  17.390  0.00  0.00    +0.000 A 
ATOM     11  C   UNL     1       3.004   4.689  17.731  0.00  0.00    +0.000 A 
ATOM     12  C   UNL     1       1.591   4.254  17.653  0.00  0.00    +0.000 C 
ATOM     13  N   UNL     1       3.445   5.971  18.054  0.00  0.00    +0.000 N 
ATOM     14  N   UNL     1       4.782   6.087  17.853  0.00  0.00    +0.000 NA
ENDBRANCH   1  13
BRANCH   4  15
ATOM     15  N   UNL     1       0.562  10.382  20.137  0.00  0.00    +0.000 N 
ATOM     16  C   UNL     1      -0.675  10.852  19.720  0.00  0.00    +0.000 C 
ATOM     17  O   UNL     1      -1.428  10.237  18.971  0.00  0.00    +0.000 OA
ATOM     18  H   UNL     1       1.006  10.834  20.924  0.00  0.00    +0.000 HD
BRANCH  16  19
ATOM     19  C   UNL     1      -1.033  12.181  20.197  0.00  0.00    +0.000 A 
ATOM     20  C   UNL     1      -0.973  13.452  19.580  0.00  0.00    +0.000 A 
ATOM     21  N   UNL     1      -1.560  14.414  20.296  0.00  0.00    +0.000 NA
ATOM     22  N   UNL     1      -2.030  13.770  21.374  0.00  0.00    +0.000 N 
ATOM     23  N   UNL     1      -2.886  14.391  22.218  0.00  0.00    +0.000 NA
ATOM     24  C   UNL     1      -3.251  13.633  23.201  0.00  0.00    +0.000 A 
ATOM     25  C   UNL     1      -2.748  12.270  23.496  0.00  0.00    +0.000 A 
ATOM     26  C   UNL     1      -1.938  11.716  22.587  0.00  0.00    +0.000 A 
ATOM     27  C   UNL     1      -1.616  12.458  21.425  0.00  0.00    +0.000 A 
ENDBRANCH  16  19
ENDBRANCH   4  15
TORSDOF 3
ENDMDL
MODEL 3
REMARK VINA RESULT:      -8.3      2.977      9.518
REMARK  Name = 
REMARK  5 active torsions:
REMARK  status: ('A' for Active; 'I' for Inactive)
REMARK    1  A    between atoms: C_1  and  C_2
REMARK    2  A    between atoms: C_4  and  C_5
REMARK    3  A    between atoms: N_6  and  C_7
REMARK    4  A    between atoms: C_10  and  N_11
REMARK    5  A    between atoms: C_12  and  C_14
REMARK                            x       y       z     vdW  Elec       q    Type
REMARK                         _______ _______ _______ _____ _____    ______ ____
ROOT
ATOM      1  C   UNL     1      -0.744  10.963  22.288  0.00  0.00    +0.000 A 
ATOM      2  C   UNL     1      -0.246  10.010  23.181  0.00  0.00    +0.000 A 
ATOM      3  C   UNL     1       0.615   9.000  22.738  0.00  0.00    +0.000 A 
ATOM      4  C   UNL     1       0.991   8.911  21.396  0.00  0.00    +0.000 A 
ATOM      5  C   UNL     1       0.490   9.858  20.501  0.00  0.00    +0.000 A 
ATOM      6  C   UNL     1      -0.390  10.857  20.940  0.00  0.00    +0.000 A 
ATOM      7  F   UNL     1      -0.811  11.744  20.026  0.00  0.00    +0.000 F 
ENDROOT
BRANCH   1  13
ATOM      8  C   UNL     1      -4.712  12.959  24.178  0.00  0.00    +0.000 C 
ATOM      9  C   UNL     1      -3.347  12.891  23.606  0.00  0.00    +0.000 A 
ATOM     10  C   UNL     1      -2.432  13.942  23.435  0.00  0.00    +0.000 A 
ATOM     11  C   UNL     1      -1.319  13.369  22.853  0.00  0.00    +0.000 A 
ATOM     12  C   UNL     1      -0.116  14.057  22.329  0.00  0.00    +0.000 C 
ATOM     13  N   UNL     1      -1.594  12.009  22.738  0.00  0.00    +0.000 N 
ATOM     14  N   UNL     1      -2.856  11.734  23.156  0.00  0.00    +0.000 NA
ENDBRANCH   1  13
BRANCH   4  15
ATOM     15  N   UNL     1       1.893   7.932  20.915  0.00  0.00    +0.000 N 
ATOM     16  C   UNL     1       2.109   7.632  19.577  0.00  0.00    +0.000 C 
ATOM     17  O   UNL     1       1.725   8.332  18.644  0.00  0.00    +0.000 OA
ATOM     18  H   UNL     1       2.435   7.439  21.609  0.00  0.00    +0.000 HD
BRANCH  16  19
ATOM     19  C   UNL     1       2.804   6.378  19.320  0.00  0.00    +0.000 A 
ATOM     20  C   UNL     1       4.011   6.091  18.641  0.00  0.00    +0.000 A 
ATOM     21  N   UNL     1       4.400   4.821  18.771  0.00  0.00    +0.000 NA
ATOM     22  N   UNL     1       3.461   4.277  19.559  0.00  0.00    +0.000 N 
ATOM     23  N   UNL     1       3.649   3.049  20.094  0.00  0.00    +0.000 NA
ATOM     24  C   UNL     1       2.657   2.671  20.834  0.00  0.00    +0.000 A 
ATOM     25  C   UNL     1       1.381   3.400  21.034  0.00  0.00    +0.000 A 
ATOM     26  C   UNL     1       1.296   4.625  20.505  0.00  0.00    +0.000 A 
ATOM     27  C   UNL     1       2.411   5.136  19.797  0.00  0.00    +0.000 A 
ENDBRANCH  16  19
ENDBRANCH   4  15
TORSDOF 3
ENDMDL
MODEL 4
REMARK VINA RESULT:      -8.2      3.287      9.198
REMARK  Name = 
REMARK  5 active torsions:
REMARK  status: ('A' for Active; 'I' for Inactive)
REMARK    1  A    between atoms: C_1  and  C_2
REMARK    2  A    between atoms: C_4  and  C_5
REMARK    3  A    between atoms: N_6  and  C_7
REMARK    4  A    between atoms: C_10  and  N_11
REMARK    5  A    between atoms: C_12  and  C_14
REMARK                            x       y       z     vdW  Elec       q    Type
REMARK                         _______ _______ _______ _____ _____    ______ ____
ROOT
ATOM      1  C   UNL     1       0.439  12.246  18.962  0.00  0.00    +0.000 A 
ATOM      2  C   UNL     1      -0.464  11.194  18.794  0.00  0.00    +0.000 A 
ATOM      3  C   UNL     1      -0.022   9.936  18.372  0.00  0.00    +0.000 A 
ATOM      4  C   UNL     1       1.328   9.700  18.101  0.00  0.00    +0.000 A 
ATOM      5  C   UNL     1       2.232  10.751  18.263  0.00  0.00    +0.000 A 
ATOM      6  C   UNL     1       1.786  12.018  18.664  0.00  0.00    +0.000 A 
ATOM      7  F   UNL     1       2.716  12.971  18.819  0.00  0.00    +0.000 F 
ENDROOT
BRANCH   1  13
ATOM      8  C   UNL     1      -0.796  16.901  18.635  0.00  0.00    +0.000 C 
ATOM      9  C   UNL     1      -0.577  15.578  19.266  0.00  0.00    +0.000 A 
ATOM     10  C   UNL     1      -0.866  15.196  20.585  0.00  0.00    +0.000 A 
ATOM     11  C   UNL     1      -0.468  13.878  20.681  0.00  0.00    +0.000 A 
ATOM     12  C   UNL     1      -0.416  13.034  21.897  0.00  0.00    +0.000 C 
ATOM     13  N   UNL     1      -0.001  13.518  19.419  0.00  0.00    +0.000 N 
ATOM     14  N   UNL     1      -0.025  14.579  18.574  0.00  0.00    +0.000 NA
ENDBRANCH   1  13
BRANCH   4  15
ATOM     15  N   UNL     1       1.823   8.431  17.714  0.00  0.00    +0.000 N 
ATOM     16  C   UNL     1       2.332   7.473  18.579  0.00  0.00    +0.000 C 
ATOM     17  O   UNL     1       2.203   7.510  19.799  0.00  0.00    +0.000 OA
ATOM     18  H   UNL     1       1.770   8.209  16.731  0.00  0.00    +0.000 HD
BRANCH  16  19
ATOM     19  C   UNL     1       3.093   6.402  17.950  0.00  0.00    +0.000 A 
ATOM     20  C   UNL     1       4.382   6.378  17.368  0.00  0.00    +0.000 A 
ATOM     21  N   UNL     1       4.793   5.148  17.050  0.00  0.00    +0.000 NA
ATOM     22  N   UNL     1       3.784   4.360  17.446  0.00  0.00    +0.000 N 
ATOM     23  N   UNL     1       3.945   3.017  17.488  0.00  0.00    +0.000 NA
ATOM     24  C   UNL     1       2.884   2.401  17.898  0.00  0.00    +0.000 A 
ATOM     25  C   UNL     1       1.570   3.018  18.201  0.00  0.00    +0.000 A 
ATOM     26  C   UNL     1       1.510   4.355  18.175  0.00  0.00    +0.000 A 
ATOM     27  C   UNL     1       2.686   5.079  17.862  0.00  0.00    +0.000 A 
ENDBRANCH  16  19
ENDBRANCH   4  15
TORSDOF 3
ENDMDL
MODEL 5
REMARK VINA RESULT:      -8.2      1.934      2.745
REMARK  Name = 
REMARK  5 active torsions:
REMARK  status: ('A' for Active; 'I' for Inactive)
REMARK    1  A    between atoms: C_1  and  C_2
REMARK    2  A    between atoms: C_4  and  C_5
REMARK    3  A    between atoms: N_6  and  C_7
REMARK    4  A    between atoms: C_10  and  N_11
REMARK    5  A    between atoms: C_12  and  C_14
REMARK                            x       y       z     vdW  Elec       q    Type
REMARK                         _______ _______ _______ _____ _____    ______ ____
ROOT
ATOM      1  C   UNL     1       2.842   6.516  18.697  0.00  0.00    +0.000 A 
ATOM      2  C   UNL     1       2.549   7.766  18.146  0.00  0.00    +0.000 A 
ATOM      3  C   UNL     1       1.866   8.731  18.894  0.00  0.00    +0.000 A 
ATOM      4  C   UNL     1       1.453   8.470  20.202  0.00  0.00    +0.000 A 
ATOM      5  C   UNL     1       1.739   7.220  20.753  0.00  0.00    +0.000 A 
ATOM      6  C   UNL     1       2.404   6.244  19.996  0.00  0.00    +0.000 A 
ATOM      7  F   UNL     1       2.664   5.076  20.601  0.00  0.00    +0.000 F 
ENDROOT
BRANCH   1  13
ATOM      8  C   UNL     1       6.666   4.507  16.541  0.00  0.00    +0.000 C 
ATOM      9  C   UNL     1       5.270   4.639  17.021  0.00  0.00    +0.000 A 
ATOM     10  C   UNL     1       4.234   3.696  16.921  0.00  0.00    +0.000 A 
ATOM     11  C   UNL     1       3.134   4.297  17.500  0.00  0.00    +0.000 A 
ATOM     12  C   UNL     1       1.740   3.796  17.531  0.00  0.00    +0.000 C 
ATOM     13  N   UNL     1       3.562   5.543  17.952  0.00  0.00    +0.000 N 
ATOM     14  N   UNL     1       4.857   5.763  17.610  0.00  0.00    +0.000 NA
ENDBRANCH   1  13
BRANCH   4  15
ATOM     15  N   UNL     1       0.798   9.433  21.007  0.00  0.00    +0.000 N 
ATOM     16  C   UNL     1      -0.263  10.229  20.598  0.00  0.00    +0.000 C 
ATOM     17  O   UNL     1      -0.912  10.038  19.575  0.00  0.00    +0.000 OA
ATOM     18  H   UNL     1       1.119   9.516  21.961  0.00  0.00    +0.000 HD
BRANCH  16  19
ATOM     19  C   UNL     1      -0.553  11.373  21.453  0.00  0.00    +0.000 A 
ATOM     20  C   UNL     1      -1.209  11.475  22.702  0.00  0.00    +0.000 A 
ATOM     21  N   UNL     1      -1.122  12.691  23.245  0.00  0.00    +0.000 NA
ATOM     22  N   UNL     1      -0.386  13.384  22.364  0.00  0.00    +0.000 N 
ATOM     23  N   UNL     1       0.100  14.602  22.694  0.00  0.00    +0.000 NA
ATOM     24  C   UNL     1       0.794  15.135  21.741  0.00  0.00    +0.000 A 
ATOM     25  C   UNL     1       0.988  14.583  20.379  0.00  0.00    +0.000 A 
ATOM     26  C   UNL     1       0.510  13.354  20.152  0.00  0.00    +0.000 A 
ATOM     27  C   UNL     1      -0.142  12.675  21.209  0.00  0.00    +0.000 A 
ENDBRANCH  16  19
ENDBRANCH   4  15
TORSDOF 3
ENDMDL
MODEL 6
REMARK VINA RESULT:      -8.2      2.402      3.497
REMARK  Name = 
REMARK  5 active torsions:
REMARK  status: ('A' for Active; 'I' for Inactive)
REMARK    1  A    between atoms: C_1  and  C_2
REMARK    2  A    between atoms: C_4  and  C_5
REMARK    3  A    between atoms: N_6  and  C_7
REMARK    4  A    between atoms: C_10  and  N_11
REMARK    5  A    between atoms: C_12  and  C_14
REMARK                            x       y       z     vdW  Elec       q    Type
REMARK                         _______ _______ _______ _____ _____    ______ ____
ROOT
ATOM      1  C   UNL     1       2.779   7.085  18.520  0.00  0.00    +0.000 A 
ATOM      2  C   UNL     1       2.570   8.187  17.686  0.00  0.00    +0.000 A 
ATOM      3  C   UNL     1       1.814   9.279  18.125  0.00  0.00    +0.000 A 
ATOM      4  C   UNL     1       1.244   9.295  19.400  0.00  0.00    +0.000 A 
ATOM      5  C   UNL     1       1.446   8.193  20.232  0.00  0.00    +0.000 A 
ATOM      6  C   UNL     1       2.184   7.089  19.785  0.00  0.00    +0.000 A 
ATOM      7  F   UNL     1       2.355   6.078  20.650  0.00  0.00    +0.000 F 
ENDROOT
BRANCH   1  13
ATOM      8  C   UNL     1       6.821   4.673  17.447  0.00  0.00    +0.000 C 
ATOM      9  C   UNL     1       5.370   4.908  17.642  0.00  0.00    +0.000 A 
ATOM     10  C   UNL     1       4.325   3.978  17.521  0.00  0.00    +0.000 A 
ATOM     11  C   UNL     1       3.171   4.687  17.786  0.00  0.00    +0.000 A 
ATOM     12  C   UNL     1       1.771   4.221  17.654  0.00  0.00    +0.000 C 
ATOM     13  N   UNL     1       3.571   5.987  18.090  0.00  0.00    +0.000 N 
ATOM     14  N   UNL     1       4.915   6.124  17.950  0.00  0.00    +0.000 NA
ENDBRANCH   1  13
BRANCH   4  15
ATOM     15  N   UNL     1       0.509  10.397  19.898  0.00  0.00    +0.000 N 
ATOM     16  C   UNL     1      -0.741  10.796  19.444  0.00  0.00    +0.000 C 
ATOM     17  O   UNL     1      -1.461  10.113  18.723  0.00  0.00    +0.000 OA
ATOM     18  H   UNL     1       0.926  10.908  20.663  0.00  0.00    +0.000 HD
BRANCH  16  19
ATOM     19  C   UNL     1      -1.155  12.135  19.845  0.00  0.00    +0.000 A 
ATOM     20  C   UNL     1      -2.206  12.587  20.676  0.00  0.00    +0.000 A 
ATOM     21  N   UNL     1      -2.147  13.895  20.934  0.00  0.00    +0.000 NA
ATOM     22  N   UNL     1      -1.042  14.300  20.293  0.00  0.00    +0.000 N 
ATOM     23  N   UNL     1      -0.538  15.535  20.519  0.00  0.00    +0.000 NA
ATOM     24  C   UNL     1       0.533  15.768  19.831  0.00  0.00    +0.000 A 
ATOM     25  C   UNL     1       1.136  14.877  18.812  0.00  0.00    +0.000 A 
ATOM     26  C   UNL     1       0.600  13.658  18.683  0.00  0.00    +0.000 A 
ATOM     27  C   UNL     1      -0.493  13.308  19.512  0.00  0.00    +0.000 A 
ENDBRANCH  16  19
ENDBRANCH   4  15
TORSDOF 3
ENDMDL
MODEL 7
REMARK VINA RESULT:      -8.2      1.836      2.646
REMARK  Name = 
REMARK  5 active torsions:
REMARK  status: ('A' for Active; 'I' for Inactive)
REMARK    1  A    between atoms: C_1  and  C_2
REMARK    2  A    between atoms: C_4  and  C_5
REMARK    3  A    between atoms: N_6  and  C_7
REMARK    4  A    between atoms: C_10  and  N_11
REMARK    5  A    between atoms: C_12  and  C_14
REMARK                            x       y       z     vdW  Elec       q    Type
REMARK                         _______ _______ _______ _____ _____    ______ ____
ROOT
ATOM      1  C   UNL     1       2.944   6.784  18.567  0.00  0.00    +0.000 A 
ATOM      2  C   UNL     1       2.676   7.933  17.818  0.00  0.00    +0.000 A 
ATOM      3  C   UNL     1       1.861   8.946  18.336  0.00  0.00    +0.000 A 
ATOM      4  C   UNL     1       1.290   8.834  19.605  0.00  0.00    +0.000 A 
ATOM      5  C   UNL     1       1.552   7.684  20.353  0.00  0.00    +0.000 A 
ATOM      6  C   UNL     1       2.350   6.659  19.826  0.00  0.00    +0.000 A 
ATOM      7  F   UNL     1       2.575   5.596  20.612  0.00  0.00    +0.000 F 
ENDROOT
BRANCH   1  13
ATOM      8  C   UNL     1       7.110   4.694  17.310  0.00  0.00    +0.000 C 
ATOM      9  C   UNL     1       5.651   4.828  17.528  0.00  0.00    +0.000 A 
ATOM     10  C   UNL     1       4.660   3.849  17.349  0.00  0.00    +0.000 A 
ATOM     11  C   UNL     1       3.469   4.469  17.667  0.00  0.00    +0.000 A 
ATOM     12  C   UNL     1       2.098   3.932  17.511  0.00  0.00    +0.000 C 
ATOM     13  N   UNL     1       3.795   5.766  18.058  0.00  0.00    +0.000 N 
ATOM     14  N   UNL     1       5.127   5.991  17.922  0.00  0.00    +0.000 NA
ENDBRANCH   1  13
BRANCH   4  15
ATOM     15  N   UNL     1       0.496   9.853  20.183  0.00  0.00    +0.000 N 
ATOM     16  C   UNL     1       0.610  10.314  21.487  0.00  0.00    +0.000 C 
ATOM     17  O   UNL     1       1.558  10.063  22.225  0.00  0.00    +0.000 OA
ATOM     18  H   UNL     1      -0.184  10.290  19.578  0.00  0.00    +0.000 HD
BRANCH  16  19
ATOM     19  C   UNL     1      -0.513  11.105  21.972  0.00  0.00    +0.000 A 
ATOM     20  C   UNL     1      -1.344  10.966  23.108  0.00  0.00    +0.000 A 
ATOM     21  N   UNL     1      -2.160  12.005  23.294  0.00  0.00    +0.000 NA
ATOM     22  N   UNL     1      -1.849  12.842  22.294  0.00  0.00    +0.000 N 
ATOM     23  N   UNL     1      -2.321  14.109  22.295  0.00  0.00    +0.000 NA
ATOM     24  C   UNL     1      -1.923  14.789  21.269  0.00  0.00    +0.000 A 
ATOM     25  C   UNL     1      -1.130  14.275  20.126  0.00  0.00    +0.000 A 
ATOM     26  C   UNL     1      -0.668  13.023  20.227  0.00  0.00    +0.000 A 
ATOM     27  C   UNL     1      -0.966  12.284  21.396  0.00  0.00    +0.000 A 
ENDBRANCH  16  19
ENDBRANCH   4  15
TORSDOF 3
ENDMDL
MODEL 8
REMARK VINA RESULT:      -8.2      1.212      1.498
REMARK  Name = 
REMARK  5 active torsions:
REMARK  status: ('A' for Active; 'I' for Inactive)
REMARK    1  A    between atoms: C_1  and  C_2
REMARK    2  A    between atoms: C_4  and  C_5
REMARK    3  A    between atoms: N_6  and  C_7
REMARK    4  A    between atoms: C_10  and  N_11
REMARK    5  A    between atoms: C_12  and  C_14
REMARK                            x       y       z     vdW  Elec       q    Type
REMARK                         _______ _______ _______ _____ _____    ______ ____
ROOT
ATOM      1  C   UNL     1       4.510   5.376  16.974  0.00  0.00    +0.000 A 
ATOM      2  C   UNL     1       3.429   4.674  17.513  0.00  0.00    +0.000 A 
ATOM      3  C   UNL     1       2.606   5.264  18.478  0.00  0.00    +0.000 A 
ATOM      4  C   UNL     1       2.847   6.563  18.934  0.00  0.00    +0.000 A 
ATOM      5  C   UNL     1       3.930   7.264  18.402  0.00  0.00    +0.000 A 
ATOM      6  C   UNL     1       4.768   6.665  17.451  0.00  0.00    +0.000 A 
ATOM      7  F   UNL     1       5.774   7.409  16.969  0.00  0.00    +0.000 F 
ENDROOT
BRANCH   1  13
ATOM      8  C   UNL     1       5.633   3.624  12.619  0.00  0.00    +0.000 C 
ATOM      9  C   UNL     1       5.835   4.041  14.026  0.00  0.00    +0.000 A 
ATOM     10  C   UNL     1       7.032   4.043  14.760  0.00  0.00    +0.000 A 
ATOM     11  C   UNL     1       6.692   4.503  16.016  0.00  0.00    +0.000 A 
ATOM     12  C   UNL     1       7.551   4.564  17.221  0.00  0.00    +0.000 C 
ATOM     13  N   UNL     1       5.330   4.792  15.971  0.00  0.00    +0.000 N 
ATOM     14  N   UNL     1       4.804   4.459  14.764  0.00  0.00    +0.000 NA
ENDBRANCH   1  13
BRANCH   4  15
ATOM     15  N   UNL     1       2.015   7.212  19.877  0.00  0.00    +0.000 N 
ATOM     16  C   UNL     1       1.459   8.473  19.719  0.00  0.00    +0.000 C 
ATOM     17  O   UNL     1       1.426   9.082  18.654  0.00  0.00    +0.000 OA
ATOM     18  H   UNL     1       1.794   6.693  20.715  0.00  0.00    +0.000 HD
BRANCH  16  19
ATOM     19  C   UNL     1       0.932   9.083  20.933  0.00  0.00    +0.000 A 
ATOM     20  C   UNL     1       1.238   8.881  22.299  0.00  0.00    +0.000 A 
ATOM     21  N   UNL     1       0.652   9.766  23.107  0.00  0.00    +0.000 NA
ATOM     22  N   UNL     1      -0.021  10.569  22.269  0.00  0.00    +0.000 N 
ATOM     23  N   UNL     1      -0.556  11.727  22.719  0.00  0.00    +0.000 NA
ATOM     24  C   UNL     1      -1.165  12.388  21.789  0.00  0.00    +0.000 A 
ATOM     25  C   UNL     1      -1.385  11.942  20.392  0.00  0.00    +0.000 A 
ATOM     26  C   UNL     1      -0.785  10.805  20.020  0.00  0.00    +0.000 A 
ATOM     27  C   UNL     1       0.004  10.114  20.970  0.00  0.00    +0.000 A 
ENDBRANCH  16  19
ENDBRANCH   4  15
TORSDOF 3
ENDMDL
MODEL 9
REMARK VINA RESULT:      -8.1      6.805      9.830
REMARK  Name = 
REMARK  5 active torsions:
REMARK  status: ('A' for Active; 'I' for Inactive)
REMARK    1  A    between atoms: C_1  and  C_2
REMARK    2  A    between atoms: C_4  and  C_5
REMARK    3  A    between atoms: N_6  and  C_7
REMARK    4  A    between atoms: C_10  and  N_11
REMARK    5  A    between atoms: C_12  and  C_14
REMARK                            x       y       z     vdW  Elec       q    Type
REMARK                         _______ _______ _______ _____ _____    ______ ____
ROOT
ATOM      1  C   UNL     1       9.712  12.572  18.680  0.00  0.00    +0.000 A 
ATOM      2  C   UNL     1       8.767  12.042  17.797  0.00  0.00    +0.000 A 
ATOM      3  C   UNL     1       8.403  10.693  17.867  0.00  0.00    +0.000 A 
ATOM      4  C   UNL     1       8.977   9.841  18.813  0.00  0.00    +0.000 A 
ATOM      5  C   UNL     1       9.925  10.366  19.693  0.00  0.00    +0.000 A 
ATOM      6  C   UNL     1      10.307  11.712  19.608  0.00  0.00    +0.000 A 
ATOM      7  F   UNL     1      11.205  12.149  20.502  0.00  0.00    +0.000 F 
ENDROOT
BRANCH   1  13
ATOM      8  C   UNL     1       9.382  17.278  19.700  0.00  0.00    +0.000 C 
ATOM      9  C   UNL     1       9.931  16.035  19.111  0.00  0.00    +0.000 A 
ATOM     10  C   UNL     1      11.104  15.887  18.354  0.00  0.00    +0.000 A 
ATOM     11  C   UNL     1      11.166  14.547  18.030  0.00  0.00    +0.000 A 
ATOM     12  C   UNL     1      12.126  13.878  17.121  0.00  0.00    +0.000 C 
ATOM     13  N   UNL     1      10.062  13.948  18.632  0.00  0.00    +0.000 N 
ATOM     14  N   UNL     1       9.285  14.875  19.249  0.00  0.00    +0.000 NA
ENDBRANCH   1  13
BRANCH   4  15
ATOM     15  N   UNL     1       8.606   8.481  18.947  0.00  0.00    +0.000 N 
ATOM     16  C   UNL     1       8.033   7.707  17.948  0.00  0.00    +0.000 C 
ATOM     17  O   UNL     1       7.991   8.031  16.765  0.00  0.00    +0.000 OA
ATOM     18  H   UNL     1       8.805   8.045  19.835  0.00  0.00    +0.000 HD
BRANCH  16  19
ATOM     19  C   UNL     1       7.422   6.462  18.393  0.00  0.00    +0.000 A 
ATOM     20  C   UNL     1       7.432   5.801  19.643  0.00  0.00    +0.000 A 
ATOM     21  N   UNL     1       6.601   4.757  19.694  0.00  0.00    +0.000 NA
ATOM     22  N   UNL     1       6.024   4.747  18.484  0.00  0.00    +0.000 N 
ATOM     23  N   UNL     1       4.951   3.957  18.248  0.00  0.00    +0.000 NA
ATOM     24  C   UNL     1       4.509   4.068  17.037  0.00  0.00    +0.000 A 
ATOM     25  C   UNL     1       5.120   4.865  15.947  0.00  0.00    +0.000 A 
ATOM     26  C   UNL     1       6.152   5.649  16.277  0.00  0.00    +0.000 A 
ATOM     27  C   UNL     1       6.587   5.663  17.624  0.00  0.00    +0.000 A 
ENDBRANCH  16  19
ENDBRANCH   4  15
TORSDOF 3
ENDMDL
