MODEL 1
REMARK VINA RESULT:      -8.1      0.000      0.000
REMARK  Name = 
REMARK  6 active torsions:
REMARK  status: ('A' for Active; 'I' for Inactive)
REMARK    1  A    between atoms: C_2  and  C_4
REMARK    2  A    between atoms: C_6  and  N_7
REMARK    3  A    between atoms: N_7  and  C_8
REMARK    4  A    between atoms: C_8  and  C_9
REMARK    5  A    between atoms: C_11  and  C_12
REMARK    6  A    between atoms: C_12  and  C_13
REMARK                            x       y       z     vdW  Elec       q    Type
REMARK                         _______ _______ _______ _____ _____    ______ ____
ROOT
ATOM      1  N   UNL     1       8.947  10.016  19.130  0.00  0.00    +0.000 N 
ATOM      2  H   UNL     1       8.192  10.002  19.814  0.00  0.00    +0.000 HD
ENDROOT
BRANCH   1   5
ATOM      3  C   UNL     1      11.089  12.917  18.273  0.00  0.00    +0.000 A 
ATOM      4  C   UNL     1      10.275  11.774  18.172  0.00  0.00    +0.000 A 
ATOM      5  C   UNL     1       9.835  11.074  19.307  0.00  0.00    +0.000 A 
ATOM      6  C   UNL     1      10.202  11.577  20.562  0.00  0.00    +0.000 A 
ATOM      7  C   UNL     1      11.021  12.702  20.680  0.00  0.00    +0.000 A 
ATOM      8  C   UNL     1      11.457  13.365  19.540  0.00  0.00    +0.000 A 
ATOM      9  F   UNL     1      12.230  14.452  19.701  0.00  0.00    +0.000 F 
BRANCH   3  11
ATOM     10  N   UNL     1      12.332  12.953  16.165  0.00  0.00    +0.000 N 
ATOM     11  C   UNL     1      11.498  13.609  17.025  0.00  0.00    +0.000 C 
ATOM     12  O   UNL     1      11.106  14.740  16.762  0.00  0.00    +0.000 OA
ATOM     13  H   UNL     1      12.621  13.433  15.324  0.00  0.00    +0.000 HD
ATOM     14  H   UNL     1      12.689  12.022  16.342  0.00  0.00    +0.000 HD
ENDBRANCH   3  11
ENDBRANCH   1   5
BRANCH   1  15
ATOM     15  C   UNL     1       8.528   9.589  17.794  0.00  0.00    +0.000 C 
BRANCH  15  16
ATOM     16  C   UNL     1       7.876   8.247  17.720  0.00  0.00    +0.000 A 
ATOM     17  N   UNL     1       6.993   7.783  16.861  0.00  0.00    +0.000 NA
ATOM     18  C   UNL     1       6.836   6.483  17.285  0.00  0.00    +0.000 A 
ATOM     19  N   UNL     1       7.599   6.139  18.335  0.00  0.00    +0.000 NA
ATOM     20  O   UNL     1       8.277   7.320  18.639  0.00  0.00    +0.000 OA
BRANCH  18  21
ATOM     21  C   UNL     1       5.998   5.500  16.553  0.00  0.00    +0.000 C 
BRANCH  21  22
ATOM     22  C   UNL     1       4.710   5.351  17.325  0.00  0.00    +0.000 A 
ATOM     23  C   UNL     1       4.363   4.122  17.909  0.00  0.00    +0.000 A 
ATOM     24  C   UNL     1       3.184   3.996  18.645  0.00  0.00    +0.000 A 
ATOM     25  C   UNL     1       2.339   5.092  18.805  0.00  0.00    +0.000 A 
ATOM     26  C   UNL     1       2.668   6.314  18.225  0.00  0.00    +0.000 A 
ATOM     27  C   UNL     1       3.845   6.445  17.487  0.00  0.00    +0.000 A 
ENDBRANCH  21  22
ENDBRANCH  18  21
ENDBRANCH  15  16
ENDBRANCH   1  15
TORSDOF 6
ENDMDL
MODEL 2
REMARK VINA RESULT:      -7.9      1.163      1.782
REMARK  Name = 
REMARK  6 active torsions:
REMARK  status: ('A' for Active; 'I' for Inactive)
REMARK    1  A    between atoms: C_2  and  C_4
REMARK    2  A    between atoms: C_6  and  N_7
REMARK    3  A    between atoms: N_7  and  C_8
REMARK    4  A    between atoms: C_8  and  C_9
REMARK    5  A    between atoms: C_11  and  C_12
REMARK    6  A    between atoms: C_12  and  C_13
REMARK                            x       y       z     vdW  Elec       q    Type
REMARK                         _______ _______ _______ _____ _____    ______ ____
ROOT
ATOM      1  N   UNL     1       8.355   9.400  18.150  0.00  0.00    +0.000 N 
ATOM      2  H   UNL     1       8.189   9.563  17.158  0.00  0.00    +0.000 HD
ENDROOT
BRANCH   1   5
ATOM      3  C   UNL     1      10.638  12.309  18.406  0.00  0.00    +0.000 A 
ATOM      4  C   UNL     1       9.849  11.265  17.891  0.00  0.00    +0.000 A 
ATOM      5  C   UNL     1       9.203  10.341  18.730  0.00  0.00    +0.000 A 
ATOM      6  C   UNL     1       9.337  10.516  20.113  0.00  0.00    +0.000 A 
ATOM      7  C   UNL     1      10.128  11.540  20.640  0.00  0.00    +0.000 A 
ATOM      8  C   UNL     1      10.771  12.429  19.788  0.00  0.00    +0.000 A 
ATOM      9  F   UNL     1      11.508  13.406  20.339  0.00  0.00    +0.000 F 
BRANCH   3  11
ATOM     10  N   UNL     1      12.322  12.804  16.699  0.00  0.00    +0.000 N 
ATOM     11  C   UNL     1      11.275  13.253  17.453  0.00  0.00    +0.000 C 
ATOM     12  O   UNL     1      10.881  14.408  17.337  0.00  0.00    +0.000 OA
ATOM     13  H   UNL     1      12.763  13.453  16.064  0.00  0.00    +0.000 HD
ATOM     14  H   UNL     1      12.687  11.862  16.766  0.00  0.00    +0.000 HD
ENDBRANCH   3  11
ENDBRANCH   1   5
BRANCH   1  15
ATOM     15  C   UNL     1       8.440   7.981  18.499  0.00  0.00    +0.000 C 
BRANCH  15  16
ATOM     16  C   UNL     1       7.489   7.082  17.778  0.00  0.00    +0.000 A 
ATOM     17  N   UNL     1       6.401   6.481  18.212  0.00  0.00    +0.000 NA
ATOM     18  C   UNL     1       5.944   5.857  17.074  0.00  0.00    +0.000 A 
ATOM     19  N   UNL     1       6.686   6.078  15.977  0.00  0.00    +0.000 NA
ATOM     20  O   UNL     1       7.728   6.876  16.450  0.00  0.00    +0.000 OA
BRANCH  18  21
ATOM     21  C   UNL     1       4.656   5.120  17.030  0.00  0.00    +0.000 C 
BRANCH  21  22
ATOM     22  C   UNL     1       3.721   5.802  17.999  0.00  0.00    +0.000 A 
ATOM     23  C   UNL     1       3.344   7.140  17.808  0.00  0.00    +0.000 A 
ATOM     24  C   UNL     1       2.458   7.759  18.691  0.00  0.00    +0.000 A 
ATOM     25  C   UNL     1       1.941   7.051  19.774  0.00  0.00    +0.000 A 
ATOM     26  C   UNL     1       2.313   5.725  19.979  0.00  0.00    +0.000 A 
ATOM     27  C   UNL     1       3.200   5.103  19.099  0.00  0.00    +0.000 A 
ENDBRANCH  21  22
ENDBRANCH  18  21
ENDBRANCH  15  16
ENDBRANCH   1  15
TORSDOF 6
ENDMDL
MODEL 3
REMARK VINA RESULT:      -7.9      3.831      9.570
REMARK  Name = 
REMARK  6 active torsions:
REMARK  status: ('A' for Active; 'I' for Inactive)
REMARK    1  A    between atoms: C_2  and  C_4
REMARK    2  A    between atoms: C_6  and  N_7
REMARK    3  A    between atoms: N_7  and  C_8
REMARK    4  A    between atoms: C_8  and  C_9
REMARK    5  A    between atoms: C_11  and  C_12
REMARK    6  A    between atoms: C_12  and  C_13
REMARK                            x       y       z     vdW  Elec       q    Type
REMARK                         _______ _______ _______ _____ _____    ______ ____
ROOT
ATOM      1  N   UNL     1       5.736   5.907  16.652  0.00  0.00    +0.000 N 
ATOM      2  H   UNL     1       5.635   6.709  16.031  0.00  0.00    +0.000 HD
ENDROOT
BRANCH   1   5
ATOM      3  C   UNL     1       3.334   3.910  18.646  0.00  0.00    +0.000 A 
ATOM      4  C   UNL     1       4.440   4.286  17.862  0.00  0.00    +0.000 A 
ATOM      5  C   UNL     1       4.564   5.580  17.329  0.00  0.00    +0.000 A 
ATOM      6  C   UNL     1       3.561   6.508  17.637  0.00  0.00    +0.000 A 
ATOM      7  C   UNL     1       2.450   6.146  18.403  0.00  0.00    +0.000 A 
ATOM      8  C   UNL     1       2.343   4.854  18.903  0.00  0.00    +0.000 A 
ATOM      9  F   UNL     1       1.266   4.555  19.646  0.00  0.00    +0.000 F 
BRANCH   3  11
ATOM     10  N   UNL     1       2.901   1.519  18.349  0.00  0.00    +0.000 N 
ATOM     11  C   UNL     1       3.286   2.527  19.186  0.00  0.00    +0.000 C 
ATOM     12  O   UNL     1       3.580   2.284  20.350  0.00  0.00    +0.000 OA
ATOM     13  H   UNL     1       2.854   0.582  18.723  0.00  0.00    +0.000 HD
ATOM     14  H   UNL     1       2.640   1.671  17.382  0.00  0.00    +0.000 HD
ENDBRANCH   3  11
ENDBRANCH   1   5
BRANCH   1  15
ATOM     15  C   UNL     1       7.041   5.847  17.314  0.00  0.00    +0.000 C 
BRANCH  15  16
ATOM     16  C   UNL     1       7.629   7.165  17.700  0.00  0.00    +0.000 A 
ATOM     17  N   UNL     1       7.432   8.360  17.186  0.00  0.00    +0.000 NA
ATOM     18  C   UNL     1       8.201   9.155  18.005  0.00  0.00    +0.000 A 
ATOM     19  N   UNL     1       8.823   8.500  18.999  0.00  0.00    +0.000 NA
ATOM     20  O   UNL     1       8.460   7.171  18.783  0.00  0.00    +0.000 OA
BRANCH  18  21
ATOM     21  C   UNL     1       8.225  10.636  17.888  0.00  0.00    +0.000 C 
BRANCH  21  22
ATOM     22  C   UNL     1       9.498  11.112  18.544  0.00  0.00    +0.000 A 
ATOM     23  C   UNL     1       9.547  11.346  19.927  0.00  0.00    +0.000 A 
ATOM     24  C   UNL     1      10.734  11.761  20.534  0.00  0.00    +0.000 A 
ATOM     25  C   UNL     1      11.882  11.948  19.768  0.00  0.00    +0.000 A 
ATOM     26  C   UNL     1      11.845  11.727  18.393  0.00  0.00    +0.000 A 
ATOM     27  C   UNL     1      10.660  11.313  17.782  0.00  0.00    +0.000 A 
ENDBRANCH  21  22
ENDBRANCH  18  21
ENDBRANCH  15  16
ENDBRANCH   1  15
TORSDOF 6
ENDMDL
MODEL 4
REMARK VINA RESULT:      -7.9      6.636      8.519
REMARK  Name = 
REMARK  6 active torsions:
REMARK  status: ('A' for Active; 'I' for Inactive)
REMARK    1  A    between atoms: C_2  and  C_4
REMARK    2  A    between atoms: C_6  and  N_7
REMARK    3  A    between atoms: N_7  and  C_8
REMARK    4  A    between atoms: C_8  and  C_9
REMARK    5  A    between atoms: C_11  and  C_12
REMARK    6  A    between atoms: C_12  and  C_13
REMARK                            x       y       z     vdW  Elec       q    Type
REMARK                         _______ _______ _______ _____ _____    ______ ____
ROOT
ATOM      1  N   UNL     1       3.080   6.116  17.915  0.00  0.00    +0.000 N 
ATOM      2  H   UNL     1       2.356   5.494  17.560  0.00  0.00    +0.000 HD
ENDROOT
BRANCH   1   5
ATOM      3  C   UNL     1       6.256   4.868  16.469  0.00  0.00    +0.000 A 
ATOM      4  C   UNL     1       4.934   5.327  16.605  0.00  0.00    +0.000 A 
ATOM      5  C   UNL     1       4.358   5.562  17.864  0.00  0.00    +0.000 A 
ATOM      6  C   UNL     1       5.161   5.361  18.994  0.00  0.00    +0.000 A 
ATOM      7  C   UNL     1       6.471   4.892  18.876  0.00  0.00    +0.000 A 
ATOM      8  C   UNL     1       7.011   4.650  17.619  0.00  0.00    +0.000 A 
ATOM      9  F   UNL     1       8.280   4.215  17.553  0.00  0.00    +0.000 F 
BRANCH   3  11
ATOM     10  N   UNL     1       6.332   3.599  14.376  0.00  0.00    +0.000 N 
ATOM     11  C   UNL     1       6.797   4.659  15.101  0.00  0.00    +0.000 C 
ATOM     12  O   UNL     1       7.639   5.410  14.625  0.00  0.00    +0.000 OA
ATOM     13  H   UNL     1       6.713   3.450  13.453  0.00  0.00    +0.000 HD
ATOM     14  H   UNL     1       5.643   2.946  14.731  0.00  0.00    +0.000 HD
ENDBRANCH   3  11
ENDBRANCH   1   5
BRANCH   1  15
ATOM     15  C   UNL     1       2.644   6.924  19.055  0.00  0.00    +0.000 C 
BRANCH  15  16
ATOM     16  C   UNL     1       2.058   8.255  18.716  0.00  0.00    +0.000 A 
ATOM     17  N   UNL     1       1.196   8.993  19.383  0.00  0.00    +0.000 NA
ATOM     18  C   UNL     1       1.103  10.113  18.590  0.00  0.00    +0.000 A 
ATOM     19  N   UNL     1       1.886  10.095  17.499  0.00  0.00    +0.000 NA
ATOM     20  O   UNL     1       2.507   8.848  17.570  0.00  0.00    +0.000 OA
BRANCH  18  21
ATOM     21  C   UNL     1       0.311  11.307  18.983  0.00  0.00    +0.000 C 
BRANCH  21  22
ATOM     22  C   UNL     1      -1.106  11.070  18.524  0.00  0.00    +0.000 A 
ATOM     23  C   UNL     1      -2.159  11.859  19.014  0.00  0.00    +0.000 A 
ATOM     24  C   UNL     1      -3.465  11.653  18.566  0.00  0.00    +0.000 A 
ATOM     25  C   UNL     1      -3.735  10.659  17.629  0.00  0.00    +0.000 A 
ATOM     26  C   UNL     1      -2.701   9.864  17.140  0.00  0.00    +0.000 A 
ATOM     27  C   UNL     1      -1.393  10.065  17.586  0.00  0.00    +0.000 A 
ENDBRANCH  21  22
ENDBRANCH  18  21
ENDBRANCH  15  16
ENDBRANCH   1  15
TORSDOF 6
ENDMDL
MODEL 5
REMARK VINA RESULT:      -7.9      2.117      2.925
REMARK  Name = 
REMARK  6 active torsions:
REMARK  status: ('A' for Active; 'I' for Inactive)
REMARK    1  A    between atoms: C_2  and  C_4
REMARK    2  A    between atoms: C_6  and  N_7
REMARK    3  A    between atoms: N_7  and  C_8
REMARK    4  A    between atoms: C_8  and  C_9
REMARK    5  A    between atoms: C_11  and  C_12
REMARK    6  A    between atoms: C_12  and  C_13
REMARK                            x       y       z     vdW  Elec       q    Type
REMARK                         _______ _______ _______ _____ _____    ______ ____
ROOT
ATOM      1  N   UNL     1       9.118   9.310  19.232  0.00  0.00    +0.000 N 
ATOM      2  H   UNL     1       8.810   8.677  19.969  0.00  0.00    +0.000 HD
ENDROOT
BRANCH   1   5
ATOM      3  C   UNL     1       9.401  12.201  21.534  0.00  0.00    +0.000 A 
ATOM      4  C   UNL     1       8.989  10.994  20.941  0.00  0.00    +0.000 A 
ATOM      5  C   UNL     1       9.496  10.565  19.703  0.00  0.00    +0.000 A 
ATOM      6  C   UNL     1      10.466  11.365  19.087  0.00  0.00    +0.000 A 
ATOM      7  C   UNL     1      10.877  12.573  19.655  0.00  0.00    +0.000 A 
ATOM      8  C   UNL     1      10.345  12.983  20.872  0.00  0.00    +0.000 A 
ATOM      9  F   UNL     1      10.780  14.144  21.389  0.00  0.00    +0.000 F 
BRANCH   3  11
ATOM     10  N   UNL     1       8.783  11.625  23.831  0.00  0.00    +0.000 N 
ATOM     11  C   UNL     1       8.828  12.576  22.852  0.00  0.00    +0.000 C 
ATOM     12  O   UNL     1       8.403  13.705  23.067  0.00  0.00    +0.000 OA
ATOM     13  H   UNL     1       8.378  11.879  24.721  0.00  0.00    +0.000 HD
ATOM     14  H   UNL     1       9.114  10.678  23.698  0.00  0.00    +0.000 HD
ENDBRANCH   3  11
ENDBRANCH   1   5
BRANCH   1  15
ATOM     15  C   UNL     1       8.367   9.158  17.985  0.00  0.00    +0.000 C 
BRANCH  15  16
ATOM     16  C   UNL     1       7.734   7.822  17.772  0.00  0.00    +0.000 A 
ATOM     17  N   UNL     1       6.911   7.419  16.827  0.00  0.00    +0.000 NA
ATOM     18  C   UNL     1       6.739   6.091  17.143  0.00  0.00    +0.000 A 
ATOM     19  N   UNL     1       7.438   5.674  18.210  0.00  0.00    +0.000 NA
ATOM     20  O   UNL     1       8.085   6.831  18.643  0.00  0.00    +0.000 OA
BRANCH  18  21
ATOM     21  C   UNL     1       5.957   5.161  16.289  0.00  0.00    +0.000 C 
BRANCH  21  22
ATOM     22  C   UNL     1       4.590   5.026  16.915  0.00  0.00    +0.000 A 
ATOM     23  C   UNL     1       3.946   3.780  16.965  0.00  0.00    +0.000 A 
ATOM     24  C   UNL     1       2.694   3.655  17.569  0.00  0.00    +0.000 A 
ATOM     25  C   UNL     1       2.071   4.770  18.125  0.00  0.00    +0.000 A 
ATOM     26  C   UNL     1       2.696   6.013  18.075  0.00  0.00    +0.000 A 
ATOM     27  C   UNL     1       3.948   6.144  17.471  0.00  0.00    +0.000 A 
ENDBRANCH  21  22
ENDBRANCH  18  21
ENDBRANCH  15  16
ENDBRANCH   1  15
TORSDOF 6
ENDMDL
MODEL 6
REMARK VINA RESULT:      -7.8      6.422      8.321
REMARK  Name = 
REMARK  6 active torsions:
REMARK  status: ('A' for Active; 'I' for Inactive)
REMARK    1  A    between atoms: C_2  and  C_4
REMARK    2  A    between atoms: C_6  and  N_7
REMARK    3  A    between atoms: N_7  and  C_8
REMARK    4  A    between atoms: C_8  and  C_9
REMARK    5  A    between atoms: C_11  and  C_12
REMARK    6  A    between atoms: C_12  and  C_13
REMARK                            x       y       z     vdW  Elec       q    Type
REMARK                         _______ _______ _______ _____ _____    ______ ____
ROOT
ATOM      1  N   UNL     1       6.999   4.542  16.097  0.00  0.00    +0.000 N 
ATOM      2  H   UNL     1       7.558   3.824  16.556  0.00  0.00    +0.000 HD
ENDROOT
BRANCH   1   5
ATOM      3  C   UNL     1       6.352   3.738  12.537  0.00  0.00    +0.000 A 
ATOM      4  C   UNL     1       6.336   3.708  13.943  0.00  0.00    +0.000 A 
ATOM      5  C   UNL     1       7.148   4.558  14.712  0.00  0.00    +0.000 A 
ATOM      6  C   UNL     1       7.955   5.477  14.030  0.00  0.00    +0.000 A 
ATOM      7  C   UNL     1       7.993   5.511  12.634  0.00  0.00    +0.000 A 
ATOM      8  C   UNL     1       7.194   4.646  11.897  0.00  0.00    +0.000 A 
ATOM      9  F   UNL     1       7.251   4.724  10.558  0.00  0.00    +0.000 F 
BRANCH   3  11
ATOM     10  N   UNL     1       5.905   1.561  11.512  0.00  0.00    +0.000 N 
ATOM     11  C   UNL     1       5.453   2.817  11.798  0.00  0.00    +0.000 C 
ATOM     12  O   UNL     1       4.331   3.164  11.445  0.00  0.00    +0.000 OA
ATOM     13  H   UNL     1       5.296   0.942  10.995  0.00  0.00    +0.000 HD
ATOM     14  H   UNL     1       6.826   1.232  11.775  0.00  0.00    +0.000 HD
ENDBRANCH   3  11
ENDBRANCH   1   5
BRANCH   1  15
ATOM     15  C   UNL     1       6.902   5.783  16.868  0.00  0.00    +0.000 C 
BRANCH  15  16
ATOM     16  C   UNL     1       5.765   5.854  17.834  0.00  0.00    +0.000 A 
ATOM     17  N   UNL     1       4.520   6.240  17.646  0.00  0.00    +0.000 NA
ATOM     18  C   UNL     1       3.962   6.021  18.885  0.00  0.00    +0.000 A 
ATOM     19  N   UNL     1       4.800   5.498  19.794  0.00  0.00    +0.000 NA
ATOM     20  O   UNL     1       6.008   5.407  19.101  0.00  0.00    +0.000 OA
BRANCH  18  21
ATOM     21  C   UNL     1       2.513   6.212  19.153  0.00  0.00    +0.000 C 
BRANCH  21  22
ATOM     22  C   UNL     1       1.915   4.841  19.352  0.00  0.00    +0.000 A 
ATOM     23  C   UNL     1       1.573   4.388  20.636  0.00  0.00    +0.000 A 
ATOM     24  C   UNL     1       0.995   3.130  20.812  0.00  0.00    +0.000 A 
ATOM     25  C   UNL     1       0.755   2.310  19.712  0.00  0.00    +0.000 A 
ATOM     26  C   UNL     1       1.097   2.744  18.433  0.00  0.00    +0.000 A 
ATOM     27  C   UNL     1       1.677   4.001  18.253  0.00  0.00    +0.000 A 
ENDBRANCH  21  22
ENDBRANCH  18  21
ENDBRANCH  15  16
ENDBRANCH   1  15
TORSDOF 6
ENDMDL
MODEL 7
REMARK VINA RESULT:      -7.8      1.178      1.389
REMARK  Name = 
REMARK  6 active torsions:
REMARK  status: ('A' for Active; 'I' for Inactive)
REMARK    1  A    between atoms: C_2  and  C_4
REMARK    2  A    between atoms: C_6  and  N_7
REMARK    3  A    between atoms: N_7  and  C_8
REMARK    4  A    between atoms: C_8  and  C_9
REMARK    5  A    between atoms: C_11  and  C_12
REMARK    6  A    between atoms: C_12  and  C_13
REMARK                            x       y       z     vdW  Elec       q    Type
REMARK                         _______ _______ _______ _____ _____    ______ ____
ROOT
ATOM      1  N   UNL     1       8.417   9.512  18.053  0.00  0.00    +0.000 N 
ATOM      2  H   UNL     1       8.371   9.543  17.036  0.00  0.00    +0.000 HD
ENDROOT
BRANCH   1   5
ATOM      3  C   UNL     1      10.168  12.768  18.317  0.00  0.00    +0.000 A 
ATOM      4  C   UNL     1       9.483  11.652  17.805  0.00  0.00    +0.000 A 
ATOM      5  C   UNL     1       9.189  10.533  18.603  0.00  0.00    +0.000 A 
ATOM      6  C   UNL     1       9.569  10.579  19.950  0.00  0.00    +0.000 A 
ATOM      7  C   UNL     1      10.262  11.674  20.471  0.00  0.00    +0.000 A 
ATOM      8  C   UNL     1      10.556  12.760  19.655  0.00  0.00    +0.000 A 
ATOM      9  F   UNL     1      11.210  13.798  20.201  0.00  0.00    +0.000 F 
BRANCH   3  11
ATOM     10  N   UNL     1      11.235  13.720  16.330  0.00  0.00    +0.000 N 
ATOM     11  C   UNL     1      10.426  13.917  17.412  0.00  0.00    +0.000 C 
ATOM     12  O   UNL     1       9.934  15.019  17.622  0.00  0.00    +0.000 OA
ATOM     13  H   UNL     1      11.422  14.507  15.725  0.00  0.00    +0.000 HD
ATOM     14  H   UNL     1      11.672  12.830  16.121  0.00  0.00    +0.000 HD
ENDBRANCH   3  11
ENDBRANCH   1   5
BRANCH   1  15
ATOM     15  C   UNL     1       8.457   8.152  18.592  0.00  0.00    +0.000 C 
BRANCH  15  16
ATOM     16  C   UNL     1       7.663   7.135  17.838  0.00  0.00    +0.000 A 
ATOM     17  N   UNL     1       6.711   6.329  18.255  0.00  0.00    +0.000 NA
ATOM     18  C   UNL     1       6.343   5.693  17.091  0.00  0.00    +0.000 A 
ATOM     19  N   UNL     1       7.007   6.098  15.997  0.00  0.00    +0.000 NA
ATOM     20  O   UNL     1       7.902   7.044  16.497  0.00  0.00    +0.000 OA
BRANCH  18  21
ATOM     21  C   UNL     1       5.206   4.740  17.027  0.00  0.00    +0.000 C 
BRANCH  21  22
ATOM     22  C   UNL     1       4.165   5.224  18.007  0.00  0.00    +0.000 A 
ATOM     23  C   UNL     1       3.903   4.508  19.185  0.00  0.00    +0.000 A 
ATOM     24  C   UNL     1       2.959   4.974  20.102  0.00  0.00    +0.000 A 
ATOM     25  C   UNL     1       2.266   6.156  19.851  0.00  0.00    +0.000 A 
ATOM     26  C   UNL     1       2.510   6.872  18.682  0.00  0.00    +0.000 A 
ATOM     27  C   UNL     1       3.452   6.409  17.762  0.00  0.00    +0.000 A 
ENDBRANCH  21  22
ENDBRANCH  18  21
ENDBRANCH  15  16
ENDBRANCH   1  15
TORSDOF 6
ENDMDL
MODEL 8
REMARK VINA RESULT:      -7.7      6.822      9.375
REMARK  Name = 
REMARK  6 active torsions:
REMARK  status: ('A' for Active; 'I' for Inactive)
REMARK    1  A    between atoms: C_2  and  C_4
REMARK    2  A    between atoms: C_6  and  N_7
REMARK    3  A    between atoms: N_7  and  C_8
REMARK    4  A    between atoms: C_8  and  C_9
REMARK    5  A    between atoms: C_11  and  C_12
REMARK    6  A    between atoms: C_12  and  C_13
REMARK                            x       y       z     vdW  Elec       q    Type
REMARK                         _______ _______ _______ _____ _____    ______ ____
ROOT
ATOM      1  N   UNL     1       5.466   3.787  18.080  0.00  0.00    +0.000 N 
ATOM      2  H   UNL     1       5.195   3.059  17.421  0.00  0.00    +0.000 HD
ENDROOT
BRANCH   1   5
ATOM      3  C   UNL     1       2.509   4.198  20.276  0.00  0.00    +0.000 A 
ATOM      4  C   UNL     1       3.560   3.629  19.536  0.00  0.00    +0.000 A 
ATOM      5  C   UNL     1       4.380   4.404  18.698  0.00  0.00    +0.000 A 
ATOM      6  C   UNL     1       4.141   5.783  18.651  0.00  0.00    +0.000 A 
ATOM      7  C   UNL     1       3.092   6.361  19.369  0.00  0.00    +0.000 A 
ATOM      8  C   UNL     1       2.285   5.569  20.177  0.00  0.00    +0.000 A 
ATOM      9  F   UNL     1       1.298   6.170  20.861  0.00  0.00    +0.000 F 
BRANCH   3  11
ATOM     10  N   UNL     1       0.531   2.806  20.656  0.00  0.00    +0.000 N 
ATOM     11  C   UNL     1       1.698   3.313  21.151  0.00  0.00    +0.000 C 
ATOM     12  O   UNL     1       2.056   3.038  22.291  0.00  0.00    +0.000 OA
ATOM     13  H   UNL     1      -0.026   2.217  21.259  0.00  0.00    +0.000 HD
ATOM     14  H   UNL     1       0.190   3.011  19.725  0.00  0.00    +0.000 HD
ENDBRANCH   3  11
ENDBRANCH   1   5
BRANCH   1  15
ATOM     15  C   UNL     1       6.634   4.556  17.648  0.00  0.00    +0.000 C 
BRANCH  15  16
ATOM     16  C   UNL     1       6.671   4.914  16.198  0.00  0.00    +0.000 A 
ATOM     17  N   UNL     1       7.542   4.582  15.269  0.00  0.00    +0.000 NA
ATOM     18  C   UNL     1       6.999   5.162  14.146  0.00  0.00    +0.000 A 
ATOM     19  N   UNL     1       5.834   5.798  14.351  0.00  0.00    +0.000 NA
ATOM     20  O   UNL     1       5.626   5.652  15.722  0.00  0.00    +0.000 OA
BRANCH  18  21
ATOM     21  C   UNL     1       7.578   4.976  12.791  0.00  0.00    +0.000 C 
BRANCH  21  22
ATOM     22  C   UNL     1       6.915   3.763  12.188  0.00  0.00    +0.000 A 
ATOM     23  C   UNL     1       7.684   2.724  11.639  0.00  0.00    +0.000 A 
ATOM     24  C   UNL     1       7.068   1.591  11.107  0.00  0.00    +0.000 A 
ATOM     25  C   UNL     1       5.679   1.483  11.113  0.00  0.00    +0.000 A 
ATOM     26  C   UNL     1       4.904   2.510  11.646  0.00  0.00    +0.000 A 
ATOM     27  C   UNL     1       5.516   3.645  12.179  0.00  0.00    +0.000 A 
ENDBRANCH  21  22
ENDBRANCH  18  21
ENDBRANCH  15  16
ENDBRANCH   1  15
TORSDOF 6
ENDMDL
MODEL 9
REMARK VINA RESULT:      -7.7      5.061      7.613
REMARK  Name = 
REMARK  6 active torsions:
REMARK  status: ('A' for Active; 'I' for Inactive)
REMARK    1  A    between atoms: C_2  and  C_4
REMARK    2  A    between atoms: C_6  and  N_7
REMARK    3  A    between atoms: N_7  and  C_8
REMARK    4  A    between atoms: C_8  and  C_9
REMARK    5  A    between atoms: C_11  and  C_12
REMARK    6  A    between atoms: C_12  and  C_13
REMARK                            x       y       z     vdW  Elec       q    Type
REMARK                         _______ _______ _______ _____ _____    ______ ____
ROOT
ATOM      1  N   UNL     1       5.199   2.867  19.446  0.00  0.00    +0.000 N 
ATOM      2  H   UNL     1       5.979   2.924  20.098  0.00  0.00    +0.000 HD
ENDROOT
BRANCH   1   5
ATOM      3  C   UNL     1       6.315   5.882  17.603  0.00  0.00    +0.000 A 
ATOM      4  C   UNL     1       6.170   4.891  18.590  0.00  0.00    +0.000 A 
ATOM      5  C   UNL     1       5.211   3.871  18.480  0.00  0.00    +0.000 A 
ATOM      6  C   UNL     1       4.420   3.845  17.325  0.00  0.00    +0.000 A 
ATOM      7  C   UNL     1       4.542   4.830  16.341  0.00  0.00    +0.000 A 
ATOM      8  C   UNL     1       5.487   5.839  16.484  0.00  0.00    +0.000 A 
ATOM      9  F   UNL     1       5.579   6.755  15.507  0.00  0.00    +0.000 F 
BRANCH   3  11
ATOM     10  N   UNL     1       8.198   6.810  18.863  0.00  0.00    +0.000 N 
ATOM     11  C   UNL     1       7.364   6.918  17.787  0.00  0.00    +0.000 C 
ATOM     12  O   UNL     1       7.487   7.850  17.001  0.00  0.00    +0.000 OA
ATOM     13  H   UNL     1       8.900   7.525  18.993  0.00  0.00    +0.000 HD
ATOM     14  H   UNL     1       8.129   6.063  19.543  0.00  0.00    +0.000 HD
ENDBRANCH   3  11
ENDBRANCH   1   5
BRANCH   1  15
ATOM     15  C   UNL     1       3.950   2.426  20.071  0.00  0.00    +0.000 C 
BRANCH  15  16
ATOM     16  C   UNL     1       2.923   3.490  20.279  0.00  0.00    +0.000 A 
ATOM     17  N   UNL     1       3.028   4.660  20.874  0.00  0.00    +0.000 NA
ATOM     18  C   UNL     1       1.772   5.191  20.687  0.00  0.00    +0.000 A 
ATOM     19  N   UNL     1       0.933   4.411  19.987  0.00  0.00    +0.000 NA
ATOM     20  O   UNL     1       1.691   3.269  19.734  0.00  0.00    +0.000 OA
BRANCH  18  21
ATOM     21  C   UNL     1       1.420   6.573  21.100  0.00  0.00    +0.000 C 
BRANCH  21  22
ATOM     22  C   UNL     1       1.702   7.473  19.923  0.00  0.00    +0.000 A 
ATOM     23  C   UNL     1       1.140   8.758  19.852  0.00  0.00    +0.000 A 
ATOM     24  C   UNL     1       1.426   9.597  18.774  0.00  0.00    +0.000 A 
ATOM     25  C   UNL     1       2.272   9.164  17.755  0.00  0.00    +0.000 A 
ATOM     26  C   UNL     1       2.830   7.889  17.809  0.00  0.00    +0.000 A 
ATOM     27  C   UNL     1       2.546   7.046  18.885  0.00  0.00    +0.000 A 
ENDBRANCH  21  22
ENDBRANCH  18  21
ENDBRANCH  15  16
ENDBRANCH   1  15
TORSDOF 6
ENDMDL
