MODEL 1
REMARK VINA RESULT:      -7.9      0.000      0.000
REMARK  Name = 
REMARK  9 active torsions:
REMARK  status: ('A' for Active; 'I' for Inactive)
REMARK    1  A    between atoms: C_1  and  C_2
REMARK    2  A    between atoms: C_5  and  C_6
REMARK    3  A    between atoms: C_6  and  C_7
REMARK    4  A    between atoms: C_8  and  C_9
REMARK    5  A    between atoms: N_13  and  C_14
REMARK    6  A    between atoms: C_16  and  N_17
REMARK    7  A    between atoms: C_22  and  C_23
REMARK    8  A    between atoms: C_23  and  N_24
REMARK    9  A    between atoms: C_26  and  C_27
REMARK                            x       y       z     vdW  Elec       q    Type
REMARK                         _______ _______ _______ _____ _____    ______ ____
ROOT
ATOM      1  N   UNL     1       4.770   3.934  19.580  0.00  0.00    +0.000 N 
ATOM      2  C   UNL     1       5.981   4.726  19.435  0.00  0.00    +0.000 C 
ATOM      3  C   UNL     1       6.206   4.690  17.958  0.00  0.00    +0.000 A 
ATOM      4  C   UNL     1       5.530   3.587  17.434  0.00  0.00    +0.000 A 
ATOM      5  C   UNL     1       5.322   3.392  16.083  0.00  0.00    +0.000 A 
ATOM      6  C   UNL     1       5.802   4.375  15.216  0.00  0.00    +0.000 A 
ATOM      7  C   UNL     1       6.543   5.468  15.733  0.00  0.00    +0.000 A 
ATOM      8  C   UNL     1       6.760   5.644  17.115  0.00  0.00    +0.000 A 
ATOM      9  C   UNL     1       4.695   3.027  18.503  0.00  0.00    +0.000 C 
ATOM     10  O   UNL     1       3.936   2.086  18.333  0.00  0.00    +0.000 OA
ENDROOT
BRANCH   1  17
ATOM     11  C   UNL     1       2.644   2.809  21.524  0.00  0.00    +0.000 C 
ATOM     12  C   UNL     1       2.486   3.956  20.567  0.00  0.00    +0.000 A 
ATOM     13  C   UNL     1       1.206   4.521  20.440  0.00  0.00    +0.000 A 
ATOM     14  C   UNL     1       1.022   5.787  19.880  0.00  0.00    +0.000 A 
ATOM     15  C   UNL     1       2.125   6.566  19.540  0.00  0.00    +0.000 A 
ATOM     16  C   UNL     1       3.382   5.957  19.570  0.00  0.00    +0.000 A 
ATOM     17  C   UNL     1       3.552   4.608  19.941  0.00  0.00    +0.000 A 
BRANCH  15  18
ATOM     18  C   UNL     1       1.962   8.039  19.254  0.00  0.00    +0.000 C 
BRANCH  18  19
ATOM     19  C   UNL     1       1.272   8.915  20.265  0.00  0.00    +0.000 C 
ATOM     20  C   UNL     1       0.286   9.799  20.077  0.00  0.00    +0.000 C 
BRANCH  20  21
ATOM     21  C   UNL     1      -0.214  10.540  21.180  0.00  0.00    +0.000 A 
ATOM     22  N   UNL     1       0.102  10.475  22.469  0.00  0.00    +0.000 NA
ATOM     23  N   UNL     1      -0.652  11.398  23.149  0.00  0.00    +0.000 NA
ATOM     24  C   UNL     1      -1.402  12.021  22.278  0.00  0.00    +0.000 A 
ATOM     25  N   UNL     1      -1.159  11.525  21.029  0.00  0.00    +0.000 N 
ATOM     26  C   UNL     1      -1.775  11.996  19.814  0.00  0.00    +0.000 C 
ENDBRANCH  20  21
ENDBRANCH  18  19
ENDBRANCH  15  18
ENDBRANCH   1  17
BRANCH   8  27
ATOM     27  C   UNL     1       7.404   6.910  17.617  0.00  0.00    +0.000 C 
ATOM     28  F   UNL     1       8.141   7.565  16.677  0.00  0.00    +0.000 F 
ATOM     29  F   UNL     1       6.493   7.815  18.063  0.00  0.00    +0.000 F 
ATOM     30  F   UNL     1       8.252   6.679  18.655  0.00  0.00    +0.000 F 
ENDBRANCH   8  27
BRANCH   6  31
ATOM     31  C   UNL     1       5.327   4.400  13.789  0.00  0.00    +0.000 C 
BRANCH  31  32
ATOM     32  N   UNL     1       6.080   3.438  13.000  0.00  0.00    +0.000 NA
ATOM     33  H   UNL     1       5.489   3.076  12.252  0.00  0.00    +0.000 HD
ATOM     34  H   UNL     1       6.324   2.634  13.575  0.00  0.00    +0.000 HD
ENDBRANCH  31  32
ENDBRANCH   6  31
TORSDOF 7
ENDMDL
MODEL 2
REMARK VINA RESULT:      -7.7      1.594      2.203
REMARK  Name = 
REMARK  9 active torsions:
REMARK  status: ('A' for Active; 'I' for Inactive)
REMARK    1  A    between atoms: C_1  and  C_2
REMARK    2  A    between atoms: C_5  and  C_6
REMARK    3  A    between atoms: C_6  and  C_7
REMARK    4  A    between atoms: C_8  and  C_9
REMARK    5  A    between atoms: N_13  and  C_14
REMARK    6  A    between atoms: C_16  and  N_17
REMARK    7  A    between atoms: C_22  and  C_23
REMARK    8  A    between atoms: C_23  and  N_24
REMARK    9  A    between atoms: C_26  and  C_27
REMARK                            x       y       z     vdW  Elec       q    Type
REMARK                         _______ _______ _______ _____ _____    ______ ____
ROOT
ATOM      1  N   UNL     1       4.719   4.403  19.597  0.00  0.00    +0.000 N 
ATOM      2  C   UNL     1       5.971   5.127  19.437  0.00  0.00    +0.000 C 
ATOM      3  C   UNL     1       6.240   4.970  17.975  0.00  0.00    +0.000 A 
ATOM      4  C   UNL     1       5.529   3.864  17.509  0.00  0.00    +0.000 A 
ATOM      5  C   UNL     1       5.354   3.578  16.169  0.00  0.00    +0.000 A 
ATOM      6  C   UNL     1       5.908   4.471  15.251  0.00  0.00    +0.000 A 
ATOM      7  C   UNL     1       6.685   5.564  15.712  0.00  0.00    +0.000 A 
ATOM      8  C   UNL     1       6.866   5.832  17.085  0.00  0.00    +0.000 A 
ATOM      9  C   UNL     1       4.634   3.423  18.586  0.00  0.00    +0.000 C 
ATOM     10  O   UNL     1       3.836   2.509  18.459  0.00  0.00    +0.000 OA
ENDROOT
BRANCH   1  17
ATOM     11  C   UNL     1       2.522   3.569  21.608  0.00  0.00    +0.000 C 
ATOM     12  C   UNL     1       2.424   4.616  20.535  0.00  0.00    +0.000 A 
ATOM     13  C   UNL     1       1.169   5.213  20.328  0.00  0.00    +0.000 A 
ATOM     14  C   UNL     1       1.044   6.421  19.638  0.00  0.00    +0.000 A 
ATOM     15  C   UNL     1       2.183   7.117  19.239  0.00  0.00    +0.000 A 
ATOM     16  C   UNL     1       3.413   6.466  19.354  0.00  0.00    +0.000 A 
ATOM     17  C   UNL     1       3.524   5.158  19.864  0.00  0.00    +0.000 A 
BRANCH  15  18
ATOM     18  C   UNL     1       2.083   8.559  18.800  0.00  0.00    +0.000 C 
BRANCH  18  19
ATOM     19  C   UNL     1       0.788   9.066  18.225  0.00  0.00    +0.000 C 
ATOM     20  C   UNL     1       0.018  10.074  18.651  0.00  0.00    +0.000 C 
BRANCH  20  21
ATOM     21  C   UNL     1      -1.186  10.378  17.962  0.00  0.00    +0.000 A 
ATOM     22  N   UNL     1      -1.768   9.758  16.941  0.00  0.00    +0.000 NA
ATOM     23  N   UNL     1      -2.923  10.430  16.626  0.00  0.00    +0.000 NA
ATOM     24  C   UNL     1      -3.042  11.432  17.457  0.00  0.00    +0.000 A 
ATOM     25  N   UNL     1      -1.982  11.438  18.318  0.00  0.00    +0.000 N 
ATOM     26  C   UNL     1      -1.795  12.376  19.397  0.00  0.00    +0.000 C 
ENDBRANCH  20  21
ENDBRANCH  18  19
ENDBRANCH  15  18
ENDBRANCH   1  17
BRANCH   8  27
ATOM     27  C   UNL     1       7.554   7.101  17.515  0.00  0.00    +0.000 C 
ATOM     28  F   UNL     1       8.382   6.945  18.585  0.00  0.00    +0.000 F 
ATOM     29  F   UNL     1       8.326   7.634  16.531  0.00  0.00    +0.000 F 
ATOM     30  F   UNL     1       6.669   8.071  17.873  0.00  0.00    +0.000 F 
ENDBRANCH   8  27
BRANCH   6  31
ATOM     31  C   UNL     1       5.480   4.412  13.810  0.00  0.00    +0.000 C 
BRANCH  31  32
ATOM     32  N   UNL     1       6.275   3.424  13.098  0.00  0.00    +0.000 NA
ATOM     33  H   UNL     1       7.250   3.723  13.078  0.00  0.00    +0.000 HD
ATOM     34  H   UNL     1       5.980   3.379  12.124  0.00  0.00    +0.000 HD
ENDBRANCH  31  32
ENDBRANCH   6  31
TORSDOF 7
ENDMDL
MODEL 3
REMARK VINA RESULT:      -7.6      1.454      2.466
REMARK  Name = 
REMARK  9 active torsions:
REMARK  status: ('A' for Active; 'I' for Inactive)
REMARK    1  A    between atoms: C_1  and  C_2
REMARK    2  A    between atoms: C_5  and  C_6
REMARK    3  A    between atoms: C_6  and  C_7
REMARK    4  A    between atoms: C_8  and  C_9
REMARK    5  A    between atoms: N_13  and  C_14
REMARK    6  A    between atoms: C_16  and  N_17
REMARK    7  A    between atoms: C_22  and  C_23
REMARK    8  A    between atoms: C_23  and  N_24
REMARK    9  A    between atoms: C_26  and  C_27
REMARK                            x       y       z     vdW  Elec       q    Type
REMARK                         _______ _______ _______ _____ _____    ______ ____
ROOT
ATOM      1  N   UNL     1       3.749   5.536  19.527  0.00  0.00    +0.000 N 
ATOM      2  C   UNL     1       5.157   5.898  19.478  0.00  0.00    +0.000 C 
ATOM      3  C   UNL     1       5.569   5.379  18.138  0.00  0.00    +0.000 A 
ATOM      4  C   UNL     1       4.661   4.395  17.746  0.00  0.00    +0.000 A 
ATOM      5  C   UNL     1       4.598   3.882  16.465  0.00  0.00    +0.000 A 
ATOM      6  C   UNL     1       5.486   4.407  15.525  0.00  0.00    +0.000 A 
ATOM      7  C   UNL     1       6.454   5.362  15.928  0.00  0.00    +0.000 A 
ATOM      8  C   UNL     1       6.514   5.864  17.244  0.00  0.00    +0.000 A 
ATOM      9  C   UNL     1       3.546   4.412  18.700  0.00  0.00    +0.000 C 
ATOM     10  O   UNL     1       2.560   3.702  18.586  0.00  0.00    +0.000 OA
ENDROOT
BRANCH   1  17
ATOM     11  C   UNL     1       3.175   7.197  16.982  0.00  0.00    +0.000 C 
ATOM     12  C   UNL     1       2.747   7.508  18.388  0.00  0.00    +0.000 A 
ATOM     13  C   UNL     1       2.116   8.743  18.613  0.00  0.00    +0.000 A 
ATOM     14  C   UNL     1       1.365   8.976  19.768  0.00  0.00    +0.000 A 
ATOM     15  C   UNL     1       1.134   7.941  20.670  0.00  0.00    +0.000 A 
ATOM     16  C   UNL     1       1.851   6.755  20.493  0.00  0.00    +0.000 A 
ATOM     17  C   UNL     1       2.770   6.586  19.438  0.00  0.00    +0.000 A 
BRANCH  15  18
ATOM     18  C   UNL     1       0.069   8.075  21.731  0.00  0.00    +0.000 C 
BRANCH  18  19
ATOM     19  C   UNL     1      -0.645   9.389  21.898  0.00  0.00    +0.000 C 
ATOM     20  C   UNL     1      -0.517  10.297  22.872  0.00  0.00    +0.000 C 
BRANCH  20  21
ATOM     21  C   UNL     1      -1.310  11.475  22.844  0.00  0.00    +0.000 A 
ATOM     22  N   UNL     1      -2.478  11.736  23.422  0.00  0.00    +0.000 NA
ATOM     23  N   UNL     1      -2.844  13.019  23.102  0.00  0.00    +0.000 NA
ATOM     24  C   UNL     1      -1.902  13.529  22.353  0.00  0.00    +0.000 A 
ATOM     25  N   UNL     1      -0.915  12.603  22.168  0.00  0.00    +0.000 N 
ATOM     26  C   UNL     1       0.302  12.823  21.427  0.00  0.00    +0.000 C 
ENDBRANCH  20  21
ENDBRANCH  18  19
ENDBRANCH  15  18
ENDBRANCH   1  17
BRANCH   8  27
ATOM     27  C   UNL     1       7.448   7.000  17.571  0.00  0.00    +0.000 C 
ATOM     28  F   UNL     1       8.264   6.756  18.633  0.00  0.00    +0.000 F 
ATOM     29  F   UNL     1       8.276   7.305  16.537  0.00  0.00    +0.000 F 
ATOM     30  F   UNL     1       6.779   8.145  17.875  0.00  0.00    +0.000 F 
ENDBRANCH   8  27
BRANCH   6  31
ATOM     31  C   UNL     1       5.255   4.146  14.062  0.00  0.00    +0.000 C 
BRANCH  31  32
ATOM     32  N   UNL     1       6.419   3.490  13.487  0.00  0.00    +0.000 NA
ATOM     33  H   UNL     1       6.313   2.479  13.568  0.00  0.00    +0.000 HD
ATOM     34  H   UNL     1       7.251   3.725  14.026  0.00  0.00    +0.000 HD
ENDBRANCH  31  32
ENDBRANCH   6  31
TORSDOF 7
ENDMDL
MODEL 4
REMARK VINA RESULT:      -7.5      1.373      1.600
REMARK  Name = 
REMARK  9 active torsions:
REMARK  status: ('A' for Active; 'I' for Inactive)
REMARK    1  A    between atoms: C_1  and  C_2
REMARK    2  A    between atoms: C_5  and  C_6
REMARK    3  A    between atoms: C_6  and  C_7
REMARK    4  A    between atoms: C_8  and  C_9
REMARK    5  A    between atoms: N_13  and  C_14
REMARK    6  A    between atoms: C_16  and  N_17
REMARK    7  A    between atoms: C_22  and  C_23
REMARK    8  A    between atoms: C_23  and  N_24
REMARK    9  A    between atoms: C_26  and  C_27
REMARK                            x       y       z     vdW  Elec       q    Type
REMARK                         _______ _______ _______ _____ _____    ______ ____
ROOT
ATOM      1  N   UNL     1       4.708   4.551  19.557  0.00  0.00    +0.000 N 
ATOM      2  C   UNL     1       5.975   5.251  19.419  0.00  0.00    +0.000 C 
ATOM      3  C   UNL     1       6.287   5.055  17.970  0.00  0.00    +0.000 A 
ATOM      4  C   UNL     1       5.574   3.948  17.509  0.00  0.00    +0.000 A 
ATOM      5  C   UNL     1       5.436   3.633  16.171  0.00  0.00    +0.000 A 
ATOM      6  C   UNL     1       6.032   4.495  15.250  0.00  0.00    +0.000 A 
ATOM      7  C   UNL     1       6.811   5.587  15.709  0.00  0.00    +0.000 A 
ATOM      8  C   UNL     1       6.954   5.886  17.080  0.00  0.00    +0.000 A 
ATOM      9  C   UNL     1       4.640   3.547  18.567  0.00  0.00    +0.000 C 
ATOM     10  O   UNL     1       3.832   2.642  18.437  0.00  0.00    +0.000 OA
ENDROOT
BRANCH   1  17
ATOM     11  C   UNL     1       2.512   3.881  21.628  0.00  0.00    +0.000 C 
ATOM     12  C   UNL     1       2.416   4.845  20.480  0.00  0.00    +0.000 A 
ATOM     13  C   UNL     1       1.164   5.431  20.230  0.00  0.00    +0.000 A 
ATOM     14  C   UNL     1       1.043   6.583  19.451  0.00  0.00    +0.000 A 
ATOM     15  C   UNL     1       2.184   7.242  18.999  0.00  0.00    +0.000 A 
ATOM     16  C   UNL     1       3.411   6.596  19.160  0.00  0.00    +0.000 A 
ATOM     17  C   UNL     1       3.517   5.329  19.768  0.00  0.00    +0.000 A 
BRANCH  15  18
ATOM     18  C   UNL     1       2.090   8.646  18.452  0.00  0.00    +0.000 C 
BRANCH  18  19
ATOM     19  C   UNL     1       0.934   9.520  18.859  0.00  0.00    +0.000 C 
ATOM     20  C   UNL     1      -0.079   9.975  18.112  0.00  0.00    +0.000 C 
BRANCH  20  21
ATOM     21  C   UNL     1      -1.066  10.810  18.700  0.00  0.00    +0.000 A 
ATOM     22  N   UNL     1      -0.949  11.740  19.642  0.00  0.00    +0.000 NA
ATOM     23  N   UNL     1      -2.189  12.280  19.875  0.00  0.00    +0.000 NA
ATOM     24  C   UNL     1      -3.039  11.692  19.073  0.00  0.00    +0.000 A 
ATOM     25  N   UNL     1      -2.382  10.768  18.311  0.00  0.00    +0.000 N 
ATOM     26  C   UNL     1      -2.988   9.954  17.287  0.00  0.00    +0.000 C 
ENDBRANCH  20  21
ENDBRANCH  18  19
ENDBRANCH  15  18
ENDBRANCH   1  17
BRANCH   8  27
ATOM     27  C   UNL     1       7.648   7.154  17.501  0.00  0.00    +0.000 C 
ATOM     28  F   UNL     1       8.528   7.635  16.580  0.00  0.00    +0.000 F 
ATOM     29  F   UNL     1       6.776   8.170  17.737  0.00  0.00    +0.000 F 
ATOM     30  F   UNL     1       8.365   6.993  18.646  0.00  0.00    +0.000 F 
ENDBRANCH   8  27
BRANCH   6  31
ATOM     31  C   UNL     1       5.648   4.407  13.798  0.00  0.00    +0.000 C 
BRANCH  31  32
ATOM     32  N   UNL     1       6.298   3.259  13.183  0.00  0.00    +0.000 NA
ATOM     33  H   UNL     1       6.312   2.483  13.843  0.00  0.00    +0.000 HD
ATOM     34  H   UNL     1       7.275   3.477  12.991  0.00  0.00    +0.000 HD
ENDBRANCH  31  32
ENDBRANCH   6  31
TORSDOF 7
ENDMDL
MODEL 5
REMARK VINA RESULT:      -7.5      0.657      1.247
REMARK  Name = 
REMARK  9 active torsions:
REMARK  status: ('A' for Active; 'I' for Inactive)
REMARK    1  A    between atoms: C_1  and  C_2
REMARK    2  A    between atoms: C_5  and  C_6
REMARK    3  A    between atoms: C_6  and  C_7
REMARK    4  A    between atoms: C_8  and  C_9
REMARK    5  A    between atoms: N_13  and  C_14
REMARK    6  A    between atoms: C_16  and  N_17
REMARK    7  A    between atoms: C_22  and  C_23
REMARK    8  A    between atoms: C_23  and  N_24
REMARK    9  A    between atoms: C_26  and  C_27
REMARK                            x       y       z     vdW  Elec       q    Type
REMARK                         _______ _______ _______ _____ _____    ______ ____
ROOT
ATOM      1  N   UNL     1       4.726   4.357  19.584  0.00  0.00    +0.000 N 
ATOM      2  C   UNL     1       5.965   5.105  19.434  0.00  0.00    +0.000 C 
ATOM      3  C   UNL     1       6.243   4.962  17.972  0.00  0.00    +0.000 A 
ATOM      4  C   UNL     1       5.555   3.845  17.497  0.00  0.00    +0.000 A 
ATOM      5  C   UNL     1       5.391   3.564  16.155  0.00  0.00    +0.000 A 
ATOM      6  C   UNL     1       5.932   4.472  15.244  0.00  0.00    +0.000 A 
ATOM      7  C   UNL     1       6.686   5.577  15.714  0.00  0.00    +0.000 A 
ATOM      8  C   UNL     1       6.857   5.840  17.090  0.00  0.00    +0.000 A 
ATOM      9  C   UNL     1       4.664   3.382  18.567  0.00  0.00    +0.000 C 
ATOM     10  O   UNL     1       3.884   2.453  18.431  0.00  0.00    +0.000 OA
ENDROOT
BRANCH   1  17
ATOM     11  C   UNL     1       2.592   3.531  21.664  0.00  0.00    +0.000 C 
ATOM     12  C   UNL     1       2.445   4.539  20.560  0.00  0.00    +0.000 A 
ATOM     13  C   UNL     1       1.170   5.095  20.358  0.00  0.00    +0.000 A 
ATOM     14  C   UNL     1       0.999   6.276  19.632  0.00  0.00    +0.000 A 
ATOM     15  C   UNL     1       2.110   6.989  19.188  0.00  0.00    +0.000 A 
ATOM     16  C   UNL     1       3.360   6.375  19.300  0.00  0.00    +0.000 A 
ATOM     17  C   UNL     1       3.516   5.088  19.850  0.00  0.00    +0.000 A 
BRANCH  15  18
ATOM     18  C   UNL     1       1.962   8.412  18.705  0.00  0.00    +0.000 C 
BRANCH  18  19
ATOM     19  C   UNL     1       1.362   9.444  19.621  0.00  0.00    +0.000 C 
ATOM     20  C   UNL     1       0.073   9.740  19.822  0.00  0.00    +0.000 C 
BRANCH  20  21
ATOM     21  C   UNL     1      -0.276  10.774  20.732  0.00  0.00    +0.000 A 
ATOM     22  N   UNL     1      -0.460  12.073  20.521  0.00  0.00    +0.000 NA
ATOM     23  N   UNL     1      -0.790  12.665  21.714  0.00  0.00    +0.000 NA
ATOM     24  C   UNL     1      -0.820  11.731  22.629  0.00  0.00    +0.000 A 
ATOM     25  N   UNL     1      -0.512  10.527  22.061  0.00  0.00    +0.000 N 
ATOM     26  C   UNL     1      -0.484   9.264  22.756  0.00  0.00    +0.000 C 
ENDBRANCH  20  21
ENDBRANCH  18  19
ENDBRANCH  15  18
ENDBRANCH   1  17
BRANCH   8  27
ATOM     27  C   UNL     1       7.519   7.119  17.530  0.00  0.00    +0.000 C 
ATOM     28  F   UNL     1       6.645   8.103  17.880  0.00  0.00    +0.000 F 
ATOM     29  F   UNL     1       8.322   6.943  18.613  0.00  0.00    +0.000 F 
ATOM     30  F   UNL     1       8.305   7.654  16.557  0.00  0.00    +0.000 F 
ENDBRANCH   8  27
BRANCH   6  31
ATOM     31  C   UNL     1       5.512   4.413  13.801  0.00  0.00    +0.000 C 
BRANCH  31  32
ATOM     32  N   UNL     1       6.247   3.363  13.113  0.00  0.00    +0.000 NA
ATOM     33  H   UNL     1       6.037   2.463  13.545  0.00  0.00    +0.000 HD
ATOM     34  H   UNL     1       7.249   3.502  13.239  0.00  0.00    +0.000 HD
ENDBRANCH  31  32
ENDBRANCH   6  31
TORSDOF 7
ENDMDL
MODEL 6
REMARK VINA RESULT:      -7.5      1.529      2.339
REMARK  Name = 
REMARK  9 active torsions:
REMARK  status: ('A' for Active; 'I' for Inactive)
REMARK    1  A    between atoms: C_1  and  C_2
REMARK    2  A    between atoms: C_5  and  C_6
REMARK    3  A    between atoms: C_6  and  C_7
REMARK    4  A    between atoms: C_8  and  C_9
REMARK    5  A    between atoms: N_13  and  C_14
REMARK    6  A    between atoms: C_16  and  N_17
REMARK    7  A    between atoms: C_22  and  C_23
REMARK    8  A    between atoms: C_23  and  N_24
REMARK    9  A    between atoms: C_26  and  C_27
REMARK                            x       y       z     vdW  Elec       q    Type
REMARK                         _______ _______ _______ _____ _____    ______ ____
ROOT
ATOM      1  N   UNL     1       3.432   4.636  19.186  0.00  0.00    +0.000 N 
ATOM      2  C   UNL     1       4.818   4.621  19.626  0.00  0.00    +0.000 C 
ATOM      3  C   UNL     1       5.554   4.417  18.341  0.00  0.00    +0.000 A 
ATOM      4  C   UNL     1       4.677   3.854  17.413  0.00  0.00    +0.000 A 
ATOM      5  C   UNL     1       4.953   3.761  16.063  0.00  0.00    +0.000 A 
ATOM      6  C   UNL     1       6.170   4.285  15.624  0.00  0.00    +0.000 A 
ATOM      7  C   UNL     1       7.094   4.802  16.566  0.00  0.00    +0.000 A 
ATOM      8  C   UNL     1       6.803   4.876  17.945  0.00  0.00    +0.000 A 
ATOM      9  C   UNL     1       3.331   3.885  17.996  0.00  0.00    +0.000 C 
ATOM     10  O   UNL     1       2.335   3.516  17.395  0.00  0.00    +0.000 OA
ENDROOT
BRANCH   1  17
ATOM     11  C   UNL     1       3.498   6.771  16.950  0.00  0.00    +0.000 C 
ATOM     12  C   UNL     1       3.002   6.942  18.358  0.00  0.00    +0.000 A 
ATOM     13  C   UNL     1       2.631   8.237  18.759  0.00  0.00    +0.000 A 
ATOM     14  C   UNL     1       1.831   8.447  19.885  0.00  0.00    +0.000 A 
ATOM     15  C   UNL     1       1.290   7.361  20.569  0.00  0.00    +0.000 A 
ATOM     16  C   UNL     1       1.750   6.087  20.228  0.00  0.00    +0.000 A 
ATOM     17  C   UNL     1       2.716   5.883  19.223  0.00  0.00    +0.000 A 
BRANCH  15  18
ATOM     18  C   UNL     1       0.173   7.564  21.564  0.00  0.00    +0.000 C 
BRANCH  18  19
ATOM     19  C   UNL     1      -0.417   8.937  21.741  0.00  0.00    +0.000 C 
ATOM     20  C   UNL     1      -0.180   9.835  22.704  0.00  0.00    +0.000 C 
BRANCH  20  21
ATOM     21  C   UNL     1      -0.865  11.079  22.690  0.00  0.00    +0.000 A 
ATOM     22  N   UNL     1      -1.952  11.465  23.351  0.00  0.00    +0.000 NA
ATOM     23  N   UNL     1      -2.231  12.764  23.006  0.00  0.00    +0.000 NA
ATOM     24  C   UNL     1      -1.315  13.159  22.161  0.00  0.00    +0.000 A 
ATOM     25  N   UNL     1      -0.432  12.142  21.936  0.00  0.00    +0.000 N 
ATOM     26  C   UNL     1       0.732  12.223  21.090  0.00  0.00    +0.000 C 
ENDBRANCH  20  21
ENDBRANCH  18  19
ENDBRANCH  15  18
ENDBRANCH   1  17
BRANCH   8  27
ATOM     27  C   UNL     1       7.749   5.591  18.873  0.00  0.00    +0.000 C 
ATOM     28  F   UNL     1       8.875   4.883  19.167  0.00  0.00    +0.000 F 
ATOM     29  F   UNL     1       8.184   6.773  18.362  0.00  0.00    +0.000 F 
ATOM     30  F   UNL     1       7.173   5.881  20.071  0.00  0.00    +0.000 F 
ENDBRANCH   8  27
BRANCH   6  31
ATOM     31  C   UNL     1       6.388   4.520  14.155  0.00  0.00    +0.000 C 
BRANCH  31  32
ATOM     32  N   UNL     1       6.288   3.261  13.432  0.00  0.00    +0.000 NA
ATOM     33  H   UNL     1       6.956   3.259  12.661  0.00  0.00    +0.000 HD
ATOM     34  H   UNL     1       5.368   3.181  13.001  0.00  0.00    +0.000 HD
ENDBRANCH  31  32
ENDBRANCH   6  31
TORSDOF 7
ENDMDL
MODEL 7
REMARK VINA RESULT:      -7.4      1.652      2.547
REMARK  Name = 
REMARK  9 active torsions:
REMARK  status: ('A' for Active; 'I' for Inactive)
REMARK    1  A    between atoms: C_1  and  C_2
REMARK    2  A    between atoms: C_5  and  C_6
REMARK    3  A    between atoms: C_6  and  C_7
REMARK    4  A    between atoms: C_8  and  C_9
REMARK    5  A    between atoms: N_13  and  C_14
REMARK    6  A    between atoms: C_16  and  N_17
REMARK    7  A    between atoms: C_22  and  C_23
REMARK    8  A    between atoms: C_23  and  N_24
REMARK    9  A    between atoms: C_26  and  C_27
REMARK                            x       y       z     vdW  Elec       q    Type
REMARK                         _______ _______ _______ _____ _____    ______ ____
ROOT
ATOM      1  N   UNL     1       3.344   5.000  19.239  0.00  0.00    +0.000 N 
ATOM      2  C   UNL     1       4.721   4.947  19.703  0.00  0.00    +0.000 C 
ATOM      3  C   UNL     1       5.457   4.558  18.460  0.00  0.00    +0.000 A 
ATOM      4  C   UNL     1       4.555   3.953  17.584  0.00  0.00    +0.000 A 
ATOM      5  C   UNL     1       4.839   3.696  16.256  0.00  0.00    +0.000 A 
ATOM      6  C   UNL     1       6.091   4.092  15.785  0.00  0.00    +0.000 A 
ATOM      7  C   UNL     1       7.037   4.650  16.682  0.00  0.00    +0.000 A 
ATOM      8  C   UNL     1       6.736   4.892  18.039  0.00  0.00    +0.000 A 
ATOM      9  C   UNL     1       3.208   4.132  18.135  0.00  0.00    +0.000 C 
ATOM     10  O   UNL     1       2.197   3.762  17.561  0.00  0.00    +0.000 OA
ENDROOT
BRANCH   1  17
ATOM     11  C   UNL     1       3.516   6.841  16.760  0.00  0.00    +0.000 C 
ATOM     12  C   UNL     1       3.050   7.212  18.139  0.00  0.00    +0.000 A 
ATOM     13  C   UNL     1       2.767   8.567  18.383  0.00  0.00    +0.000 A 
ATOM     14  C   UNL     1       1.997   8.963  19.479  0.00  0.00    +0.000 A 
ATOM     15  C   UNL     1       1.397   8.004  20.292  0.00  0.00    +0.000 A 
ATOM     16  C   UNL     1       1.771   6.672  20.107  0.00  0.00    +0.000 A 
ATOM     17  C   UNL     1       2.709   6.286  19.129  0.00  0.00    +0.000 A 
BRANCH  15  18
ATOM     18  C   UNL     1       0.308   8.397  21.262  0.00  0.00    +0.000 C 
BRANCH  18  19
ATOM     19  C   UNL     1       0.239   9.817  21.757  0.00  0.00    +0.000 C 
ATOM     20  C   UNL     1      -0.523  10.824  21.315  0.00  0.00    +0.000 C 
BRANCH  20  21
ATOM     21  C   UNL     1      -0.417  12.104  21.922  0.00  0.00    +0.000 A 
ATOM     22  N   UNL     1       0.507  13.048  21.774  0.00  0.00    +0.000 NA
ATOM     23  N   UNL     1       0.172  14.112  22.573  0.00  0.00    +0.000 NA
ATOM     24  C   UNL     1      -0.947  13.819  23.183  0.00  0.00    +0.000 A 
ATOM     25  N   UNL     1      -1.360  12.573  22.803  0.00  0.00    +0.000 N 
ATOM     26  C   UNL     1      -2.574  11.931  23.242  0.00  0.00    +0.000 C 
ENDBRANCH  20  21
ENDBRANCH  18  19
ENDBRANCH  15  18
ENDBRANCH   1  17
BRANCH   8  27
ATOM     27  C   UNL     1       7.716   5.643  18.901  0.00  0.00    +0.000 C 
ATOM     28  F   UNL     1       8.869   4.962  19.150  0.00  0.00    +0.000 F 
ATOM     29  F   UNL     1       8.103   6.821  18.343  0.00  0.00    +0.000 F 
ATOM     30  F   UNL     1       7.199   5.951  20.121  0.00  0.00    +0.000 F 
ENDBRANCH   8  27
BRANCH   6  31
ATOM     31  C   UNL     1       6.340   4.151  14.303  0.00  0.00    +0.000 C 
BRANCH  31  32
ATOM     32  N   UNL     1       7.254   5.241  13.997  0.00  0.00    +0.000 NA
ATOM     33  H   UNL     1       7.394   5.294  12.989  0.00  0.00    +0.000 HD
ATOM     34  H   UNL     1       8.172   5.044  14.393  0.00  0.00    +0.000 HD
ENDBRANCH  31  32
ENDBRANCH   6  31
TORSDOF 7
ENDMDL
MODEL 8
REMARK VINA RESULT:      -7.3      0.937      1.578
REMARK  Name = 
REMARK  9 active torsions:
REMARK  status: ('A' for Active; 'I' for Inactive)
REMARK    1  A    between atoms: C_1  and  C_2
REMARK    2  A    between atoms: C_5  and  C_6
REMARK    3  A    between atoms: C_6  and  C_7
REMARK    4  A    between atoms: C_8  and  C_9
REMARK    5  A    between atoms: N_13  and  C_14
REMARK    6  A    between atoms: C_16  and  N_17
REMARK    7  A    between atoms: C_22  and  C_23
REMARK    8  A    between atoms: C_23  and  N_24
REMARK    9  A    between atoms: C_26  and  C_27
REMARK                            x       y       z     vdW  Elec       q    Type
REMARK                         _______ _______ _______ _____ _____    ______ ____
ROOT
ATOM      1  N   UNL     1       4.686   4.492  19.569  0.00  0.00    +0.000 N 
ATOM      2  C   UNL     1       5.955   5.189  19.428  0.00  0.00    +0.000 C 
ATOM      3  C   UNL     1       6.257   5.003  17.976  0.00  0.00    +0.000 A 
ATOM      4  C   UNL     1       5.537   3.901  17.512  0.00  0.00    +0.000 A 
ATOM      5  C   UNL     1       5.390   3.595  16.173  0.00  0.00    +0.000 A 
ATOM      6  C   UNL     1       5.983   4.462  15.253  0.00  0.00    +0.000 A 
ATOM      7  C   UNL     1       6.768   5.548  15.715  0.00  0.00    +0.000 A 
ATOM      8  C   UNL     1       6.921   5.837  17.087  0.00  0.00    +0.000 A 
ATOM      9  C   UNL     1       4.608   3.496  18.573  0.00  0.00    +0.000 C 
ATOM     10  O   UNL     1       3.796   2.594  18.442  0.00  0.00    +0.000 OA
ENDROOT
BRANCH   1  17
ATOM     11  C   UNL     1       2.506   3.822  21.658  0.00  0.00    +0.000 C 
ATOM     12  C   UNL     1       2.403   4.789  20.513  0.00  0.00    +0.000 A 
ATOM     13  C   UNL     1       1.150   5.379  20.276  0.00  0.00    +0.000 A 
ATOM     14  C   UNL     1       1.026   6.535  19.502  0.00  0.00    +0.000 A 
ATOM     15  C   UNL     1       2.164   7.192  19.042  0.00  0.00    +0.000 A 
ATOM     16  C   UNL     1       3.391   6.542  19.190  0.00  0.00    +0.000 A 
ATOM     17  C   UNL     1       3.499   5.273  19.793  0.00  0.00    +0.000 A 
BRANCH  15  18
ATOM     18  C   UNL     1       2.069   8.598  18.500  0.00  0.00    +0.000 C 
BRANCH  18  19
ATOM     19  C   UNL     1       0.870   9.441  18.843  0.00  0.00    +0.000 C 
ATOM     20  C   UNL     1       0.783  10.771  18.953  0.00  0.00    +0.000 C 
BRANCH  20  21
ATOM     21  C   UNL     1      -0.457  11.368  19.307  0.00  0.00    +0.000 A 
ATOM     22  N   UNL     1      -1.437  11.826  18.536  0.00  0.00    +0.000 NA
ATOM     23  N   UNL     1      -2.435  12.310  19.344  0.00  0.00    +0.000 NA
ATOM     24  C   UNL     1      -2.066  12.132  20.586  0.00  0.00    +0.000 A 
ATOM     25  N   UNL     1      -0.836  11.538  20.616  0.00  0.00    +0.000 N 
ATOM     26  C   UNL     1      -0.128  11.154  21.811  0.00  0.00    +0.000 C 
ENDBRANCH  20  21
ENDBRANCH  18  19
ENDBRANCH  15  18
ENDBRANCH   1  17
BRANCH   8  27
ATOM     27  C   UNL     1       7.622   7.100  17.513  0.00  0.00    +0.000 C 
ATOM     28  F   UNL     1       6.777   8.105  17.877  0.00  0.00    +0.000 F 
ATOM     29  F   UNL     1       8.440   6.906  18.581  0.00  0.00    +0.000 F 
ATOM     30  F   UNL     1       8.401   7.615  16.523  0.00  0.00    +0.000 F 
ENDBRANCH   8  27
BRANCH   6  31
ATOM     31  C   UNL     1       5.589   4.385  13.804  0.00  0.00    +0.000 C 
BRANCH  31  32
ATOM     32  N   UNL     1       6.287   3.283  13.159  0.00  0.00    +0.000 NA
ATOM     33  H   UNL     1       6.785   2.739  13.863  0.00  0.00    +0.000 HD
ATOM     34  H   UNL     1       7.004   3.646  12.533  0.00  0.00    +0.000 HD
ENDBRANCH  31  32
ENDBRANCH   6  31
TORSDOF 7
ENDMDL
MODEL 9
REMARK VINA RESULT:      -7.2      0.869      1.210
REMARK  Name = 
REMARK  9 active torsions:
REMARK  status: ('A' for Active; 'I' for Inactive)
REMARK    1  A    between atoms: C_1  and  C_2
REMARK    2  A    between atoms: C_5  and  C_6
REMARK    3  A    between atoms: C_6  and  C_7
REMARK    4  A    between atoms: C_8  and  C_9
REMARK    5  A    between atoms: N_13  and  C_14
REMARK    6  A    between atoms: C_16  and  N_17
REMARK    7  A    between atoms: C_22  and  C_23
REMARK    8  A    between atoms: C_23  and  N_24
REMARK    9  A    between atoms: C_26  and  C_27
REMARK                            x       y       z     vdW  Elec       q    Type
REMARK                         _______ _______ _______ _____ _____    ______ ____
ROOT
ATOM      1  N   UNL     1       4.112   3.185  19.542  0.00  0.00    +0.000 N 
ATOM      2  C   UNL     1       5.493   3.596  19.741  0.00  0.00    +0.000 C 
ATOM      3  C   UNL     1       5.921   3.945  18.352  0.00  0.00    +0.000 A 
ATOM      4  C   UNL     1       5.072   3.299  17.452  0.00  0.00    +0.000 A 
ATOM      5  C   UNL     1       5.027   3.591  16.103  0.00  0.00    +0.000 A 
ATOM      6  C   UNL     1       5.867   4.606  15.643  0.00  0.00    +0.000 A 
ATOM      7  C   UNL     1       6.777   5.226  16.537  0.00  0.00    +0.000 A 
ATOM      8  C   UNL     1       6.821   4.904  17.909  0.00  0.00    +0.000 A 
ATOM      9  C   UNL     1       3.971   2.710  18.222  0.00  0.00    +0.000 C 
ATOM     10  O   UNL     1       3.031   2.129  17.704  0.00  0.00    +0.000 OA
ENDROOT
BRANCH   1  17
ATOM     11  C   UNL     1       1.906   2.313  21.527  0.00  0.00    +0.000 C 
ATOM     12  C   UNL     1       1.927   3.551  20.675  0.00  0.00    +0.000 A 
ATOM     13  C   UNL     1       0.776   4.356  20.677  0.00  0.00    +0.000 A 
ATOM     14  C   UNL     1       0.814   5.679  20.232  0.00  0.00    +0.000 A 
ATOM     15  C   UNL     1       2.029   6.263  19.883  0.00  0.00    +0.000 A 
ATOM     16  C   UNL     1       3.144   5.427  19.782  0.00  0.00    +0.000 A 
ATOM     17  C   UNL     1       3.067   4.043  20.034  0.00  0.00    +0.000 A 
BRANCH  15  18
ATOM     18  C   UNL     1       2.142   7.760  19.724  0.00  0.00    +0.000 C 
BRANCH  18  19
ATOM     19  C   UNL     1       1.373   8.660  20.655  0.00  0.00    +0.000 C 
ATOM     20  C   UNL     1       0.307   9.425  20.392  0.00  0.00    +0.000 C 
BRANCH  20  21
ATOM     21  C   UNL     1      -0.260  10.218  21.425  0.00  0.00    +0.000 A 
ATOM     22  N   UNL     1      -0.337   9.993  22.733  0.00  0.00    +0.000 NA
ATOM     23  N   UNL     1      -0.976  11.057  23.319  0.00  0.00    +0.000 NA
ATOM     24  C   UNL     1      -1.266  11.918  22.379  0.00  0.00    +0.000 A 
ATOM     25  N   UNL     1      -0.831  11.441  21.175  0.00  0.00    +0.000 N 
ATOM     26  C   UNL     1      -0.943  12.137  19.917  0.00  0.00    +0.000 C 
ENDBRANCH  20  21
ENDBRANCH  18  19
ENDBRANCH  15  18
ENDBRANCH   1  17
BRANCH   8  27
ATOM     27  C   UNL     1       7.684   5.714  18.841  0.00  0.00    +0.000 C 
ATOM     28  F   UNL     1       7.045   6.123  19.972  0.00  0.00    +0.000 F 
ATOM     29  F   UNL     1       8.776   5.025  19.268  0.00  0.00    +0.000 F 
ATOM     30  F   UNL     1       8.154   6.847  18.253  0.00  0.00    +0.000 F 
ENDBRANCH   8  27
BRANCH   6  31
ATOM     31  C   UNL     1       5.635   5.199  14.281  0.00  0.00    +0.000 C 
BRANCH  31  32
ATOM     32  N   UNL     1       5.757   4.166  13.264  0.00  0.00    +0.000 NA
ATOM     33  H   UNL     1       6.670   4.237  12.815  0.00  0.00    +0.000 HD
ATOM     34  H   UNL     1       5.073   4.325  12.526  0.00  0.00    +0.000 HD
ENDBRANCH  31  32
ENDBRANCH   6  31
TORSDOF 7
ENDMDL
