MODEL 1
REMARK VINA RESULT:      -8.7      0.000      0.000
REMARK  Name = 
REMARK  8 active torsions:
REMARK  status: ('A' for Active; 'I' for Inactive)
REMARK    1  A    between atoms: C_1  and  C_2
REMARK    2  A    between atoms: C_5  and  N_6
REMARK    3  A    between atoms: C_7  and  C_9
REMARK    4  A    between atoms: C_9  and  N_10
REMARK    5  A    between atoms: N_10  and  C_11
REMARK    6  A    between atoms: C_12  and  C_14
REMARK    7  A    between atoms: N_22  and  C_23
REMARK    8  A    between atoms: C_23  and  C_24
REMARK                            x       y       z     vdW  Elec       q    Type
REMARK                         _______ _______ _______ _____ _____    ______ ____
ROOT
ATOM      1  C   UNL     1       2.455   7.897  18.039  0.00  0.00    +0.000 A 
ATOM      2  C   UNL     1       1.748   6.705  18.340  0.00  0.00    +0.000 A 
ATOM      3  C   UNL     1       2.335   5.436  18.113  0.00  0.00    +0.000 A 
ATOM      4  C   UNL     1       3.635   5.407  17.630  0.00  0.00    +0.000 A 
ATOM      5  C   UNL     1       4.292   6.586  17.351  0.00  0.00    +0.000 A 
ATOM      6  C   UNL     1       3.709   7.819  17.453  0.00  0.00    +0.000 A 
ATOM      7  C   UNL     1       5.637   6.291  16.917  0.00  0.00    +0.000 C 
ATOM      8  O   UNL     1       6.467   7.150  16.696  0.00  0.00    +0.000 OA
ATOM      9  N   UNL     1       5.721   4.937  16.824  0.00  0.00    +0.000 N 
ATOM     10  C   UNL     1       4.551   4.316  17.231  0.00  0.00    +0.000 C 
ATOM     11  O   UNL     1       4.267   3.141  17.226  0.00  0.00    +0.000 OA
ENDROOT
BRANCH   1  14
ATOM     12  N   UNL     1       1.563   9.632  19.602  0.00  0.00    +0.000 N 
ATOM     13  C   UNL     1       1.300   8.667  20.679  0.00  0.00    +0.000 C 
ATOM     14  C   UNL     1       1.879   9.249  18.284  0.00  0.00    +0.000 C 
ATOM     15  O   UNL     1       1.733   9.985  17.313  0.00  0.00    +0.000 OA
BRANCH  12  16
ATOM     16  C   UNL     1       0.955  10.950  19.799  0.00  0.00    +0.000 C 
BRANCH  16  18
ATOM     17  N   UNL     1      -0.755  12.006  21.272  0.00  0.00    +0.000 N 
ATOM     18  C   UNL     1      -0.477  10.999  20.353  0.00  0.00    +0.000 C 
ATOM     19  O   UNL     1      -1.321  10.259  19.845  0.00  0.00    +0.000 OA
ATOM     20  H   UNL     1      -0.040  12.708  21.413  0.00  0.00    +0.000 HD
BRANCH  17  25
ATOM     21  C   UNL     1      -5.866  13.208  23.648  0.00  0.00    +0.000 C 
ATOM     22  C   UNL     1      -4.552  12.840  23.024  0.00  0.00    +0.000 A 
ATOM     23  C   UNL     1      -4.326  13.097  21.673  0.00  0.00    +0.000 A 
ATOM     24  C   UNL     1      -3.091  12.797  21.088  0.00  0.00    +0.000 A 
ATOM     25  C   UNL     1      -2.042  12.249  21.829  0.00  0.00    +0.000 A 
ATOM     26  C   UNL     1      -2.284  11.942  23.177  0.00  0.00    +0.000 A 
ATOM     27  C   UNL     1      -3.525  12.247  23.770  0.00  0.00    +0.000 A 
ENDBRANCH  17  25
ENDBRANCH  16  18
ENDBRANCH  12  16
ENDBRANCH   1  14
BRANCH   9  28
ATOM     28  C   UNL     1       6.860   4.315  16.180  0.00  0.00    +0.000 C 
BRANCH  28  29
ATOM     29  C   UNL     1       6.820   4.353  14.674  0.00  0.00    +0.000 A 
ATOM     30  C   UNL     1       7.709   5.182  13.977  0.00  0.00    +0.000 A 
ATOM     31  C   UNL     1       7.751   5.161  12.584  0.00  0.00    +0.000 A 
ATOM     32  C   UNL     1       6.908   4.313  11.869  0.00  0.00    +0.000 A 
ATOM     33  C   UNL     1       6.007   3.495  12.547  0.00  0.00    +0.000 A 
ATOM     34  C   UNL     1       5.960   3.518  13.943  0.00  0.00    +0.000 A 
ENDBRANCH  28  29
ENDBRANCH   9  28
TORSDOF 6
ENDMDL
MODEL 2
REMARK VINA RESULT:      -8.6      1.613      2.161
REMARK  Name = 
REMARK  8 active torsions:
REMARK  status: ('A' for Active; 'I' for Inactive)
REMARK    1  A    between atoms: C_1  and  C_2
REMARK    2  A    between atoms: C_5  and  N_6
REMARK    3  A    between atoms: C_7  and  C_9
REMARK    4  A    between atoms: C_9  and  N_10
REMARK    5  A    between atoms: N_10  and  C_11
REMARK    6  A    between atoms: C_12  and  C_14
REMARK    7  A    between atoms: N_22  and  C_23
REMARK    8  A    between atoms: C_23  and  C_24
REMARK                            x       y       z     vdW  Elec       q    Type
REMARK                         _______ _______ _______ _____ _____    ______ ____
ROOT
ATOM      1  C   UNL     1       2.484   7.713  18.159  0.00  0.00    +0.000 A 
ATOM      2  C   UNL     1       1.956   6.476  18.608  0.00  0.00    +0.000 A 
ATOM      3  C   UNL     1       2.675   5.269  18.423  0.00  0.00    +0.000 A 
ATOM      4  C   UNL     1       3.927   5.353  17.831  0.00  0.00    +0.000 A 
ATOM      5  C   UNL     1       4.408   6.573  17.409  0.00  0.00    +0.000 A 
ATOM      6  C   UNL     1       3.687   7.734  17.472  0.00  0.00    +0.000 A 
ATOM      7  C   UNL     1       5.741   6.403  16.880  0.00  0.00    +0.000 C 
ATOM      8  O   UNL     1       6.439   7.332  16.525  0.00  0.00    +0.000 OA
ATOM      9  N   UNL     1       5.985   5.065  16.880  0.00  0.00    +0.000 N 
ATOM     10  C   UNL     1       4.936   4.348  17.433  0.00  0.00    +0.000 C 
ATOM     11  O   UNL     1       4.801   3.151  17.539  0.00  0.00    +0.000 OA
ENDROOT
BRANCH   1  14
ATOM     12  N   UNL     1       1.398   9.394  19.656  0.00  0.00    +0.000 N 
ATOM     13  C   UNL     1       1.227   8.443  20.764  0.00  0.00    +0.000 C 
ATOM     14  C   UNL     1       1.766   9.004  18.354  0.00  0.00    +0.000 C 
ATOM     15  O   UNL     1       1.551   9.687  17.358  0.00  0.00    +0.000 OA
BRANCH  12  16
ATOM     16  C   UNL     1       0.652  10.647  19.804  0.00  0.00    +0.000 C 
BRANCH  16  18
ATOM     17  N   UNL     1      -1.489  11.834  19.340  0.00  0.00    +0.000 N 
ATOM     18  C   UNL     1      -0.862  10.610  19.543  0.00  0.00    +0.000 C 
ATOM     19  O   UNL     1      -1.394   9.511  19.375  0.00  0.00    +0.000 OA
ATOM     20  H   UNL     1      -0.891  12.646  19.249  0.00  0.00    +0.000 HD
BRANCH  17  25
ATOM     21  C   UNL     1      -7.094  12.178  18.046  0.00  0.00    +0.000 C 
ATOM     22  C   UNL     1      -5.626  12.137  18.352  0.00  0.00    +0.000 A 
ATOM     23  C   UNL     1      -5.153  12.623  19.570  0.00  0.00    +0.000 A 
ATOM     24  C   UNL     1      -3.793  12.552  19.884  0.00  0.00    +0.000 A 
ATOM     25  C   UNL     1      -2.865  11.984  19.009  0.00  0.00    +0.000 A 
ATOM     26  C   UNL     1      -3.331  11.540  17.761  0.00  0.00    +0.000 A 
ATOM     27  C   UNL     1      -4.701  11.606  17.443  0.00  0.00    +0.000 A 
ENDBRANCH  17  25
ENDBRANCH  16  18
ENDBRANCH  12  16
ENDBRANCH   1  14
BRANCH   9  28
ATOM     28  C   UNL     1       7.138   4.530  16.184  0.00  0.00    +0.000 C 
BRANCH  28  29
ATOM     29  C   UNL     1       6.998   4.493  14.684  0.00  0.00    +0.000 A 
ATOM     30  C   UNL     1       7.832   5.290  13.891  0.00  0.00    +0.000 A 
ATOM     31  C   UNL     1       7.781   5.200  12.500  0.00  0.00    +0.000 A 
ATOM     32  C   UNL     1       6.900   4.314  11.886  0.00  0.00    +0.000 A 
ATOM     33  C   UNL     1       6.051   3.527  12.661  0.00  0.00    +0.000 A 
ATOM     34  C   UNL     1       6.097   3.619  14.055  0.00  0.00    +0.000 A 
ENDBRANCH  28  29
ENDBRANCH   9  28
TORSDOF 6
ENDMDL
MODEL 3
REMARK VINA RESULT:      -8.5      2.319      3.737
REMARK  Name = 
REMARK  8 active torsions:
REMARK  status: ('A' for Active; 'I' for Inactive)
REMARK    1  A    between atoms: C_1  and  C_2
REMARK    2  A    between atoms: C_5  and  N_6
REMARK    3  A    between atoms: C_7  and  C_9
REMARK    4  A    between atoms: C_9  and  N_10
REMARK    5  A    between atoms: N_10  and  C_11
REMARK    6  A    between atoms: C_12  and  C_14
REMARK    7  A    between atoms: N_22  and  C_23
REMARK    8  A    between atoms: C_23  and  C_24
REMARK                            x       y       z     vdW  Elec       q    Type
REMARK                         _______ _______ _______ _____ _____    ______ ____
ROOT
ATOM      1  C   UNL     1       0.830   9.973  20.341  0.00  0.00    +0.000 A 
ATOM      2  C   UNL     1       0.639   9.107  21.448  0.00  0.00    +0.000 A 
ATOM      3  C   UNL     1       1.081   7.762  21.402  0.00  0.00    +0.000 A 
ATOM      4  C   UNL     1       1.744   7.343  20.257  0.00  0.00    +0.000 A 
ATOM      5  C   UNL     1       1.913   8.213  19.203  0.00  0.00    +0.000 A 
ATOM      6  C   UNL     1       1.397   9.479  19.177  0.00  0.00    +0.000 A 
ATOM      7  C   UNL     1       2.672   7.560  18.163  0.00  0.00    +0.000 C 
ATOM      8  O   UNL     1       3.048   8.129  17.157  0.00  0.00    +0.000 OA
ATOM      9  N   UNL     1       2.836   6.271  18.561  0.00  0.00    +0.000 N 
ATOM     10  C   UNL     1       2.299   6.044  19.818  0.00  0.00    +0.000 C 
ATOM     11  O   UNL     1       2.224   5.012  20.443  0.00  0.00    +0.000 OA
ENDROOT
BRANCH   1  14
ATOM     12  N   UNL     1      -0.774  11.769  19.673  0.00  0.00    +0.000 N 
ATOM     13  C   UNL     1      -1.335  10.990  18.559  0.00  0.00    +0.000 C 
ATOM     14  C   UNL     1       0.398  11.399  20.360  0.00  0.00    +0.000 C 
ATOM     15  O   UNL     1       1.079  12.187  21.008  0.00  0.00    +0.000 OA
BRANCH  12  16
ATOM     16  C   UNL     1      -1.143  13.187  19.674  0.00  0.00    +0.000 C 
BRANCH  16  18
ATOM     17  N   UNL     1      -3.198  12.578  20.946  0.00  0.00    +0.000 N 
ATOM     18  C   UNL     1      -2.372  13.603  20.496  0.00  0.00    +0.000 C 
ATOM     19  O   UNL     1      -2.468  14.783  20.838  0.00  0.00    +0.000 OA
ATOM     20  H   UNL     1      -2.866  11.631  20.812  0.00  0.00    +0.000 HD
BRANCH  17  25
ATOM     21  C   UNL     1      -7.717  13.617  24.367  0.00  0.00    +0.000 C 
ATOM     22  C   UNL     1      -6.545  13.291  23.488  0.00  0.00    +0.000 A 
ATOM     23  C   UNL     1      -6.718  13.169  22.111  0.00  0.00    +0.000 A 
ATOM     24  C   UNL     1      -5.627  12.906  21.277  0.00  0.00    +0.000 A 
ATOM     25  C   UNL     1      -4.332  12.771  21.782  0.00  0.00    +0.000 A 
ATOM     26  C   UNL     1      -4.163  12.842  23.175  0.00  0.00    +0.000 A 
ATOM     27  C   UNL     1      -5.259  13.112  24.016  0.00  0.00    +0.000 A 
ENDBRANCH  17  25
ENDBRANCH  16  18
ENDBRANCH  12  16
ENDBRANCH   1  14
BRANCH   9  28
ATOM     28  C   UNL     1       3.343   5.276  17.637  0.00  0.00    +0.000 C 
BRANCH  28  29
ATOM     29  C   UNL     1       4.833   5.058  17.713  0.00  0.00    +0.000 A 
ATOM     30  C   UNL     1       5.524   4.594  16.587  0.00  0.00    +0.000 A 
ATOM     31  C   UNL     1       6.913   4.475  16.609  0.00  0.00    +0.000 A 
ATOM     32  C   UNL     1       7.629   4.820  17.754  0.00  0.00    +0.000 A 
ATOM     33  C   UNL     1       6.954   5.267  18.888  0.00  0.00    +0.000 A 
ATOM     34  C   UNL     1       5.561   5.382  18.869  0.00  0.00    +0.000 A 
ENDBRANCH  28  29
ENDBRANCH   9  28
TORSDOF 6
ENDMDL
MODEL 4
REMARK VINA RESULT:      -8.4      2.849      4.235
REMARK  Name = 
REMARK  8 active torsions:
REMARK  status: ('A' for Active; 'I' for Inactive)
REMARK    1  A    between atoms: C_1  and  C_2
REMARK    2  A    between atoms: C_5  and  N_6
REMARK    3  A    between atoms: C_7  and  C_9
REMARK    4  A    between atoms: C_9  and  N_10
REMARK    5  A    between atoms: N_10  and  C_11
REMARK    6  A    between atoms: C_12  and  C_14
REMARK    7  A    between atoms: N_22  and  C_23
REMARK    8  A    between atoms: C_23  and  C_24
REMARK                            x       y       z     vdW  Elec       q    Type
REMARK                         _______ _______ _______ _____ _____    ______ ____
ROOT
ATOM      1  C   UNL     1       0.029  10.381  19.749  0.00  0.00    +0.000 A 
ATOM      2  C   UNL     1      -0.061   9.643  20.957  0.00  0.00    +0.000 A 
ATOM      3  C   UNL     1       0.645   8.425  21.119  0.00  0.00    +0.000 A 
ATOM      4  C   UNL     1       1.458   8.011  20.072  0.00  0.00    +0.000 A 
ATOM      5  C   UNL     1       1.522   8.755  18.915  0.00  0.00    +0.000 A 
ATOM      6  C   UNL     1       0.764   9.872  18.690  0.00  0.00    +0.000 A 
ATOM      7  C   UNL     1       2.468   8.148  18.009  0.00  0.00    +0.000 C 
ATOM      8  O   UNL     1       2.791   8.649  16.950  0.00  0.00    +0.000 OA
ATOM      9  N   UNL     1       2.859   6.983  18.591  0.00  0.00    +0.000 N 
ATOM     10  C   UNL     1       2.292   6.812  19.843  0.00  0.00    +0.000 C 
ATOM     11  O   UNL     1       2.383   5.875  20.602  0.00  0.00    +0.000 OA
ENDROOT
BRANCH   1  14
ATOM     12  N   UNL     1      -0.013  12.878  19.848  0.00  0.00    +0.000 N 
ATOM     13  C   UNL     1       1.125  12.959  20.775  0.00  0.00    +0.000 C 
ATOM     14  C   UNL     1      -0.682  11.675  19.551  0.00  0.00    +0.000 C 
ATOM     15  O   UNL     1      -1.824  11.629  19.104  0.00  0.00    +0.000 OA
BRANCH  12  16
ATOM     16  C   UNL     1      -0.760  14.128  19.685  0.00  0.00    +0.000 C 
BRANCH  16  18
ATOM     17  N   UNL     1      -3.094  13.926  20.536  0.00  0.00    +0.000 N 
ATOM     18  C   UNL     1      -1.827  14.463  20.739  0.00  0.00    +0.000 C 
ATOM     19  O   UNL     1      -1.466  15.046  21.764  0.00  0.00    +0.000 OA
ATOM     20  H   UNL     1      -3.191  13.252  19.787  0.00  0.00    +0.000 HD
BRANCH  17  25
ATOM     21  C   UNL     1      -7.654  14.417  24.026  0.00  0.00    +0.000 C 
ATOM     22  C   UNL     1      -6.438  14.325  23.151  0.00  0.00    +0.000 A 
ATOM     23  C   UNL     1      -5.560  13.251  23.286  0.00  0.00    +0.000 A 
ATOM     24  C   UNL     1      -4.446  13.133  22.450  0.00  0.00    +0.000 A 
ATOM     25  C   UNL     1      -4.178  14.067  21.446  0.00  0.00    +0.000 A 
ATOM     26  C   UNL     1      -5.032  15.177  21.342  0.00  0.00    +0.000 A 
ATOM     27  C   UNL     1      -6.157  15.296  22.180  0.00  0.00    +0.000 A 
ENDBRANCH  17  25
ENDBRANCH  16  18
ENDBRANCH  12  16
ENDBRANCH   1  14
BRANCH   9  28
ATOM     28  C   UNL     1       3.620   6.006  17.836  0.00  0.00    +0.000 C 
BRANCH  28  29
ATOM     29  C   UNL     1       5.110   6.075  18.054  0.00  0.00    +0.000 A 
ATOM     30  C   UNL     1       5.893   6.896  17.235  0.00  0.00    +0.000 A 
ATOM     31  C   UNL     1       7.258   7.044  17.480  0.00  0.00    +0.000 A 
ATOM     32  C   UNL     1       7.856   6.377  18.547  0.00  0.00    +0.000 A 
ATOM     33  C   UNL     1       7.093   5.542  19.361  0.00  0.00    +0.000 A 
ATOM     34  C   UNL     1       5.726   5.389  19.114  0.00  0.00    +0.000 A 
ENDBRANCH  28  29
ENDBRANCH   9  28
TORSDOF 6
ENDMDL
MODEL 5
REMARK VINA RESULT:      -8.4      2.756      3.838
REMARK  Name = 
REMARK  8 active torsions:
REMARK  status: ('A' for Active; 'I' for Inactive)
REMARK    1  A    between atoms: C_1  and  C_2
REMARK    2  A    between atoms: C_5  and  N_6
REMARK    3  A    between atoms: C_7  and  C_9
REMARK    4  A    between atoms: C_9  and  N_10
REMARK    5  A    between atoms: N_10  and  C_11
REMARK    6  A    between atoms: C_12  and  C_14
REMARK    7  A    between atoms: N_22  and  C_23
REMARK    8  A    between atoms: C_23  and  C_24
REMARK                            x       y       z     vdW  Elec       q    Type
REMARK                         _______ _______ _______ _____ _____    ______ ____
ROOT
ATOM      1  C   UNL     1       2.323   7.629  18.111  0.00  0.00    +0.000 A 
ATOM      2  C   UNL     1       1.810   6.364  18.494  0.00  0.00    +0.000 A 
ATOM      3  C   UNL     1       2.563   5.181  18.288  0.00  0.00    +0.000 A 
ATOM      4  C   UNL     1       3.832   5.316  17.744  0.00  0.00    +0.000 A 
ATOM      5  C   UNL     1       4.299   6.562  17.386  0.00  0.00    +0.000 A 
ATOM      6  C   UNL     1       3.549   7.703  17.468  0.00  0.00    +0.000 A 
ATOM      7  C   UNL     1       5.652   6.443  16.898  0.00  0.00    +0.000 C 
ATOM      8  O   UNL     1       6.340   7.400  16.604  0.00  0.00    +0.000 OA
ATOM      9  N   UNL     1       5.927   5.112  16.855  0.00  0.00    +0.000 N 
ATOM     10  C   UNL     1       4.878   4.350  17.343  0.00  0.00    +0.000 C 
ATOM     11  O   UNL     1       4.767   3.147  17.398  0.00  0.00    +0.000 OA
ENDROOT
BRANCH   1  14
ATOM     12  N   UNL     1       1.256   9.288  19.647  0.00  0.00    +0.000 N 
ATOM     13  C   UNL     1       1.179   8.345  20.772  0.00  0.00    +0.000 C 
ATOM     14  C   UNL     1       1.569   8.895  18.331  0.00  0.00    +0.000 C 
ATOM     15  O   UNL     1       1.277   9.558  17.340  0.00  0.00    +0.000 OA
BRANCH  12  16
ATOM     16  C   UNL     1       0.473  10.514  19.821  0.00  0.00    +0.000 C 
BRANCH  16  18
ATOM     17  N   UNL     1       1.520  12.717  19.309  0.00  0.00    +0.000 N 
ATOM     18  C   UNL     1       1.217  11.774  20.287  0.00  0.00    +0.000 C 
ATOM     19  O   UNL     1       1.359  11.949  21.499  0.00  0.00    +0.000 OA
ATOM     20  H   UNL     1       1.119  12.569  18.391  0.00  0.00    +0.000 HD
BRANCH  17  25
ATOM     21  C   UNL     1       3.859  17.824  20.595  0.00  0.00    +0.000 C 
ATOM     22  C   UNL     1       3.264  16.503  20.205  0.00  0.00    +0.000 A 
ATOM     23  C   UNL     1       3.995  15.329  20.380  0.00  0.00    +0.000 A 
ATOM     24  C   UNL     1       3.437  14.088  20.059  0.00  0.00    +0.000 A 
ATOM     25  C   UNL     1       2.134  13.973  19.571  0.00  0.00    +0.000 A 
ATOM     26  C   UNL     1       1.413  15.158  19.346  0.00  0.00    +0.000 A 
ATOM     27  C   UNL     1       1.972  16.408  19.672  0.00  0.00    +0.000 A 
ENDBRANCH  17  25
ENDBRANCH  16  18
ENDBRANCH  12  16
ENDBRANCH   1  14
BRANCH   9  28
ATOM     28  C   UNL     1       7.116   4.630  16.180  0.00  0.00    +0.000 C 
BRANCH  28  29
ATOM     29  C   UNL     1       6.989   4.546  14.681  0.00  0.00    +0.000 A 
ATOM     30  C   UNL     1       7.812   5.337  13.871  0.00  0.00    +0.000 A 
ATOM     31  C   UNL     1       7.775   5.206  12.483  0.00  0.00    +0.000 A 
ATOM     32  C   UNL     1       6.918   4.283  11.888  0.00  0.00    +0.000 A 
ATOM     33  C   UNL     1       6.081   3.501  12.680  0.00  0.00    +0.000 A 
ATOM     34  C   UNL     1       6.113   3.634  14.071  0.00  0.00    +0.000 A 
ENDBRANCH  28  29
ENDBRANCH   9  28
TORSDOF 6
ENDMDL
MODEL 6
REMARK VINA RESULT:      -8.4      1.839      2.342
REMARK  Name = 
REMARK  8 active torsions:
REMARK  status: ('A' for Active; 'I' for Inactive)
REMARK    1  A    between atoms: C_1  and  C_2
REMARK    2  A    between atoms: C_5  and  N_6
REMARK    3  A    between atoms: C_7  and  C_9
REMARK    4  A    between atoms: C_9  and  N_10
REMARK    5  A    between atoms: N_10  and  C_11
REMARK    6  A    between atoms: C_12  and  C_14
REMARK    7  A    between atoms: N_22  and  C_23
REMARK    8  A    between atoms: C_23  and  C_24
REMARK                            x       y       z     vdW  Elec       q    Type
REMARK                         _______ _______ _______ _____ _____    ______ ____
ROOT
ATOM      1  C   UNL     1       2.471   8.024  18.055  0.00  0.00    +0.000 A 
ATOM      2  C   UNL     1       1.680   6.865  18.256  0.00  0.00    +0.000 A 
ATOM      3  C   UNL     1       2.199   5.574  17.987  0.00  0.00    +0.000 A 
ATOM      4  C   UNL     1       3.519   5.489  17.566  0.00  0.00    +0.000 A 
ATOM      5  C   UNL     1       4.258   6.637  17.383  0.00  0.00    +0.000 A 
ATOM      6  C   UNL     1       3.746   7.898  17.525  0.00  0.00    +0.000 A 
ATOM      7  C   UNL     1       5.603   6.282  16.997  0.00  0.00    +0.000 C 
ATOM      8  O   UNL     1       6.494   7.098  16.864  0.00  0.00    +0.000 OA
ATOM      9  N   UNL     1       5.610   4.932  16.835  0.00  0.00    +0.000 N 
ATOM     10  C   UNL     1       4.386   4.365  17.151  0.00  0.00    +0.000 C 
ATOM     11  O   UNL     1       4.033   3.212  17.068  0.00  0.00    +0.000 OA
ENDROOT
BRANCH   1  14
ATOM     12  N   UNL     1       1.534   9.704  19.650  0.00  0.00    +0.000 N 
ATOM     13  C   UNL     1       1.089   8.687  20.614  0.00  0.00    +0.000 C 
ATOM     14  C   UNL     1       1.966   9.395  18.346  0.00  0.00    +0.000 C 
ATOM     15  O   UNL     1       1.977  10.208  17.427  0.00  0.00    +0.000 OA
BRANCH  12  16
ATOM     16  C   UNL     1       1.000  11.048  19.888  0.00  0.00    +0.000 C 
BRANCH  16  18
ATOM     17  N   UNL     1      -1.445  10.830  19.454  0.00  0.00    +0.000 N 
ATOM     18  C   UNL     1      -0.256  11.463  19.107  0.00  0.00    +0.000 C 
ATOM     19  O   UNL     1      -0.171  12.427  18.343  0.00  0.00    +0.000 OA
ATOM     20  H   UNL     1      -1.425  10.239  20.277  0.00  0.00    +0.000 HD
BRANCH  17  25
ATOM     21  C   UNL     1      -6.479  12.330  17.087  0.00  0.00    +0.000 C 
ATOM     22  C   UNL     1      -5.197  11.905  17.740  0.00  0.00    +0.000 A 
ATOM     23  C   UNL     1      -4.410  10.916  17.153  0.00  0.00    +0.000 A 
ATOM     24  C   UNL     1      -3.193  10.540  17.729  0.00  0.00    +0.000 A 
ATOM     25  C   UNL     1      -2.714  11.144  18.893  0.00  0.00    +0.000 A 
ATOM     26  C   UNL     1      -3.529  12.104  19.514  0.00  0.00    +0.000 A 
ATOM     27  C   UNL     1      -4.753  12.488  18.934  0.00  0.00    +0.000 A 
ENDBRANCH  17  25
ENDBRANCH  16  18
ENDBRANCH  12  16
ENDBRANCH   1  14
BRANCH   9  28
ATOM     28  C   UNL     1       6.741   4.274  16.211  0.00  0.00    +0.000 C 
BRANCH  28  29
ATOM     29  C   UNL     1       6.744   4.336  14.706  0.00  0.00    +0.000 A 
ATOM     30  C   UNL     1       7.641   5.186  14.048  0.00  0.00    +0.000 A 
ATOM     31  C   UNL     1       7.724   5.188  12.656  0.00  0.00    +0.000 A 
ATOM     32  C   UNL     1       6.914   4.340  11.904  0.00  0.00    +0.000 A 
ATOM     33  C   UNL     1       6.004   3.500  12.543  0.00  0.00    +0.000 A 
ATOM     34  C   UNL     1       5.917   3.500  13.938  0.00  0.00    +0.000 A 
ENDBRANCH  28  29
ENDBRANCH   9  28
TORSDOF 6
ENDMDL
MODEL 7
REMARK VINA RESULT:      -8.4      2.368      3.812
REMARK  Name = 
REMARK  8 active torsions:
REMARK  status: ('A' for Active; 'I' for Inactive)
REMARK    1  A    between atoms: C_1  and  C_2
REMARK    2  A    between atoms: C_5  and  N_6
REMARK    3  A    between atoms: C_7  and  C_9
REMARK    4  A    between atoms: C_9  and  N_10
REMARK    5  A    between atoms: N_10  and  C_11
REMARK    6  A    between atoms: C_12  and  C_14
REMARK    7  A    between atoms: N_22  and  C_23
REMARK    8  A    between atoms: C_23  and  C_24
REMARK                            x       y       z     vdW  Elec       q    Type
REMARK                         _______ _______ _______ _____ _____    ______ ____
ROOT
ATOM      1  C   UNL     1       0.782   9.865  20.147  0.00  0.00    +0.000 A 
ATOM      2  C   UNL     1       0.565   9.073  21.302  0.00  0.00    +0.000 A 
ATOM      3  C   UNL     1       1.041   7.740  21.369  0.00  0.00    +0.000 A 
ATOM      4  C   UNL     1       1.762   7.262  20.285  0.00  0.00    +0.000 A 
ATOM      5  C   UNL     1       1.956   8.062  19.180  0.00  0.00    +0.000 A 
ATOM      6  C   UNL     1       1.410   9.309  19.044  0.00  0.00    +0.000 A 
ATOM      7  C   UNL     1       2.774   7.360  18.220  0.00  0.00    +0.000 C 
ATOM      8  O   UNL     1       3.179   7.868  17.193  0.00  0.00    +0.000 OA
ATOM      9  N   UNL     1       2.952   6.106  18.714  0.00  0.00    +0.000 N 
ATOM     10  C   UNL     1       2.367   5.952  19.960  0.00  0.00    +0.000 C 
ATOM     11  O   UNL     1       2.290   4.962  20.652  0.00  0.00    +0.000 OA
ENDROOT
BRANCH   1  14
ATOM     12  N   UNL     1      -0.957  11.542  19.503  0.00  0.00    +0.000 N 
ATOM     13  C   UNL     1      -1.651  10.619  18.595  0.00  0.00    +0.000 C 
ATOM     14  C   UNL     1       0.315  11.277  20.049  0.00  0.00    +0.000 C 
ATOM     15  O   UNL     1       1.060  12.151  20.481  0.00  0.00    +0.000 OA
BRANCH  12  16
ATOM     16  C   UNL     1      -1.363  12.944  19.379  0.00  0.00    +0.000 C 
BRANCH  16  18
ATOM     17  N   UNL     1      -3.582  12.886  20.512  0.00  0.00    +0.000 N 
ATOM     18  C   UNL     1      -2.336  13.500  20.430  0.00  0.00    +0.000 C 
ATOM     19  O   UNL     1      -1.910  14.335  21.230  0.00  0.00    +0.000 OA
ATOM     20  H   UNL     1      -3.713  12.041  19.970  0.00  0.00    +0.000 HD
BRANCH  17  25
ATOM     21  C   UNL     1      -7.761  14.028  24.312  0.00  0.00    +0.000 C 
ATOM     22  C   UNL     1      -6.653  13.784  23.330  0.00  0.00    +0.000 A 
ATOM     23  C   UNL     1      -5.499  13.113  23.732  0.00  0.00    +0.000 A 
ATOM     24  C   UNL     1      -4.478  12.843  22.817  0.00  0.00    +0.000 A 
ATOM     25  C   UNL     1      -4.575  13.216  21.475  0.00  0.00    +0.000 A 
ATOM     26  C   UNL     1      -5.713  13.937  21.079  0.00  0.00    +0.000 A 
ATOM     27  C   UNL     1      -6.746  14.207  21.997  0.00  0.00    +0.000 A 
ENDBRANCH  17  25
ENDBRANCH  16  18
ENDBRANCH  12  16
ENDBRANCH   1  14
BRANCH   9  28
ATOM     28  C   UNL     1       3.523   5.064  17.883  0.00  0.00    +0.000 C 
BRANCH  28  29
ATOM     29  C   UNL     1       5.029   5.043  17.858  0.00  0.00    +0.000 A 
ATOM     30  C   UNL     1       5.746   5.383  19.011  0.00  0.00    +0.000 A 
ATOM     31  C   UNL     1       7.137   5.280  19.036  0.00  0.00    +0.000 A 
ATOM     32  C   UNL     1       7.827   4.834  17.912  0.00  0.00    +0.000 A 
ATOM     33  C   UNL     1       7.129   4.508  16.751  0.00  0.00    +0.000 A 
ATOM     34  C   UNL     1       5.736   4.616  16.722  0.00  0.00    +0.000 A 
ENDBRANCH  28  29
ENDBRANCH   9  28
TORSDOF 6
ENDMDL
MODEL 8
REMARK VINA RESULT:      -8.2      2.655      3.623
REMARK  Name = 
REMARK  8 active torsions:
REMARK  status: ('A' for Active; 'I' for Inactive)
REMARK    1  A    between atoms: C_1  and  C_2
REMARK    2  A    between atoms: C_5  and  N_6
REMARK    3  A    between atoms: C_7  and  C_9
REMARK    4  A    between atoms: C_9  and  N_10
REMARK    5  A    between atoms: N_10  and  C_11
REMARK    6  A    between atoms: C_12  and  C_14
REMARK    7  A    between atoms: N_22  and  C_23
REMARK    8  A    between atoms: C_23  and  C_24
REMARK                            x       y       z     vdW  Elec       q    Type
REMARK                         _______ _______ _______ _____ _____    ______ ____
ROOT
ATOM      1  C   UNL     1       2.440   7.526  18.803  0.00  0.00    +0.000 A 
ATOM      2  C   UNL     1       2.351   6.439  19.708  0.00  0.00    +0.000 A 
ATOM      3  C   UNL     1       3.319   5.404  19.698  0.00  0.00    +0.000 A 
ATOM      4  C   UNL     1       4.375   5.523  18.806  0.00  0.00    +0.000 A 
ATOM      5  C   UNL     1       4.430   6.595  17.943  0.00  0.00    +0.000 A 
ATOM      6  C   UNL     1       3.450   7.545  17.853  0.00  0.00    +0.000 A 
ATOM      7  C   UNL     1       5.641   6.516  17.161  0.00  0.00    +0.000 C 
ATOM      8  O   UNL     1       5.990   7.386  16.387  0.00  0.00    +0.000 OA
ATOM      9  N   UNL     1       6.227   5.332  17.482  0.00  0.00    +0.000 N 
ATOM     10  C   UNL     1       5.526   4.657  18.467  0.00  0.00    +0.000 C 
ATOM     11  O   UNL     1       5.736   3.566  18.944  0.00  0.00    +0.000 OA
ENDROOT
BRANCH   1  14
ATOM     12  N   UNL     1       1.033   9.193  20.023  0.00  0.00    +0.000 N 
ATOM     13  C   UNL     1       1.106   8.467  21.299  0.00  0.00    +0.000 C 
ATOM     14  C   UNL     1       1.453   8.642  18.797  0.00  0.00    +0.000 C 
ATOM     15  O   UNL     1       1.069   9.051  17.706  0.00  0.00    +0.000 OA
BRANCH  12  16
ATOM     16  C   UNL     1       0.026  10.257  19.981  0.00  0.00    +0.000 C 
BRANCH  16  18
ATOM     17  N   UNL     1       0.280  12.504  18.933  0.00  0.00    +0.000 N 
ATOM     18  C   UNL     1       0.520  11.710  20.049  0.00  0.00    +0.000 C 
ATOM     19  O   UNL     1       0.951  12.125  21.126  0.00  0.00    +0.000 OA
ATOM     20  H   UNL     1      -0.313  12.111  18.211  0.00  0.00    +0.000 HD
BRANCH  17  25
ATOM     21  C   UNL     1       1.565  18.089  18.332  0.00  0.00    +0.000 C 
ATOM     22  C   UNL     1       1.252  16.636  18.542  0.00  0.00    +0.000 A 
ATOM     23  C   UNL     1      -0.038  16.245  18.894  0.00  0.00    +0.000 A 
ATOM     24  C   UNL     1      -0.353  14.892  19.052  0.00  0.00    +0.000 A 
ATOM     25  C   UNL     1       0.597  13.888  18.851  0.00  0.00    +0.000 A 
ATOM     26  C   UNL     1       1.910  14.283  18.546  0.00  0.00    +0.000 A 
ATOM     27  C   UNL     1       2.229  15.644  18.382  0.00  0.00    +0.000 A 
ENDBRANCH  17  25
ENDBRANCH  16  18
ENDBRANCH  12  16
ENDBRANCH   1  14
BRANCH   9  28
ATOM     28  C   UNL     1       7.336   4.826  16.697  0.00  0.00    +0.000 C 
BRANCH  28  29
ATOM     29  C   UNL     1       6.994   4.526  15.260  0.00  0.00    +0.000 A 
ATOM     30  C   UNL     1       5.896   3.710  14.964  0.00  0.00    +0.000 A 
ATOM     31  C   UNL     1       5.509   3.497  13.642  0.00  0.00    +0.000 A 
ATOM     32  C   UNL     1       6.212   4.097  12.599  0.00  0.00    +0.000 A 
ATOM     33  C   UNL     1       7.317   4.898  12.877  0.00  0.00    +0.000 A 
ATOM     34  C   UNL     1       7.710   5.109  14.201  0.00  0.00    +0.000 A 
ENDBRANCH  28  29
ENDBRANCH   9  28
TORSDOF 6
ENDMDL
MODEL 9
REMARK VINA RESULT:      -8.2      2.486      3.636
REMARK  Name = 
REMARK  8 active torsions:
REMARK  status: ('A' for Active; 'I' for Inactive)
REMARK    1  A    between atoms: C_1  and  C_2
REMARK    2  A    between atoms: C_5  and  N_6
REMARK    3  A    between atoms: C_7  and  C_9
REMARK    4  A    between atoms: C_9  and  N_10
REMARK    5  A    between atoms: N_10  and  C_11
REMARK    6  A    between atoms: C_12  and  C_14
REMARK    7  A    between atoms: N_22  and  C_23
REMARK    8  A    between atoms: C_23  and  C_24
REMARK                            x       y       z     vdW  Elec       q    Type
REMARK                         _______ _______ _______ _____ _____    ______ ____
ROOT
ATOM      1  C   UNL     1       1.179   9.719  19.582  0.00  0.00    +0.000 A 
ATOM      2  C   UNL     1       0.862   9.146  20.840  0.00  0.00    +0.000 A 
ATOM      3  C   UNL     1       1.204   7.803  21.134  0.00  0.00    +0.000 A 
ATOM      4  C   UNL     1       1.897   7.091  20.165  0.00  0.00    +0.000 A 
ATOM      5  C   UNL     1       2.190   7.681  18.955  0.00  0.00    +0.000 A 
ATOM      6  C   UNL     1       1.772   8.935  18.604  0.00  0.00    +0.000 A 
ATOM      7  C   UNL     1       2.955   6.760  18.148  0.00  0.00    +0.000 C 
ATOM      8  O   UNL     1       3.428   7.057  17.069  0.00  0.00    +0.000 OA
ATOM      9  N   UNL     1       3.000   5.591  18.840  0.00  0.00    +0.000 N 
ATOM     10  C   UNL     1       2.378   5.695  20.074  0.00  0.00    +0.000 C 
ATOM     11  O   UNL     1       2.190   4.842  20.910  0.00  0.00    +0.000 OA
ENDROOT
BRANCH   1  14
ATOM     12  N   UNL     1      -0.472  11.471  18.911  0.00  0.00    +0.000 N 
ATOM     13  C   UNL     1      -1.447  10.497  18.401  0.00  0.00    +0.000 C 
ATOM     14  C   UNL     1       0.854  11.133  19.245  0.00  0.00    +0.000 C 
ATOM     15  O   UNL     1       1.766  11.952  19.304  0.00  0.00    +0.000 OA
BRANCH  12  16
ATOM     16  C   UNL     1      -0.744  12.862  18.539  0.00  0.00    +0.000 C 
BRANCH  16  18
ATOM     17  N   UNL     1      -1.694  13.419  20.775  0.00  0.00    +0.000 N 
ATOM     18  C   UNL     1      -0.972  13.871  19.675  0.00  0.00    +0.000 C 
ATOM     19  O   UNL     1      -0.381  14.951  19.618  0.00  0.00    +0.000 OA
ATOM     20  H   UNL     1      -1.904  12.429  20.809  0.00  0.00    +0.000 HD
BRANCH  17  25
ATOM     21  C   UNL     1      -2.452  16.693  25.457  0.00  0.00    +0.000 C 
ATOM     22  C   UNL     1      -2.283  15.798  24.264  0.00  0.00    +0.000 A 
ATOM     23  C   UNL     1      -3.147  15.913  23.177  0.00  0.00    +0.000 A 
ATOM     24  C   UNL     1      -2.974  15.114  22.043  0.00  0.00    +0.000 A 
ATOM     25  C   UNL     1      -1.932  14.189  21.948  0.00  0.00    +0.000 A 
ATOM     26  C   UNL     1      -1.092  14.035  23.062  0.00  0.00    +0.000 A 
ATOM     27  C   UNL     1      -1.261  14.842  24.204  0.00  0.00    +0.000 A 
ENDBRANCH  17  25
ENDBRANCH  16  18
ENDBRANCH  12  16
ENDBRANCH   1  14
BRANCH   9  28
ATOM     28  C   UNL     1       3.482   4.381  18.205  0.00  0.00    +0.000 C 
BRANCH  28  29
ATOM     29  C   UNL     1       4.936   4.421  17.813  0.00  0.00    +0.000 A 
ATOM     30  C   UNL     1       5.310   4.100  16.502  0.00  0.00    +0.000 A 
ATOM     31  C   UNL     1       6.638   4.222  16.095  0.00  0.00    +0.000 A 
ATOM     32  C   UNL     1       7.608   4.668  16.990  0.00  0.00    +0.000 A 
ATOM     33  C   UNL     1       7.255   4.975  18.302  0.00  0.00    +0.000 A 
ATOM     34  C   UNL     1       5.925   4.849  18.713  0.00  0.00    +0.000 A 
ENDBRANCH  28  29
ENDBRANCH   9  28
TORSDOF 6
ENDMDL
