MODEL 1
REMARK VINA RESULT:      -8.5      0.000      0.000
REMARK  Name = 
REMARK  6 active torsions:
REMARK  status: ('A' for Active; 'I' for Inactive)
REMARK    1  A    between atoms: C_2  and  C_18
REMARK    2  A    between atoms: N_3  and  CA_4
REMARK    3  A    between atoms: CA_4  and  CB_5
REMARK    4  A    between atoms: CA_4  and  C_15
REMARK    5  A    between atoms: CB_5  and  CG_6
REMARK    6  A    between atoms: C_15  and  OXT_17
REMARK                            x       y       z     vdW  Elec       q    Type
REMARK                         _______ _______ _______ _____ _____    ______ ____
ROOT
ATOM      1  CA  TRP A   1       2.847   3.447  17.277  0.00  0.00    +0.000 C 
ENDROOT
BRANCH   1   4
ATOM      2  O   UNK A   0       3.067   4.427  19.916  0.00  0.00    +0.000 OA
ATOM      3  C   UNK A   0       2.624   5.183  19.052  0.00  0.00    +0.000 C 
ATOM      4  N   TRP A   1       2.395   4.744  17.771  0.00  0.00    +0.000 N 
ATOM      5  H   TRP A   1       2.090   5.419  17.073  0.00  0.00    +0.000 HD
BRANCH   3   6
ATOM      6  C   UNK A   0       2.350   6.583  19.308  0.00  0.00    +0.000 A 
ATOM      7  C   UNK A   0       2.463   7.625  18.409  0.00  0.00    +0.000 A 
ATOM      8  C   UNK A   0       1.849   8.834  18.872  0.00  0.00    +0.000 A 
ATOM      9  C   UNK A   0       1.625  10.064  18.211  0.00  0.00    +0.000 A 
ATOM     10  C   UNK A   0       0.889  11.061  18.844  0.00  0.00    +0.000 A 
ATOM     11  F   UNK A   0       0.625  12.197  18.185  0.00  0.00    +0.000 F 
ATOM     12  C   UNK A   0       0.402  10.896  20.129  0.00  0.00    +0.000 A 
ATOM     13  C   UNK A   0       0.654   9.713  20.826  0.00  0.00    +0.000 A 
ATOM     14  C   UNK A   0       1.365   8.685  20.175  0.00  0.00    +0.000 A 
ATOM     15  S   UNK A   0       1.735   7.128  20.805  0.00  0.00    +0.000 S 
ENDBRANCH   3   6
ENDBRANCH   1   4
BRANCH   1  16
ATOM     16  C   TRP A   1       2.106   2.356  18.062  0.00  0.00    +0.000 C 
ATOM     17  O   TRP A   1       0.880   2.295  18.134  0.00  0.00    +0.000 OA
BRANCH  16  18
ATOM     18  OXT TRP A   1       2.888   1.393  18.597  0.00  0.00    +0.000 OA
ATOM     19  HXT TRP A   1       3.453   1.673  19.341  0.00  0.00    +0.000 HD
ENDBRANCH  16  18
ENDBRANCH   1  16
BRANCH   1  20
ATOM     20  CB  TRP A   1       4.367   3.261  17.266  0.00  0.00    +0.000 C 
BRANCH  20  21
ATOM     21  CG  TRP A   1       5.191   4.415  16.785  0.00  0.00    +0.000 A 
ATOM     22  CD1 TRP A   1       5.052   5.066  15.575  0.00  0.00    +0.000 A 
ATOM     23  NE1 TRP A   1       5.839   6.188  15.599  0.00  0.00    +0.000 N 
ATOM     24  CE2 TRP A   1       6.529   6.261  16.785  0.00  0.00    +0.000 A 
ATOM     25  CZ2 TRP A   1       7.408   7.244  17.258  0.00  0.00    +0.000 A 
ATOM     26  CH2 TRP A   1       8.003   7.038  18.505  0.00  0.00    +0.000 A 
ATOM     27  CZ3 TRP A   1       7.722   5.899  19.251  0.00  0.00    +0.000 A 
ATOM     28  CE3 TRP A   1       6.805   4.950  18.784  0.00  0.00    +0.000 A 
ATOM     29  CD2 TRP A   1       6.191   5.129  17.526  0.00  0.00    +0.000 A 
ATOM     30  HE1 TRP A   1       5.890   6.881  14.864  0.00  0.00    +0.000 HD
ENDBRANCH  20  21
ENDBRANCH   1  20
TORSDOF 6
ENDMDL
MODEL 2
REMARK VINA RESULT:      -8.4      1.137      1.282
REMARK  Name = 
REMARK  6 active torsions:
REMARK  status: ('A' for Active; 'I' for Inactive)
REMARK    1  A    between atoms: C_2  and  C_18
REMARK    2  A    between atoms: N_3  and  CA_4
REMARK    3  A    between atoms: CA_4  and  CB_5
REMARK    4  A    between atoms: CA_4  and  C_15
REMARK    5  A    between atoms: CB_5  and  CG_6
REMARK    6  A    between atoms: C_15  and  OXT_17
REMARK                            x       y       z     vdW  Elec       q    Type
REMARK                         _______ _______ _______ _____ _____    ______ ____
ROOT
ATOM      1  CA  TRP A   1       3.638   3.320  18.538  0.00  0.00    +0.000 C 
ENDROOT
BRANCH   1   4
ATOM      2  O   UNK A   0       1.535   4.914  17.534  0.00  0.00    +0.000 OA
ATOM      3  C   UNK A   0       2.322   5.426  18.331  0.00  0.00    +0.000 C 
ATOM      4  N   TRP A   1       3.424   4.743  18.782  0.00  0.00    +0.000 N 
ATOM      5  H   TRP A   1       4.011   5.180  19.489  0.00  0.00    +0.000 HD
BRANCH   3   6
ATOM      6  C   UNK A   0       2.126   6.756  18.874  0.00  0.00    +0.000 A 
ATOM      7  C   UNK A   0       2.112   7.942  18.168  0.00  0.00    +0.000 A 
ATOM      8  C   UNK A   0       1.610   9.045  18.935  0.00  0.00    +0.000 A 
ATOM      9  C   UNK A   0       1.308  10.371  18.550  0.00  0.00    +0.000 A 
ATOM     10  C   UNK A   0       0.709  11.233  19.464  0.00  0.00    +0.000 A 
ATOM     11  F   UNK A   0       0.366  12.467  19.070  0.00  0.00    +0.000 F 
ATOM     12  C   UNK A   0       0.438  10.837  20.761  0.00  0.00    +0.000 A 
ATOM     13  C   UNK A   0       0.775   9.550  21.185  0.00  0.00    +0.000 A 
ATOM     14  C   UNK A   0       1.345   8.661  20.253  0.00  0.00    +0.000 A 
ATOM     15  S   UNK A   0       1.778   7.019  20.525  0.00  0.00    +0.000 S 
ENDBRANCH   3   6
ENDBRANCH   1   4
BRANCH   1  16
ATOM     16  C   TRP A   1       3.999   2.658  19.875  0.00  0.00    +0.000 C 
ATOM     17  O   TRP A   1       3.227   2.612  20.832  0.00  0.00    +0.000 OA
BRANCH  16  18
ATOM     18  OXT TRP A   1       5.194   2.030  19.908  0.00  0.00    +0.000 OA
ATOM     19  HXT TRP A   1       5.975   2.605  19.804  0.00  0.00    +0.000 HD
ENDBRANCH  16  18
ENDBRANCH   1  16
BRANCH   1  20
ATOM     20  CB  TRP A   1       4.633   3.005  17.417  0.00  0.00    +0.000 C 
BRANCH  20  21
ATOM     21  CG  TRP A   1       5.411   4.155  16.854  0.00  0.00    +0.000 A 
ATOM     22  CD1 TRP A   1       5.268   4.693  15.589  0.00  0.00    +0.000 A 
ATOM     23  NE1 TRP A   1       5.998   5.851  15.533  0.00  0.00    +0.000 N 
ATOM     24  CE2 TRP A   1       6.655   6.059  16.721  0.00  0.00    +0.000 A 
ATOM     25  CZ2 TRP A   1       7.473   7.123  17.124  0.00  0.00    +0.000 A 
ATOM     26  CH2 TRP A   1       8.048   7.054  18.395  0.00  0.00    +0.000 A 
ATOM     27  CZ3 TRP A   1       7.806   5.970  19.232  0.00  0.00    +0.000 A 
ATOM     28  CE3 TRP A   1       6.948   4.940  18.830  0.00  0.00    +0.000 A 
ATOM     29  CD2 TRP A   1       6.357   4.979  17.550  0.00  0.00    +0.000 A 
ATOM     30  HE1 TRP A   1       6.033   6.480  14.742  0.00  0.00    +0.000 HD
ENDBRANCH  20  21
ENDBRANCH   1  20
TORSDOF 6
ENDMDL
MODEL 3
REMARK VINA RESULT:      -8.2      1.659      2.203
REMARK  Name = 
REMARK  6 active torsions:
REMARK  status: ('A' for Active; 'I' for Inactive)
REMARK    1  A    between atoms: C_2  and  C_18
REMARK    2  A    between atoms: N_3  and  CA_4
REMARK    3  A    between atoms: CA_4  and  CB_5
REMARK    4  A    between atoms: CA_4  and  C_15
REMARK    5  A    between atoms: CB_5  and  CG_6
REMARK    6  A    between atoms: C_15  and  OXT_17
REMARK                            x       y       z     vdW  Elec       q    Type
REMARK                         _______ _______ _______ _____ _____    ______ ____
ROOT
ATOM      1  CA  TRP A   1       2.588   4.119  20.093  0.00  0.00    +0.000 C 
ENDROOT
BRANCH   1   4
ATOM      2  O   UNK A   0       2.487   6.106  18.090  0.00  0.00    +0.000 OA
ATOM      3  C   UNK A   0       2.277   6.446  19.255  0.00  0.00    +0.000 C 
ATOM      4  N   TRP A   1       2.409   5.554  20.290  0.00  0.00    +0.000 N 
ATOM      5  H   TRP A   1       2.163   5.860  21.230  0.00  0.00    +0.000 HD
BRANCH   3   6
ATOM      6  C   UNK A   0       1.845   7.783  19.611  0.00  0.00    +0.000 A 
ATOM      7  C   UNK A   0       1.723   8.864  18.762  0.00  0.00    +0.000 A 
ATOM      8  C   UNK A   0       1.003   9.957  19.347  0.00  0.00    +0.000 A 
ATOM      9  C   UNK A   0       0.547  11.169  18.778  0.00  0.00    +0.000 A 
ATOM     10  C   UNK A   0      -0.247  12.028  19.533  0.00  0.00    +0.000 A 
ATOM     11  F   UNK A   0      -0.729  13.140  18.965  0.00  0.00    +0.000 F 
ATOM     12  C   UNK A   0      -0.569  11.745  20.849  0.00  0.00    +0.000 A 
ATOM     13  C   UNK A   0      -0.088  10.583  21.454  0.00  0.00    +0.000 A 
ATOM     14  C   UNK A   0       0.683   9.691  20.682  0.00  0.00    +0.000 A 
ATOM     15  S   UNK A   0       1.322   8.176  21.188  0.00  0.00    +0.000 S 
ENDBRANCH   3   6
ENDBRANCH   1   4
BRANCH   1  16
ATOM     16  C   TRP A   1       1.766   3.386  21.162  0.00  0.00    +0.000 C 
ATOM     17  O   TRP A   1       2.170   3.198  22.309  0.00  0.00    +0.000 OA
BRANCH  16  18
ATOM     18  OXT TRP A   1       0.512   3.043  20.796  0.00  0.00    +0.000 OA
ATOM     19  HXT TRP A   1       0.287   2.099  20.895  0.00  0.00    +0.000 HD
ENDBRANCH  16  18
ENDBRANCH   1  16
BRANCH   1  20
ATOM     20  CB  TRP A   1       4.048   3.659  20.029  0.00  0.00    +0.000 C 
BRANCH  20  21
ATOM     21  CG  TRP A   1       4.741   3.776  18.707  0.00  0.00    +0.000 A 
ATOM     22  CD1 TRP A   1       4.417   3.087  17.554  0.00  0.00    +0.000 A 
ATOM     23  NE1 TRP A   1       5.138   3.622  16.519  0.00  0.00    +0.000 N 
ATOM     24  CE2 TRP A   1       5.966   4.617  16.979  0.00  0.00    +0.000 A 
ATOM     25  CZ2 TRP A   1       6.843   5.456  16.278  0.00  0.00    +0.000 A 
ATOM     26  CH2 TRP A   1       7.600   6.368  17.018  0.00  0.00    +0.000 A 
ATOM     27  CZ3 TRP A   1       7.477   6.443  18.402  0.00  0.00    +0.000 A 
ATOM     28  CE3 TRP A   1       6.561   5.629  19.079  0.00  0.00    +0.000 A 
ATOM     29  CD2 TRP A   1       5.786   4.696  18.360  0.00  0.00    +0.000 A 
ATOM     30  HE1 TRP A   1       5.060   3.346  15.549  0.00  0.00    +0.000 HD
ENDBRANCH  20  21
ENDBRANCH   1  20
TORSDOF 6
ENDMDL
MODEL 4
REMARK VINA RESULT:      -8.2      1.768      2.557
REMARK  Name = 
REMARK  6 active torsions:
REMARK  status: ('A' for Active; 'I' for Inactive)
REMARK    1  A    between atoms: C_2  and  C_18
REMARK    2  A    between atoms: N_3  and  CA_4
REMARK    3  A    between atoms: CA_4  and  CB_5
REMARK    4  A    between atoms: CA_4  and  C_15
REMARK    5  A    between atoms: CB_5  and  CG_6
REMARK    6  A    between atoms: C_15  and  OXT_17
REMARK                            x       y       z     vdW  Elec       q    Type
REMARK                         _______ _______ _______ _____ _____    ______ ____
ROOT
ATOM      1  CA  TRP A   1       2.992   3.951  19.857  0.00  0.00    +0.000 C 
ENDROOT
BRANCH   1   4
ATOM      2  O   UNK A   0       2.293   5.822  17.861  0.00  0.00    +0.000 OA
ATOM      3  C   UNK A   0       2.367   6.217  19.025  0.00  0.00    +0.000 C 
ATOM      4  N   TRP A   1       2.799   5.388  20.031  0.00  0.00    +0.000 N 
ATOM      5  H   TRP A   1       2.784   5.736  20.987  0.00  0.00    +0.000 HD
BRANCH   3   6
ATOM      6  C   UNK A   0       1.975   7.555  19.421  0.00  0.00    +0.000 A 
ATOM      7  C   UNK A   0       1.896   8.667  18.607  0.00  0.00    +0.000 A 
ATOM      8  C   UNK A   0       1.205   9.763  19.221  0.00  0.00    +0.000 A 
ATOM      9  C   UNK A   0       0.794  11.006  18.687  0.00  0.00    +0.000 A 
ATOM     10  C   UNK A   0       0.021  11.865  19.462  0.00  0.00    +0.000 A 
ATOM     11  F   UNK A   0      -0.419  13.011  18.927  0.00  0.00    +0.000 F 
ATOM     12  C   UNK A   0      -0.324  11.551  20.765  0.00  0.00    +0.000 A 
ATOM     13  C   UNK A   0       0.113  10.354  21.336  0.00  0.00    +0.000 A 
ATOM     14  C   UNK A   0       0.863   9.464  20.542  0.00  0.00    +0.000 A 
ATOM     15  S   UNK A   0       1.448   7.914  21.005  0.00  0.00    +0.000 S 
ENDBRANCH   3   6
ENDBRANCH   1   4
BRANCH   1  16
ATOM     16  C   TRP A   1       2.243   3.232  20.986  0.00  0.00    +0.000 C 
ATOM     17  O   TRP A   1       2.813   2.698  21.938  0.00  0.00    +0.000 OA
BRANCH  16  18
ATOM     18  OXT TRP A   1       0.896   3.305  20.929  0.00  0.00    +0.000 OA
ATOM     19  HXT TRP A   1       0.536   3.994  20.339  0.00  0.00    +0.000 HD
ENDBRANCH  16  18
ENDBRANCH   1  16
BRANCH   1  20
ATOM     20  CB  TRP A   1       4.454   3.514  19.723  0.00  0.00    +0.000 C 
BRANCH  20  21
ATOM     21  CG  TRP A   1       5.365   4.414  18.946  0.00  0.00    +0.000 A 
ATOM     22  CD1 TRP A   1       6.289   5.292  19.478  0.00  0.00    +0.000 A 
ATOM     23  NE1 TRP A   1       7.065   5.769  18.454  0.00  0.00    +0.000 N 
ATOM     24  CE2 TRP A   1       6.637   5.257  17.253  0.00  0.00    +0.000 A 
ATOM     25  CZ2 TRP A   1       7.152   5.435  15.962  0.00  0.00    +0.000 A 
ATOM     26  CH2 TRP A   1       6.483   4.813  14.905  0.00  0.00    +0.000 A 
ATOM     27  CZ3 TRP A   1       5.352   4.037  15.132  0.00  0.00    +0.000 A 
ATOM     28  CE3 TRP A   1       4.880   3.832  16.433  0.00  0.00    +0.000 A 
ATOM     29  CD2 TRP A   1       5.531   4.451  17.521  0.00  0.00    +0.000 A 
ATOM     30  HE1 TRP A   1       7.856   6.390  18.561  0.00  0.00    +0.000 HD
ENDBRANCH  20  21
ENDBRANCH   1  20
TORSDOF 6
ENDMDL
MODEL 5
REMARK VINA RESULT:      -8.2      2.782      4.627
REMARK  Name = 
REMARK  6 active torsions:
REMARK  status: ('A' for Active; 'I' for Inactive)
REMARK    1  A    between atoms: C_2  and  C_18
REMARK    2  A    between atoms: N_3  and  CA_4
REMARK    3  A    between atoms: CA_4  and  CB_5
REMARK    4  A    between atoms: CA_4  and  C_15
REMARK    5  A    between atoms: CB_5  and  CG_6
REMARK    6  A    between atoms: C_15  and  OXT_17
REMARK                            x       y       z     vdW  Elec       q    Type
REMARK                         _______ _______ _______ _____ _____    ______ ____
ROOT
ATOM      1  CA  TRP A   1       4.247   6.458  17.650  0.00  0.00    +0.000 C 
ENDROOT
BRANCH   1   4
ATOM      2  O   UNK A   0       2.630   7.035  19.891  0.00  0.00    +0.000 OA
ATOM      3  C   UNK A   0       2.425   7.662  18.852  0.00  0.00    +0.000 C 
ATOM      4  N   TRP A   1       3.104   7.364  17.696  0.00  0.00    +0.000 N 
ATOM      5  H   TRP A   1       2.950   7.950  16.878  0.00  0.00    +0.000 HD
BRANCH   3   6
ATOM      6  C   UNK A   0       1.493   8.769  18.781  0.00  0.00    +0.000 A 
ATOM      7  C   UNK A   0       0.657   9.078  17.727  0.00  0.00    +0.000 A 
ATOM      8  C   UNK A   0      -0.343  10.047  18.070  0.00  0.00    +0.000 A 
ATOM      9  C   UNK A   0      -1.455  10.521  17.336  0.00  0.00    +0.000 A 
ATOM     10  C   UNK A   0      -2.360  11.387  17.943  0.00  0.00    +0.000 A 
ATOM     11  F   UNK A   0      -3.446  11.778  17.263  0.00  0.00    +0.000 F 
ATOM     12  C   UNK A   0      -2.178  11.832  19.240  0.00  0.00    +0.000 A 
ATOM     13  C   UNK A   0      -1.060  11.423  19.970  0.00  0.00    +0.000 A 
ATOM     14  C   UNK A   0      -0.161  10.516  19.374  0.00  0.00    +0.000 A 
ATOM     15  S   UNK A   0       1.239   9.826  20.098  0.00  0.00    +0.000 S 
ENDBRANCH   3   6
ENDBRANCH   1   4
BRANCH   1  16
ATOM     16  C   TRP A   1       5.317   7.088  16.747  0.00  0.00    +0.000 C 
ATOM     17  O   TRP A   1       6.372   7.551  17.178  0.00  0.00    +0.000 OA
BRANCH  16  18
ATOM     18  OXT TRP A   1       5.074   7.012  15.421  0.00  0.00    +0.000 OA
ATOM     19  HXT TRP A   1       5.349   6.182  14.988  0.00  0.00    +0.000 HD
ENDBRANCH  16  18
ENDBRANCH   1  16
BRANCH   1  20
ATOM     20  CB  TRP A   1       3.904   5.014  17.269  0.00  0.00    +0.000 C 
BRANCH  20  21
ATOM     21  CG  TRP A   1       3.974   3.987  18.357  0.00  0.00    +0.000 A 
ATOM     22  CD1 TRP A   1       5.101   3.290  18.747  0.00  0.00    +0.000 A 
ATOM     23  NE1 TRP A   1       4.807   2.611  19.900  0.00  0.00    +0.000 N 
ATOM     24  CE2 TRP A   1       3.493   2.811  20.249  0.00  0.00    +0.000 A 
ATOM     25  CZ2 TRP A   1       2.776   2.351  21.361  0.00  0.00    +0.000 A 
ATOM     26  CH2 TRP A   1       1.422   2.685  21.444  0.00  0.00    +0.000 A 
ATOM     27  CZ3 TRP A   1       0.813   3.455  20.458  0.00  0.00    +0.000 A 
ATOM     28  CE3 TRP A   1       1.558   3.945  19.379  0.00  0.00    +0.000 A 
ATOM     29  CD2 TRP A   1       2.926   3.622  19.266  0.00  0.00    +0.000 A 
ATOM     30  HE1 TRP A   1       5.463   2.059  20.436  0.00  0.00    +0.000 HD
ENDBRANCH  20  21
ENDBRANCH   1  20
TORSDOF 6
ENDMDL
MODEL 6
REMARK VINA RESULT:      -8.0      2.149      3.268
REMARK  Name = 
REMARK  6 active torsions:
REMARK  status: ('A' for Active; 'I' for Inactive)
REMARK    1  A    between atoms: C_2  and  C_18
REMARK    2  A    between atoms: N_3  and  CA_4
REMARK    3  A    between atoms: CA_4  and  CB_5
REMARK    4  A    between atoms: CA_4  and  C_15
REMARK    5  A    between atoms: CB_5  and  CG_6
REMARK    6  A    between atoms: C_15  and  OXT_17
REMARK                            x       y       z     vdW  Elec       q    Type
REMARK                         _______ _______ _______ _____ _____    ______ ____
ROOT
ATOM      1  CA  TRP A   1       2.903   5.656  18.917  0.00  0.00    +0.000 C 
ENDROOT
BRANCH   1   4
ATOM      2  O   UNK A   0       2.127   8.192  17.950  0.00  0.00    +0.000 OA
ATOM      3  C   UNK A   0       2.017   7.974  19.156  0.00  0.00    +0.000 C 
ATOM      4  N   TRP A   1       2.467   6.801  19.710  0.00  0.00    +0.000 N 
ATOM      5  H   TRP A   1       2.298   6.635  20.700  0.00  0.00    +0.000 HD
BRANCH   3   6
ATOM      6  C   UNK A   0       1.378   8.908  20.062  0.00  0.00    +0.000 A 
ATOM      7  C   UNK A   0       0.829  10.131  19.735  0.00  0.00    +0.000 A 
ATOM      8  C   UNK A   0       0.023  10.682  20.784  0.00  0.00    +0.000 A 
ATOM      9  C   UNK A   0      -0.812  11.824  20.801  0.00  0.00    +0.000 A 
ATOM     10  C   UNK A   0      -1.597  12.085  21.920  0.00  0.00    +0.000 A 
ATOM     11  F   UNK A   0      -2.433  13.131  21.900  0.00  0.00    +0.000 F 
ATOM     12  C   UNK A   0      -1.551  11.276  23.041  0.00  0.00    +0.000 A 
ATOM     13  C   UNK A   0      -0.696  10.172  23.073  0.00  0.00    +0.000 A 
ATOM     14  C   UNK A   0       0.071   9.881  21.928  0.00  0.00    +0.000 A 
ATOM     15  S   UNK A   0       1.136   8.546  21.713  0.00  0.00    +0.000 S 
ENDBRANCH   3   6
ENDBRANCH   1   4
BRANCH   1  16
ATOM     16  C   TRP A   1       1.711   4.701  18.768  0.00  0.00    +0.000 C 
ATOM     17  O   TRP A   1       1.310   4.290  17.680  0.00  0.00    +0.000 OA
BRANCH  16  18
ATOM     18  OXT TRP A   1       1.181   4.250  19.926  0.00  0.00    +0.000 OA
ATOM     19  HXT TRP A   1       1.108   4.908  20.641  0.00  0.00    +0.000 HD
ENDBRANCH  16  18
ENDBRANCH   1  16
BRANCH   1  20
ATOM     20  CB  TRP A   1       4.172   4.968  19.430  0.00  0.00    +0.000 C 
BRANCH  20  21
ATOM     21  CG  TRP A   1       5.431   5.192  18.649  0.00  0.00    +0.000 A 
ATOM     22  CD1 TRP A   1       6.654   5.568  19.168  0.00  0.00    +0.000 A 
ATOM     23  NE1 TRP A   1       7.592   5.460  18.175  0.00  0.00    +0.000 N 
ATOM     24  CE2 TRP A   1       6.998   5.067  17.000  0.00  0.00    +0.000 A 
ATOM     25  CZ2 TRP A   1       7.569   4.793  15.750  0.00  0.00    +0.000 A 
ATOM     26  CH2 TRP A   1       6.708   4.442  14.706  0.00  0.00    +0.000 A 
ATOM     27  CZ3 TRP A   1       5.335   4.358  14.910  0.00  0.00    +0.000 A 
ATOM     28  CE3 TRP A   1       4.789   4.588  16.177  0.00  0.00    +0.000 A 
ATOM     29  CD2 TRP A   1       5.631   4.950  17.249  0.00  0.00    +0.000 A 
ATOM     30  HE1 TRP A   1       8.583   5.622  18.288  0.00  0.00    +0.000 HD
ENDBRANCH  20  21
ENDBRANCH   1  20
TORSDOF 6
ENDMDL
MODEL 7
REMARK VINA RESULT:      -8.0      1.882      2.902
REMARK  Name = 
REMARK  6 active torsions:
REMARK  status: ('A' for Active; 'I' for Inactive)
REMARK    1  A    between atoms: C_2  and  C_18
REMARK    2  A    between atoms: N_3  and  CA_4
REMARK    3  A    between atoms: CA_4  and  CB_5
REMARK    4  A    between atoms: CA_4  and  C_15
REMARK    5  A    between atoms: CB_5  and  CG_6
REMARK    6  A    between atoms: C_15  and  OXT_17
REMARK                            x       y       z     vdW  Elec       q    Type
REMARK                         _______ _______ _______ _____ _____    ______ ____
ROOT
ATOM      1  CA  TRP A   1       3.542   4.294  17.228  0.00  0.00    +0.000 C 
ENDROOT
BRANCH   1   4
ATOM      2  O   UNK A   0       3.807   7.048  16.665  0.00  0.00    +0.000 OA
ATOM      3  C   UNK A   0       3.218   6.721  17.696  0.00  0.00    +0.000 C 
ATOM      4  N   TRP A   1       3.140   5.406  18.083  0.00  0.00    +0.000 N 
ATOM      5  H   TRP A   1       2.589   5.175  18.907  0.00  0.00    +0.000 HD
BRANCH   3   6
ATOM      6  C   UNK A   0       2.541   7.681  18.544  0.00  0.00    +0.000 A 
ATOM      7  C   UNK A   0       2.063   8.921  18.170  0.00  0.00    +0.000 A 
ATOM      8  C   UNK A   0       1.193   9.505  19.149  0.00  0.00    +0.000 A 
ATOM      9  C   UNK A   0       0.401  10.675  19.095  0.00  0.00    +0.000 A 
ATOM     10  C   UNK A   0      -0.463  10.970  20.146  0.00  0.00    +0.000 A 
ATOM     11  F   UNK A   0      -1.258  12.044  20.056  0.00  0.00    +0.000 F 
ATOM     12  C   UNK A   0      -0.537  10.165  21.269  0.00  0.00    +0.000 A 
ATOM     13  C   UNK A   0       0.273   9.033  21.374  0.00  0.00    +0.000 A 
ATOM     14  C   UNK A   0       1.121   8.709  20.296  0.00  0.00    +0.000 A 
ATOM     15  S   UNK A   0       2.152   7.338  20.171  0.00  0.00    +0.000 S 
ENDBRANCH   3   6
ENDBRANCH   1   4
BRANCH   1  16
ATOM     16  C   TRP A   1       2.630   3.100  17.541  0.00  0.00    +0.000 C 
ATOM     17  O   TRP A   1       1.402   3.174  17.539  0.00  0.00    +0.000 OA
BRANCH  16  18
ATOM     18  OXT TRP A   1       3.261   1.920  17.724  0.00  0.00    +0.000 OA
ATOM     19  HXT TRP A   1       2.683   1.136  17.775  0.00  0.00    +0.000 HD
ENDBRANCH  16  18
ENDBRANCH   1  16
BRANCH   1  20
ATOM     20  CB  TRP A   1       5.034   3.950  17.286  0.00  0.00    +0.000 C 
BRANCH  20  21
ATOM     21  CG  TRP A   1       5.930   4.638  16.302  0.00  0.00    +0.000 A 
ATOM     22  CD1 TRP A   1       6.892   5.583  16.601  0.00  0.00    +0.000 A 
ATOM     23  NE1 TRP A   1       7.634   5.810  15.471  0.00  0.00    +0.000 N 
ATOM     24  CE2 TRP A   1       7.146   5.067  14.423  0.00  0.00    +0.000 A 
ATOM     25  CZ2 TRP A   1       7.611   4.952  13.107  0.00  0.00    +0.000 A 
ATOM     26  CH2 TRP A   1       6.887   4.139  12.231  0.00  0.00    +0.000 A 
ATOM     27  CZ3 TRP A   1       5.751   3.461  12.659  0.00  0.00    +0.000 A 
ATOM     28  CE3 TRP A   1       5.329   3.550  13.991  0.00  0.00    +0.000 A 
ATOM     29  CD2 TRP A   1       6.037   4.367  14.897  0.00  0.00    +0.000 A 
ATOM     30  HE1 TRP A   1       8.441   6.417  15.415  0.00  0.00    +0.000 HD
ENDBRANCH  20  21
ENDBRANCH   1  20
TORSDOF 6
ENDMDL
MODEL 8
REMARK VINA RESULT:      -8.0      1.945      3.065
REMARK  Name = 
REMARK  6 active torsions:
REMARK  status: ('A' for Active; 'I' for Inactive)
REMARK    1  A    between atoms: C_2  and  C_18
REMARK    2  A    between atoms: N_3  and  CA_4
REMARK    3  A    between atoms: CA_4  and  CB_5
REMARK    4  A    between atoms: CA_4  and  C_15
REMARK    5  A    between atoms: CB_5  and  CG_6
REMARK    6  A    between atoms: C_15  and  OXT_17
REMARK                            x       y       z     vdW  Elec       q    Type
REMARK                         _______ _______ _______ _____ _____    ______ ____
ROOT
ATOM      1  CA  TRP A   1       4.164   3.951  18.063  0.00  0.00    +0.000 C 
ENDROOT
BRANCH   1   4
ATOM      2  O   UNK A   0       1.584   5.063  17.786  0.00  0.00    +0.000 OA
ATOM      3  C   UNK A   0       2.492   5.797  18.174  0.00  0.00    +0.000 C 
ATOM      4  N   TRP A   1       3.790   5.351  18.236  0.00  0.00    +0.000 N 
ATOM      5  H   TRP A   1       4.498   5.971  18.624  0.00  0.00    +0.000 HD
BRANCH   3   6
ATOM      6  C   UNK A   0       2.259   7.155  18.624  0.00  0.00    +0.000 A 
ATOM      7  C   UNK A   0       2.303   8.299  17.854  0.00  0.00    +0.000 A 
ATOM      8  C   UNK A   0       1.747   9.442  18.516  0.00  0.00    +0.000 A 
ATOM      9  C   UNK A   0       1.479  10.745  18.034  0.00  0.00    +0.000 A 
ATOM     10  C   UNK A   0       0.814  11.656  18.849  0.00  0.00    +0.000 A 
ATOM     11  F   UNK A   0       0.505  12.865  18.361  0.00  0.00    +0.000 F 
ATOM     12  C   UNK A   0       0.442  11.333  20.142  0.00  0.00    +0.000 A 
ATOM     13  C   UNK A   0       0.742  10.073  20.663  0.00  0.00    +0.000 A 
ATOM     14  C   UNK A   0       1.380   9.134  19.829  0.00  0.00    +0.000 A 
ATOM     15  S   UNK A   0       1.786   7.510  20.226  0.00  0.00    +0.000 S 
ENDBRANCH   3   6
ENDBRANCH   1   4
BRANCH   1  16
ATOM     16  C   TRP A   1       5.272   3.628  19.075  0.00  0.00    +0.000 C 
ATOM     17  O   TRP A   1       6.091   4.460  19.464  0.00  0.00    +0.000 OA
BRANCH  16  18
ATOM     18  OXT TRP A   1       5.235   2.383  19.598  0.00  0.00    +0.000 OA
ATOM     19  HXT TRP A   1       5.308   1.653  18.956  0.00  0.00    +0.000 HD
ENDBRANCH  16  18
ENDBRANCH   1  16
BRANCH   1  20
ATOM     20  CB  TRP A   1       4.519   3.556  16.626  0.00  0.00    +0.000 C 
BRANCH  20  21
ATOM     21  CG  TRP A   1       5.537   4.398  15.921  0.00  0.00    +0.000 A 
ATOM     22  CD1 TRP A   1       6.342   5.360  16.501  0.00  0.00    +0.000 A 
ATOM     23  NE1 TRP A   1       7.276   5.750  15.577  0.00  0.00    +0.000 N 
ATOM     24  CE2 TRP A   1       7.069   5.099  14.385  0.00  0.00    +0.000 A 
ATOM     25  CZ2 TRP A   1       7.797   5.155  13.190  0.00  0.00    +0.000 A 
ATOM     26  CH2 TRP A   1       7.330   4.401  12.110  0.00  0.00    +0.000 A 
ATOM     27  CZ3 TRP A   1       6.188   3.616  12.226  0.00  0.00    +0.000 A 
ATOM     28  CE3 TRP A   1       5.502   3.535  13.443  0.00  0.00    +0.000 A 
ATOM     29  CD2 TRP A   1       5.946   4.288  14.550  0.00  0.00    +0.000 A 
ATOM     30  HE1 TRP A   1       8.027   6.406  15.748  0.00  0.00    +0.000 HD
ENDBRANCH  20  21
ENDBRANCH   1  20
TORSDOF 6
ENDMDL
MODEL 9
REMARK VINA RESULT:      -8.0      2.259      3.344
REMARK  Name = 
REMARK  6 active torsions:
REMARK  status: ('A' for Active; 'I' for Inactive)
REMARK    1  A    between atoms: C_2  and  C_18
REMARK    2  A    between atoms: N_3  and  CA_4
REMARK    3  A    between atoms: CA_4  and  CB_5
REMARK    4  A    between atoms: CA_4  and  C_15
REMARK    5  A    between atoms: CB_5  and  CG_6
REMARK    6  A    between atoms: C_15  and  OXT_17
REMARK                            x       y       z     vdW  Elec       q    Type
REMARK                         _______ _______ _______ _____ _____    ______ ____
ROOT
ATOM      1  CA  TRP A   1       2.324   5.427  19.948  0.00  0.00    +0.000 C 
ENDROOT
BRANCH   1   4
ATOM      2  O   UNK A   0       2.357   7.971  18.723  0.00  0.00    +0.000 OA
ATOM      3  C   UNK A   0       1.845   7.871  19.838  0.00  0.00    +0.000 C 
ATOM      4  N   TRP A   1       1.883   6.689  20.536  0.00  0.00    +0.000 N 
ATOM      5  H   TRP A   1       1.392   6.634  21.425  0.00  0.00    +0.000 HD
BRANCH   3   6
ATOM      6  C   UNK A   0       1.142   8.968  20.474  0.00  0.00    +0.000 A 
ATOM      7  C   UNK A   0       0.485  10.004  19.841  0.00  0.00    +0.000 A 
ATOM      8  C   UNK A   0      -0.351  10.761  20.727  0.00  0.00    +0.000 A 
ATOM      9  C   UNK A   0      -1.279  11.793  20.458  0.00  0.00    +0.000 A 
ATOM     10  C   UNK A   0      -2.069  12.294  21.489  0.00  0.00    +0.000 A 
ATOM     11  F   UNK A   0      -2.991  13.225  21.212  0.00  0.00    +0.000 F 
ATOM     12  C   UNK A   0      -1.938  11.836  22.787  0.00  0.00    +0.000 A 
ATOM     13  C   UNK A   0      -0.992  10.856  23.093  0.00  0.00    +0.000 A 
ATOM     14  C   UNK A   0      -0.218  10.317  22.045  0.00  0.00    +0.000 A 
ATOM     15  S   UNK A   0       0.954   9.064  22.168  0.00  0.00    +0.000 S 
ENDBRANCH   3   6
ENDBRANCH   1   4
BRANCH   1  16
ATOM     16  C   TRP A   1       1.654   4.284  20.723  0.00  0.00    +0.000 C 
ATOM     17  O   TRP A   1       0.651   3.697  20.320  0.00  0.00    +0.000 OA
BRANCH  16  18
ATOM     18  OXT TRP A   1       2.298   3.886  21.841  0.00  0.00    +0.000 OA
ATOM     19  HXT TRP A   1       1.766   3.891  22.658  0.00  0.00    +0.000 HD
ENDBRANCH  16  18
ENDBRANCH   1  16
BRANCH   1  20
ATOM     20  CB  TRP A   1       3.844   5.273  19.831  0.00  0.00    +0.000 C 
BRANCH  20  21
ATOM     21  CG  TRP A   1       4.357   4.426  18.707  0.00  0.00    +0.000 A 
ATOM     22  CD1 TRP A   1       3.903   3.168  18.362  0.00  0.00    +0.000 A 
ATOM     23  NE1 TRP A   1       4.471   2.821  17.165  0.00  0.00    +0.000 N 
ATOM     24  CE2 TRP A   1       5.327   3.808  16.739  0.00  0.00    +0.000 A 
ATOM     25  CZ2 TRP A   1       6.084   3.899  15.564  0.00  0.00    +0.000 A 
ATOM     26  CH2 TRP A   1       6.908   5.016  15.408  0.00  0.00    +0.000 A 
ATOM     27  CZ3 TRP A   1       6.964   6.006  16.383  0.00  0.00    +0.000 A 
ATOM     28  CE3 TRP A   1       6.163   5.921  17.529  0.00  0.00    +0.000 A 
ATOM     29  CD2 TRP A   1       5.325   4.802  17.717  0.00  0.00    +0.000 A 
ATOM     30  HE1 TRP A   1       4.274   1.973  16.650  0.00  0.00    +0.000 HD
ENDBRANCH  20  21
ENDBRANCH   1  20
TORSDOF 6
ENDMDL
