MODEL 1
REMARK VINA RESULT:      -8.5      0.000      0.000
REMARK  Name = 
REMARK  5 active torsions:
REMARK  status: ('A' for Active; 'I' for Inactive)
REMARK    1  A    between atoms: C_1  and  C_2
REMARK    2  A    between atoms: N_7  and  C_8
REMARK    3  A    between atoms: C_8  and  C_9
REMARK    4  A    between atoms: C_13  and  C_14
REMARK    5  A    between atoms: N_20  and  C_21
REMARK                            x       y       z     vdW  Elec       q    Type
REMARK                         _______ _______ _______ _____ _____    ______ ____
ROOT
ATOM      1  C   UNL     1       0.029  11.212  19.189  0.00  0.00    +0.000 A 
ATOM      2  C   UNL     1       0.871  10.322  18.501  0.00  0.00    +0.000 A 
ATOM      3  C   UNL     1       1.342   9.207  19.178  0.00  0.00    +0.000 A 
ATOM      4  C   UNL     1       1.014   8.944  20.505  0.00  0.00    +0.000 A 
ATOM      5  C   UNL     1       0.269   9.855  21.246  0.00  0.00    +0.000 A 
ATOM      6  C   UNL     1      -0.192  11.010  20.575  0.00  0.00    +0.000 A 
ATOM      7  C   UNL     1       1.500   7.579  20.875  0.00  0.00    +0.000 C 
ATOM      8  N   UNL     1       2.208   7.128  19.688  0.00  0.00    +0.000 N 
ATOM      9  C   UNL     1       2.130   8.073  18.661  0.00  0.00    +0.000 C 
ATOM     10  O   UNL     1       2.566   8.057  17.524  0.00  0.00    +0.000 OA
ENDROOT
BRANCH   8  11
ATOM     11  C   UNL     1       2.892   5.880  19.655  0.00  0.00    +0.000 A 
ATOM     12  C   UNL     1       2.260   4.683  20.010  0.00  0.00    +0.000 A 
ATOM     13  C   UNL     1       2.926   3.456  19.912  0.00  0.00    +0.000 A 
ATOM     14  C   UNL     1       4.246   3.402  19.468  0.00  0.00    +0.000 A 
ATOM     15  C   UNL     1       4.902   4.582  19.141  0.00  0.00    +0.000 A 
ATOM     16  C   UNL     1       4.230   5.807  19.231  0.00  0.00    +0.000 A 
ENDBRANCH   8  11
BRANCH   5  17
ATOM     17  C   UNL     1      -0.117   9.612  22.682  0.00  0.00    +0.000 C 
ATOM     18  F   UNL     1       0.942   9.334  23.493  0.00  0.00    +0.000 F 
ATOM     19  F   UNL     1      -0.748  10.677  23.245  0.00  0.00    +0.000 F 
ATOM     20  F   UNL     1      -0.967   8.557  22.814  0.00  0.00    +0.000 F 
ENDBRANCH   5  17
BRANCH   1  21
ATOM     21  C   UNL     1      -0.796  12.249  18.438  0.00  0.00    +0.000 C 
BRANCH  21  28
ATOM     22  C   UNL     1      -3.289  12.857  20.186  0.00  0.00    +0.000 C 
ATOM     23  C   UNL     1      -3.271  11.989  18.958  0.00  0.00    +0.000 C 
ATOM     24  C   UNL     1      -4.345  11.511  18.429  0.00  0.00    +0.000 C 
ATOM     25  C   UNL     1      -4.802  11.022  17.324  0.00  0.00    +0.000 C 
ATOM     26  C   UNL     1      -3.776  11.014  16.219  0.00  0.00    +0.000 C 
ATOM     27  C   UNL     1      -2.311  11.214  16.745  0.00  0.00    +0.000 C 
ATOM     28  N   UNL     1      -2.158  11.834  18.112  0.00  0.00    +0.000 N 
ENDBRANCH  21  28
ENDBRANCH   1  21
TORSDOF 4
ENDMDL
MODEL 2
REMARK VINA RESULT:      -8.5      0.151      1.164
REMARK  Name = 
REMARK  5 active torsions:
REMARK  status: ('A' for Active; 'I' for Inactive)
REMARK    1  A    between atoms: C_1  and  C_2
REMARK    2  A    between atoms: N_7  and  C_8
REMARK    3  A    between atoms: C_8  and  C_9
REMARK    4  A    between atoms: C_13  and  C_14
REMARK    5  A    between atoms: N_20  and  C_21
REMARK                            x       y       z     vdW  Elec       q    Type
REMARK                         _______ _______ _______ _____ _____    ______ ____
ROOT
ATOM      1  C   UNL     1       0.091  11.147  19.188  0.00  0.00    +0.000 A 
ATOM      2  C   UNL     1       0.922  10.264  18.479  0.00  0.00    +0.000 A 
ATOM      3  C   UNL     1       1.378   9.127  19.129  0.00  0.00    +0.000 A 
ATOM      4  C   UNL     1       1.048   8.836  20.449  0.00  0.00    +0.000 A 
ATOM      5  C   UNL     1       0.314   9.739  21.212  0.00  0.00    +0.000 A 
ATOM      6  C   UNL     1      -0.132  10.915  20.569  0.00  0.00    +0.000 A 
ATOM      7  C   UNL     1       1.516   7.457  20.786  0.00  0.00    +0.000 C 
ATOM      8  N   UNL     1       2.218   7.025  19.588  0.00  0.00    +0.000 N 
ATOM      9  C   UNL     1       2.152   7.996  18.584  0.00  0.00    +0.000 C 
ATOM     10  O   UNL     1       2.587   8.001  17.447  0.00  0.00    +0.000 OA
ENDROOT
BRANCH   8  11
ATOM     11  C   UNL     1       2.886   5.770  19.526  0.00  0.00    +0.000 A 
ATOM     12  C   UNL     1       4.268   5.680  19.321  0.00  0.00    +0.000 A 
ATOM     13  C   UNL     1       4.922   4.442  19.325  0.00  0.00    +0.000 A 
ATOM     14  C   UNL     1       4.203   3.265  19.521  0.00  0.00    +0.000 A 
ATOM     15  C   UNL     1       2.826   3.330  19.695  0.00  0.00    +0.000 A 
ATOM     16  C   UNL     1       2.176   4.570  19.701  0.00  0.00    +0.000 A 
ENDBRANCH   8  11
BRANCH   5  17
ATOM     17  C   UNL     1      -0.075   9.466  22.642  0.00  0.00    +0.000 C 
ATOM     18  F   UNL     1      -0.767  10.484  23.224  0.00  0.00    +0.000 F 
ATOM     19  F   UNL     1      -0.857   8.361  22.772  0.00  0.00    +0.000 F 
ATOM     20  F   UNL     1       1.009   9.256  23.438  0.00  0.00    +0.000 F 
ENDBRANCH   5  17
BRANCH   1  21
ATOM     21  C   UNL     1      -0.721  12.212  18.462  0.00  0.00    +0.000 C 
BRANCH  21  28
ATOM     22  C   UNL     1      -3.227  12.802  20.198  0.00  0.00    +0.000 C 
ATOM     23  C   UNL     1      -3.204  11.962  18.951  0.00  0.00    +0.000 C 
ATOM     24  C   UNL     1      -4.276  11.506  18.400  0.00  0.00    +0.000 C 
ATOM     25  C   UNL     1      -4.726  11.046  17.279  0.00  0.00    +0.000 C 
ATOM     26  C   UNL     1      -3.688  11.053  16.185  0.00  0.00    +0.000 C 
ATOM     27  C   UNL     1      -2.227  11.229  16.730  0.00  0.00    +0.000 C 
ATOM     28  N   UNL     1      -2.083  11.816  18.113  0.00  0.00    +0.000 N 
ENDBRANCH  21  28
ENDBRANCH   1  21
TORSDOF 4
ENDMDL
MODEL 3
REMARK VINA RESULT:      -8.3      3.326      8.194
REMARK  Name = 
REMARK  5 active torsions:
REMARK  status: ('A' for Active; 'I' for Inactive)
REMARK    1  A    between atoms: C_1  and  C_2
REMARK    2  A    between atoms: N_7  and  C_8
REMARK    3  A    between atoms: C_8  and  C_9
REMARK    4  A    between atoms: C_13  and  C_14
REMARK    5  A    between atoms: N_20  and  C_21
REMARK                            x       y       z     vdW  Elec       q    Type
REMARK                         _______ _______ _______ _____ _____    ______ ____
ROOT
ATOM      1  C   UNL     1       3.514   6.819  17.406  0.00  0.00    +0.000 A 
ATOM      2  C   UNL     1       2.954   8.091  17.609  0.00  0.00    +0.000 A 
ATOM      3  C   UNL     1       2.140   8.280  18.716  0.00  0.00    +0.000 A 
ATOM      4  C   UNL     1       1.861   7.262  19.622  0.00  0.00    +0.000 A 
ATOM      5  C   UNL     1       2.314   5.966  19.395  0.00  0.00    +0.000 A 
ATOM      6  C   UNL     1       3.119   5.754  18.255  0.00  0.00    +0.000 A 
ATOM      7  C   UNL     1       1.138   7.831  20.800  0.00  0.00    +0.000 C 
ATOM      8  N   UNL     1       0.948   9.229  20.451  0.00  0.00    +0.000 N 
ATOM      9  C   UNL     1       1.535   9.528  19.218  0.00  0.00    +0.000 C 
ATOM     10  O   UNL     1       1.611  10.575  18.601  0.00  0.00    +0.000 OA
ENDROOT
BRANCH   8  11
ATOM     11  C   UNL     1       0.223  10.118  21.294  0.00  0.00    +0.000 A 
ATOM     12  C   UNL     1       0.041  11.466  20.962  0.00  0.00    +0.000 A 
ATOM     13  C   UNL     1      -0.726  12.314  21.768  0.00  0.00    +0.000 A 
ATOM     14  C   UNL     1      -1.320  11.833  22.933  0.00  0.00    +0.000 A 
ATOM     15  C   UNL     1      -1.126  10.507  23.298  0.00  0.00    +0.000 A 
ATOM     16  C   UNL     1      -0.365   9.658  22.485  0.00  0.00    +0.000 A 
ENDBRANCH   8  11
BRANCH   5  17
ATOM     17  C   UNL     1       2.043   4.833  20.351  0.00  0.00    +0.000 C 
ATOM     18  F   UNL     1       2.492   5.064  21.615  0.00  0.00    +0.000 F 
ATOM     19  F   UNL     1       0.717   4.553  20.472  0.00  0.00    +0.000 F 
ATOM     20  F   UNL     1       2.638   3.674  19.956  0.00  0.00    +0.000 F 
ENDBRANCH   5  17
BRANCH   1  21
ATOM     21  C   UNL     1       4.671   6.619  16.435  0.00  0.00    +0.000 C 
BRANCH  21  28
ATOM     22  C   UNL     1       6.068   4.193  15.090  0.00  0.00    +0.000 C 
ATOM     23  C   UNL     1       6.382   4.737  16.457  0.00  0.00    +0.000 C 
ATOM     24  C   UNL     1       7.377   4.316  17.160  0.00  0.00    +0.000 C 
ATOM     25  C   UNL     1       8.136   4.656  18.149  0.00  0.00    +0.000 C 
ATOM     26  C   UNL     1       7.820   6.027  18.687  0.00  0.00    +0.000 C 
ATOM     27  C   UNL     1       6.421   6.560  18.216  0.00  0.00    +0.000 C 
ATOM     28  N   UNL     1       5.824   5.914  16.989  0.00  0.00    +0.000 N 
ENDBRANCH  21  28
ENDBRANCH   1  21
TORSDOF 4
ENDMDL
MODEL 4
REMARK VINA RESULT:      -8.3      0.532      1.393
REMARK  Name = 
REMARK  5 active torsions:
REMARK  status: ('A' for Active; 'I' for Inactive)
REMARK    1  A    between atoms: C_1  and  C_2
REMARK    2  A    between atoms: N_7  and  C_8
REMARK    3  A    between atoms: C_8  and  C_9
REMARK    4  A    between atoms: C_13  and  C_14
REMARK    5  A    between atoms: N_20  and  C_21
REMARK                            x       y       z     vdW  Elec       q    Type
REMARK                         _______ _______ _______ _____ _____    ______ ____
ROOT
ATOM      1  C   UNL     1       0.157  11.214  19.263  0.00  0.00    +0.000 A 
ATOM      2  C   UNL     1       0.984  10.318  18.566  0.00  0.00    +0.000 A 
ATOM      3  C   UNL     1       1.415   9.176  19.225  0.00  0.00    +0.000 A 
ATOM      4  C   UNL     1       1.063   8.893  20.541  0.00  0.00    +0.000 A 
ATOM      5  C   UNL     1       0.333   9.808  21.292  0.00  0.00    +0.000 A 
ATOM      6  C   UNL     1      -0.088  10.989  20.642  0.00  0.00    +0.000 A 
ATOM      7  C   UNL     1       1.507   7.508  20.887  0.00  0.00    +0.000 C 
ATOM      8  N   UNL     1       2.218   7.063  19.700  0.00  0.00    +0.000 N 
ATOM      9  C   UNL     1       2.179   8.032  18.693  0.00  0.00    +0.000 C 
ATOM     10  O   UNL     1       2.630   8.029  17.561  0.00  0.00    +0.000 OA
ENDROOT
BRANCH   8  11
ATOM     11  C   UNL     1       2.869   5.799  19.649  0.00  0.00    +0.000 A 
ATOM     12  C   UNL     1       2.177   4.603  19.872  0.00  0.00    +0.000 A 
ATOM     13  C   UNL     1       2.816   3.363  19.756  0.00  0.00    +0.000 A 
ATOM     14  C   UNL     1       4.167   3.294  19.425  0.00  0.00    +0.000 A 
ATOM     15  C   UNL     1       4.881   4.470  19.229  0.00  0.00    +0.000 A 
ATOM     16  C   UNL     1       4.237   5.709  19.337  0.00  0.00    +0.000 A 
ENDBRANCH   8  11
BRANCH   5  17
ATOM     17  C   UNL     1      -0.078   9.544  22.718  0.00  0.00    +0.000 C 
ATOM     18  F   UNL     1       0.968   9.276  23.548  0.00  0.00    +0.000 F 
ATOM     19  F   UNL     1      -0.738  10.593  23.278  0.00  0.00    +0.000 F 
ATOM     20  F   UNL     1      -0.913   8.474  22.823  0.00  0.00    +0.000 F 
ENDBRANCH   5  17
BRANCH   1  21
ATOM     21  C   UNL     1      -0.630  12.290  18.524  0.00  0.00    +0.000 C 
BRANCH  21  28
ATOM     22  C   UNL     1      -2.302  10.348  16.768  0.00  0.00    +0.000 C 
ATOM     23  C   UNL     1      -2.861  11.372  17.718  0.00  0.00    +0.000 C 
ATOM     24  C   UNL     1      -4.117  11.449  17.996  0.00  0.00    +0.000 C 
ATOM     25  C   UNL     1      -4.934  11.912  18.884  0.00  0.00    +0.000 C 
ATOM     26  C   UNL     1      -4.229  12.575  20.039  0.00  0.00    +0.000 C 
ATOM     27  C   UNL     1      -2.727  12.909  19.728  0.00  0.00    +0.000 C 
ATOM     28  N   UNL     1      -2.082  12.149  18.596  0.00  0.00    +0.000 N 
ENDBRANCH  21  28
ENDBRANCH   1  21
TORSDOF 4
ENDMDL
MODEL 5
REMARK VINA RESULT:      -8.3      0.523      1.807
REMARK  Name = 
REMARK  5 active torsions:
REMARK  status: ('A' for Active; 'I' for Inactive)
REMARK    1  A    between atoms: C_1  and  C_2
REMARK    2  A    between atoms: N_7  and  C_8
REMARK    3  A    between atoms: C_8  and  C_9
REMARK    4  A    between atoms: C_13  and  C_14
REMARK    5  A    between atoms: N_20  and  C_21
REMARK                            x       y       z     vdW  Elec       q    Type
REMARK                         _______ _______ _______ _____ _____    ______ ____
ROOT
ATOM      1  C   UNL     1       0.128  11.237  19.276  0.00  0.00    +0.000 A 
ATOM      2  C   UNL     1       0.957  10.345  18.577  0.00  0.00    +0.000 A 
ATOM      3  C   UNL     1       1.393   9.203  19.232  0.00  0.00    +0.000 A 
ATOM      4  C   UNL     1       1.042   8.915  20.547  0.00  0.00    +0.000 A 
ATOM      5  C   UNL     1       0.309   9.825  21.301  0.00  0.00    +0.000 A 
ATOM      6  C   UNL     1      -0.116  11.006  20.654  0.00  0.00    +0.000 A 
ATOM      7  C   UNL     1       1.491   7.531  20.889  0.00  0.00    +0.000 C 
ATOM      8  N   UNL     1       2.203   7.092  19.700  0.00  0.00    +0.000 N 
ATOM      9  C   UNL     1       2.161   8.064  18.696  0.00  0.00    +0.000 C 
ATOM     10  O   UNL     1       2.611   8.065  17.564  0.00  0.00    +0.000 OA
ENDROOT
BRANCH   8  11
ATOM     11  C   UNL     1       2.859   5.830  19.645  0.00  0.00    +0.000 A 
ATOM     12  C   UNL     1       4.156   5.693  19.136  0.00  0.00    +0.000 A 
ATOM     13  C   UNL     1       4.812   4.457  19.146  0.00  0.00    +0.000 A 
ATOM     14  C   UNL     1       4.178   3.326  19.656  0.00  0.00    +0.000 A 
ATOM     15  C   UNL     1       2.879   3.432  20.137  0.00  0.00    +0.000 A 
ATOM     16  C   UNL     1       2.228   4.672  20.135  0.00  0.00    +0.000 A 
ENDBRANCH   8  11
BRANCH   5  17
ATOM     17  C   UNL     1      -0.101   9.556  22.726  0.00  0.00    +0.000 C 
ATOM     18  F   UNL     1      -0.752  10.598  23.314  0.00  0.00    +0.000 F 
ATOM     19  F   UNL     1      -0.932   8.485  22.840  0.00  0.00    +0.000 F 
ATOM     20  F   UNL     1       0.967   9.291  23.527  0.00  0.00    +0.000 F 
ENDBRANCH   5  17
BRANCH   1  21
ATOM     21  C   UNL     1      -0.663  12.312  18.540  0.00  0.00    +0.000 C 
BRANCH  21  28
ATOM     22  C   UNL     1      -2.309  10.376  16.754  0.00  0.00    +0.000 C 
ATOM     23  C   UNL     1      -2.882  11.385  17.712  0.00  0.00    +0.000 C 
ATOM     24  C   UNL     1      -4.140  11.450  17.983  0.00  0.00    +0.000 C 
ATOM     25  C   UNL     1      -4.966  11.897  18.870  0.00  0.00    +0.000 C 
ATOM     26  C   UNL     1      -4.273  12.553  20.037  0.00  0.00    +0.000 C 
ATOM     27  C   UNL     1      -2.772  12.902  19.739  0.00  0.00    +0.000 C 
ATOM     28  N   UNL     1      -2.114  12.159  18.602  0.00  0.00    +0.000 N 
ENDBRANCH  21  28
ENDBRANCH   1  21
TORSDOF 4
ENDMDL
MODEL 6
REMARK VINA RESULT:      -8.2      0.838      1.899
REMARK  Name = 
REMARK  5 active torsions:
REMARK  status: ('A' for Active; 'I' for Inactive)
REMARK    1  A    between atoms: C_1  and  C_2
REMARK    2  A    between atoms: N_7  and  C_8
REMARK    3  A    between atoms: C_8  and  C_9
REMARK    4  A    between atoms: C_13  and  C_14
REMARK    5  A    between atoms: N_20  and  C_21
REMARK                            x       y       z     vdW  Elec       q    Type
REMARK                         _______ _______ _______ _____ _____    ______ ____
ROOT
ATOM      1  C   UNL     1       0.042  11.461  19.377  0.00  0.00    +0.000 A 
ATOM      2  C   UNL     1       0.832  10.681  18.516  0.00  0.00    +0.000 A 
ATOM      3  C   UNL     1       1.329   9.477  18.992  0.00  0.00    +0.000 A 
ATOM      4  C   UNL     1       1.076   9.020  20.282  0.00  0.00    +0.000 A 
ATOM      5  C   UNL     1       0.385   9.814  21.193  0.00  0.00    +0.000 A 
ATOM      6  C   UNL     1      -0.100  11.056  20.729  0.00  0.00    +0.000 A 
ATOM      7  C   UNL     1       1.567   7.615  20.417  0.00  0.00    +0.000 C 
ATOM      8  N   UNL     1       2.199   7.342  19.137  0.00  0.00    +0.000 N 
ATOM      9  C   UNL     1       2.072   8.430  18.267  0.00  0.00    +0.000 C 
ATOM     10  O   UNL     1       2.441   8.581  17.116  0.00  0.00    +0.000 OA
ENDROOT
BRANCH   8  11
ATOM     11  C   UNL     1       2.866   6.112  18.879  0.00  0.00    +0.000 A 
ATOM     12  C   UNL     1       4.104   5.808  19.458  0.00  0.00    +0.000 A 
ATOM     13  C   UNL     1       4.718   4.568  19.247  0.00  0.00    +0.000 A 
ATOM     14  C   UNL     1       4.111   3.609  18.440  0.00  0.00    +0.000 A 
ATOM     15  C   UNL     1       2.898   3.901  17.830  0.00  0.00    +0.000 A 
ATOM     16  C   UNL     1       2.281   5.138  18.051  0.00  0.00    +0.000 A 
ENDBRANCH   8  11
BRANCH   5  17
ATOM     17  C   UNL     1       0.081   9.361  22.597  0.00  0.00    +0.000 C 
ATOM     18  F   UNL     1      -0.751   8.284  22.656  0.00  0.00    +0.000 F 
ATOM     19  F   UNL     1       1.198   9.007  23.289  0.00  0.00    +0.000 F 
ATOM     20  F   UNL     1      -0.525  10.333  23.331  0.00  0.00    +0.000 F 
ENDBRANCH   5  17
BRANCH   1  21
ATOM     21  C   UNL     1      -0.813  12.600  18.837  0.00  0.00    +0.000 C 
BRANCH  21  28
ATOM     22  C   UNL     1      -2.526  10.576  17.220  0.00  0.00    +0.000 C 
ATOM     23  C   UNL     1      -3.059  11.602  18.183  0.00  0.00    +0.000 C 
ATOM     24  C   UNL     1      -4.298  11.647  18.534  0.00  0.00    +0.000 C 
ATOM     25  C   UNL     1      -5.075  12.104  19.460  0.00  0.00    +0.000 C 
ATOM     26  C   UNL     1      -4.323  12.810  20.559  0.00  0.00    +0.000 C 
ATOM     27  C   UNL     1      -2.854  13.182  20.153  0.00  0.00    +0.000 C 
ATOM     28  N   UNL     1      -2.253  12.418  18.998  0.00  0.00    +0.000 N 
ENDBRANCH  21  28
ENDBRANCH   1  21
TORSDOF 4
ENDMDL
MODEL 7
REMARK VINA RESULT:      -8.2      4.538      6.869
REMARK  Name = 
REMARK  5 active torsions:
REMARK  status: ('A' for Active; 'I' for Inactive)
REMARK    1  A    between atoms: C_1  and  C_2
REMARK    2  A    between atoms: N_7  and  C_8
REMARK    3  A    between atoms: C_8  and  C_9
REMARK    4  A    between atoms: C_13  and  C_14
REMARK    5  A    between atoms: N_20  and  C_21
REMARK                            x       y       z     vdW  Elec       q    Type
REMARK                         _______ _______ _______ _____ _____    ______ ____
ROOT
ATOM      1  C   UNL     1       3.044   5.731  19.583  0.00  0.00    +0.000 A 
ATOM      2  C   UNL     1       3.930   6.268  18.635  0.00  0.00    +0.000 A 
ATOM      3  C   UNL     1       4.399   5.437  17.630  0.00  0.00    +0.000 A 
ATOM      4  C   UNL     1       4.028   4.100  17.530  0.00  0.00    +0.000 A 
ATOM      5  C   UNL     1       3.235   3.509  18.510  0.00  0.00    +0.000 A 
ATOM      6  C   UNL     1       2.775   4.338  19.555  0.00  0.00    +0.000 A 
ATOM      7  C   UNL     1       4.529   3.540  16.238  0.00  0.00    +0.000 C 
ATOM      8  N   UNL     1       5.291   4.633  15.657  0.00  0.00    +0.000 N 
ATOM      9  C   UNL     1       5.230   5.776  16.460  0.00  0.00    +0.000 C 
ATOM     10  O   UNL     1       5.709   6.885  16.309  0.00  0.00    +0.000 OA
ENDROOT
BRANCH   8  11
ATOM     11  C   UNL     1       6.003   4.480  14.434  0.00  0.00    +0.000 A 
ATOM     12  C   UNL     1       5.539   3.648  13.408  0.00  0.00    +0.000 A 
ATOM     13  C   UNL     1       6.216   3.557  12.187  0.00  0.00    +0.000 A 
ATOM     14  C   UNL     1       7.381   4.288  11.970  0.00  0.00    +0.000 A 
ATOM     15  C   UNL     1       7.877   5.096  12.986  0.00  0.00    +0.000 A 
ATOM     16  C   UNL     1       7.192   5.193  14.203  0.00  0.00    +0.000 A 
ENDBRANCH   8  11
BRANCH   5  17
ATOM     17  C   UNL     1       2.802   2.067  18.442  0.00  0.00    +0.000 C 
ATOM     18  F   UNL     1       3.832   1.181  18.535  0.00  0.00    +0.000 F 
ATOM     19  F   UNL     1       1.933   1.733  19.434  0.00  0.00    +0.000 F 
ATOM     20  F   UNL     1       2.170   1.774  17.273  0.00  0.00    +0.000 F 
ENDBRANCH   5  17
BRANCH   1  21
ATOM     21  C   UNL     1       2.225   6.638  20.493  0.00  0.00    +0.000 C 
BRANCH  21  28
ATOM     22  C   UNL     1       1.015   9.041  22.045  0.00  0.00    +0.000 C 
ATOM     23  C   UNL     1       1.100   8.919  20.549  0.00  0.00    +0.000 C 
ATOM     24  C   UNL     1       0.790   9.885  19.754  0.00  0.00    +0.000 C 
ATOM     25  C   UNL     1       0.971  10.303  18.545  0.00  0.00    +0.000 C 
ATOM     26  C   UNL     1       1.884   9.408  17.746  0.00  0.00    +0.000 C 
ATOM     27  C   UNL     1       2.083   7.997  18.403  0.00  0.00    +0.000 C 
ATOM     28  N   UNL     1       1.768   7.880  19.874  0.00  0.00    +0.000 N 
ENDBRANCH  21  28
ENDBRANCH   1  21
TORSDOF 4
ENDMDL
MODEL 8
REMARK VINA RESULT:      -8.2      4.534      6.922
REMARK  Name = 
REMARK  5 active torsions:
REMARK  status: ('A' for Active; 'I' for Inactive)
REMARK    1  A    between atoms: C_1  and  C_2
REMARK    2  A    between atoms: N_7  and  C_8
REMARK    3  A    between atoms: C_8  and  C_9
REMARK    4  A    between atoms: C_13  and  C_14
REMARK    5  A    between atoms: N_20  and  C_21
REMARK                            x       y       z     vdW  Elec       q    Type
REMARK                         _______ _______ _______ _____ _____    ______ ____
ROOT
ATOM      1  C   UNL     1       3.046   5.752  19.592  0.00  0.00    +0.000 A 
ATOM      2  C   UNL     1       3.914   6.300  18.633  0.00  0.00    +0.000 A 
ATOM      3  C   UNL     1       4.377   5.474  17.620  0.00  0.00    +0.000 A 
ATOM      4  C   UNL     1       4.017   4.133  17.524  0.00  0.00    +0.000 A 
ATOM      5  C   UNL     1       3.244   3.533  18.513  0.00  0.00    +0.000 A 
ATOM      6  C   UNL     1       2.791   4.357  19.567  0.00  0.00    +0.000 A 
ATOM      7  C   UNL     1       4.505   3.580  16.224  0.00  0.00    +0.000 C 
ATOM      8  N   UNL     1       5.248   4.681  15.633  0.00  0.00    +0.000 N 
ATOM      9  C   UNL     1       5.188   5.823  16.438  0.00  0.00    +0.000 C 
ATOM     10  O   UNL     1       5.653   6.937  16.283  0.00  0.00    +0.000 OA
ENDROOT
BRANCH   8  11
ATOM     11  C   UNL     1       5.944   4.537  14.400  0.00  0.00    +0.000 A 
ATOM     12  C   UNL     1       7.155   5.194  14.155  0.00  0.00    +0.000 A 
ATOM     13  C   UNL     1       7.861   4.994  12.964  0.00  0.00    +0.000 A 
ATOM     14  C   UNL     1       7.362   4.138  11.983  0.00  0.00    +0.000 A 
ATOM     15  C   UNL     1       6.146   3.500  12.192  0.00  0.00    +0.000 A 
ATOM     16  C   UNL     1       5.447   3.695  13.390  0.00  0.00    +0.000 A 
ENDBRANCH   8  11
BRANCH   5  17
ATOM     17  C   UNL     1       2.824   2.088  18.450  0.00  0.00    +0.000 C 
ATOM     18  F   UNL     1       2.166   1.759  17.304  0.00  0.00    +0.000 F 
ATOM     19  F   UNL     1       3.876   1.230  18.534  0.00  0.00    +0.000 F 
ATOM     20  F   UNL     1       1.982   1.752  19.465  0.00  0.00    +0.000 F 
ENDBRANCH   5  17
BRANCH   1  21
ATOM     21  C   UNL     1       2.232   6.650  20.515  0.00  0.00    +0.000 C 
BRANCH  21  28
ATOM     22  C   UNL     1       1.053   9.051  22.094  0.00  0.00    +0.000 C 
ATOM     23  C   UNL     1       1.105   8.929  20.596  0.00  0.00    +0.000 C 
ATOM     24  C   UNL     1       0.776   9.895  19.808  0.00  0.00    +0.000 C 
ATOM     25  C   UNL     1       0.929  10.313  18.595  0.00  0.00    +0.000 C 
ATOM     26  C   UNL     1       1.825   9.419  17.776  0.00  0.00    +0.000 C 
ATOM     27  C   UNL     1       2.041   8.008  18.428  0.00  0.00    +0.000 C 
ATOM     28  N   UNL     1       1.760   7.891  19.907  0.00  0.00    +0.000 N 
ENDBRANCH  21  28
ENDBRANCH   1  21
TORSDOF 4
ENDMDL
MODEL 9
REMARK VINA RESULT:      -8.0      3.380      8.425
REMARK  Name = 
REMARK  5 active torsions:
REMARK  status: ('A' for Active; 'I' for Inactive)
REMARK    1  A    between atoms: C_1  and  C_2
REMARK    2  A    between atoms: N_7  and  C_8
REMARK    3  A    between atoms: C_8  and  C_9
REMARK    4  A    between atoms: C_13  and  C_14
REMARK    5  A    between atoms: N_20  and  C_21
REMARK                            x       y       z     vdW  Elec       q    Type
REMARK                         _______ _______ _______ _____ _____    ______ ____
ROOT
ATOM      1  C   UNL     1       3.909   3.786  17.730  0.00  0.00    +0.000 A 
ATOM      2  C   UNL     1       3.691   5.148  17.462  0.00  0.00    +0.000 A 
ATOM      3  C   UNL     1       2.902   5.872  18.343  0.00  0.00    +0.000 A 
ATOM      4  C   UNL     1       2.321   5.300  19.471  0.00  0.00    +0.000 A 
ATOM      5  C   UNL     1       2.430   3.933  19.709  0.00  0.00    +0.000 A 
ATOM      6  C   UNL     1       3.207   3.180  18.803  0.00  0.00    +0.000 A 
ATOM      7  C   UNL     1       1.714   6.374  20.315  0.00  0.00    +0.000 C 
ATOM      8  N   UNL     1       1.914   7.584  19.536  0.00  0.00    +0.000 N 
ATOM      9  C   UNL     1       2.620   7.319  18.359  0.00  0.00    +0.000 C 
ATOM     10  O   UNL     1       2.998   8.059  17.468  0.00  0.00    +0.000 OA
ENDROOT
BRANCH   8  11
ATOM     11  C   UNL     1       1.407   8.843  19.967  0.00  0.00    +0.000 A 
ATOM     12  C   UNL     1       1.130   9.875  19.063  0.00  0.00    +0.000 A 
ATOM     13  C   UNL     1       0.572  11.084  19.493  0.00  0.00    +0.000 A 
ATOM     14  C   UNL     1       0.290  11.291  20.842  0.00  0.00    +0.000 A 
ATOM     15  C   UNL     1       0.586  10.292  21.760  0.00  0.00    +0.000 A 
ATOM     16  C   UNL     1       1.135   9.079  21.326  0.00  0.00    +0.000 A 
ENDBRANCH   8  11
BRANCH   5  17
ATOM     17  C   UNL     1       1.825   3.270  20.919  0.00  0.00    +0.000 C 
ATOM     18  F   UNL     1       2.027   1.924  20.963  0.00  0.00    +0.000 F 
ATOM     19  F   UNL     1       2.318   3.758  22.089  0.00  0.00    +0.000 F 
ATOM     20  F   UNL     1       0.476   3.440  20.979  0.00  0.00    +0.000 F 
ENDBRANCH   5  17
BRANCH   1  21
ATOM     21  C   UNL     1       5.020   3.017  17.026  0.00  0.00    +0.000 C 
BRANCH  21  28
ATOM     22  C   UNL     1       7.584   4.625  17.726  0.00  0.00    +0.000 C 
ATOM     23  C   UNL     1       6.880   4.634  16.397  0.00  0.00    +0.000 C 
ATOM     24  C   UNL     1       7.365   5.223  15.358  0.00  0.00    +0.000 C 
ATOM     25  C   UNL     1       7.280   5.241  14.069  0.00  0.00    +0.000 C 
ATOM     26  C   UNL     1       6.319   4.212  13.531  0.00  0.00    +0.000 C 
ATOM     27  C   UNL     1       5.359   3.638  14.632  0.00  0.00    +0.000 C 
ATOM     28  N   UNL     1       5.797   3.798  16.067  0.00  0.00    +0.000 N 
ENDBRANCH  21  28
ENDBRANCH   1  21
TORSDOF 4
ENDMDL
