MODEL 1
REMARK VINA RESULT:      -8.5      0.000      0.000
REMARK  Name = 
REMARK  2 active torsions:
REMARK  status: ('A' for Active; 'I' for Inactive)
REMARK    1  A    between atoms: C_1  and  C_2
REMARK    2  A    between atoms: C_7  and  N_8
REMARK                            x       y       z     vdW  Elec       q    Type
REMARK                         _______ _______ _______ _____ _____    ______ ____
ROOT
ATOM      1  N   UNL     1       2.719   6.907  19.247  0.00  0.00    +0.000 N 
ATOM      2  C   UNL     1       1.923   8.000  18.949  0.00  0.00    +0.000 C 
ATOM      3  O   UNL     1       1.729   8.414  17.805  0.00  0.00    +0.000 OA
ATOM      4  N   UNL     1       1.313   8.669  20.009  0.00  0.00    +0.000 N 
ATOM      5  C   UNL     1       1.422   8.336  21.424  0.00  0.00    +0.000 C 
ATOM      6  C   UNL     1       0.713   9.231  22.458  0.00  0.00    +0.000 C 
ATOM      7  C   UNL     1      -0.204  10.301  21.943  0.00  0.00    +0.000 A 
ATOM      8  C   UNL     1      -0.956  11.078  22.836  0.00  0.00    +0.000 A 
ATOM      9  C   UNL     1      -1.790  12.101  22.372  0.00  0.00    +0.000 A 
ATOM     10  C   UNL     1      -1.877  12.360  21.011  0.00  0.00    +0.000 A 
ATOM     11  C   UNL     1      -1.131  11.595  20.120  0.00  0.00    +0.000 A 
ATOM     12  C   UNL     1      -0.292  10.560  20.579  0.00  0.00    +0.000 A 
ATOM     13  C   UNL     1       0.488   9.788  19.566  0.00  0.00    +0.000 C 
ATOM     14  H   UNL     1       2.844   6.667  20.215  0.00  0.00    +0.000 HD
ENDROOT
BRANCH   1  21
ATOM     15  C   UNL     1       7.332   5.035  13.954  0.00  0.00    +0.000 C 
ATOM     16  C   UNL     1       6.292   5.027  15.001  0.00  0.00    +0.000 A 
ATOM     17  N   UNL     1       5.550   4.008  15.381  0.00  0.00    +0.000 NA
ATOM     18  C   UNL     1       4.763   4.537  16.365  0.00  0.00    +0.000 A 
ATOM     19  C   UNL     1       3.780   3.941  17.143  0.00  0.00    +0.000 A 
ATOM     20  C   UNL     1       3.122   4.740  18.091  0.00  0.00    +0.000 A 
ATOM     21  C   UNL     1       3.409   6.106  18.283  0.00  0.00    +0.000 A 
ATOM     22  C   UNL     1       4.413   6.706  17.495  0.00  0.00    +0.000 A 
ATOM     23  C   UNL     1       5.052   5.879  16.558  0.00  0.00    +0.000 A 
ATOM     24  O   UNL     1       6.049   6.203  15.672  0.00  0.00    +0.000 OA
ENDBRANCH   1  21
TORSDOF 1
ENDMDL
MODEL 2
REMARK VINA RESULT:      -7.8      5.722      7.959
REMARK  Name = 
REMARK  2 active torsions:
REMARK  status: ('A' for Active; 'I' for Inactive)
REMARK    1  A    between atoms: C_1  and  C_2
REMARK    2  A    between atoms: C_7  and  N_8
REMARK                            x       y       z     vdW  Elec       q    Type
REMARK                         _______ _______ _______ _____ _____    ______ ____
ROOT
ATOM      1  N   UNL     1       6.931   8.301  17.251  0.00  0.00    +0.000 N 
ATOM      2  C   UNL     1       8.019   8.624  18.045  0.00  0.00    +0.000 C 
ATOM      3  O   UNL     1       8.625   7.808  18.741  0.00  0.00    +0.000 OA
ATOM      4  N   UNL     1       8.443   9.952  18.057  0.00  0.00    +0.000 N 
ATOM      5  C   UNL     1       7.858  11.058  17.310  0.00  0.00    +0.000 C 
ATOM      6  C   UNL     1       8.437  12.473  17.496  0.00  0.00    +0.000 C 
ATOM      7  C   UNL     1       9.692  12.613  18.305  0.00  0.00    +0.000 A 
ATOM      8  C   UNL     1      10.322  13.860  18.423  0.00  0.00    +0.000 A 
ATOM      9  C   UNL     1      11.475  14.013  19.200  0.00  0.00    +0.000 A 
ATOM     10  C   UNL     1      12.008  12.920  19.872  0.00  0.00    +0.000 A 
ATOM     11  C   UNL     1      11.385  11.681  19.762  0.00  0.00    +0.000 A 
ATOM     12  C   UNL     1      10.226  11.518  18.977  0.00  0.00    +0.000 A 
ATOM     13  C   UNL     1       9.605  10.161  18.916  0.00  0.00    +0.000 C 
ATOM     14  H   UNL     1       6.481   9.044  16.746  0.00  0.00    +0.000 HD
ENDROOT
BRANCH   1  21
ATOM     15  C   UNL     1       2.173   2.822  17.636  0.00  0.00    +0.000 C 
ATOM     16  C   UNL     1       3.372   3.649  17.394  0.00  0.00    +0.000 A 
ATOM     17  N   UNL     1       4.515   3.263  16.869  0.00  0.00    +0.000 NA
ATOM     18  C   UNL     1       5.269   4.403  16.873  0.00  0.00    +0.000 A 
ATOM     19  C   UNL     1       6.569   4.619  16.438  0.00  0.00    +0.000 A 
ATOM     20  C   UNL     1       7.096   5.913  16.568  0.00  0.00    +0.000 A 
ATOM     21  C   UNL     1       6.372   6.990  17.116  0.00  0.00    +0.000 A 
ATOM     22  C   UNL     1       5.049   6.768  17.551  0.00  0.00    +0.000 A 
ATOM     23  C   UNL     1       4.553   5.463  17.406  0.00  0.00    +0.000 A 
ATOM     24  O   UNL     1       3.315   4.978  17.746  0.00  0.00    +0.000 OA
ENDBRANCH   1  21
TORSDOF 1
ENDMDL
MODEL 3
REMARK VINA RESULT:      -7.7      2.147      9.004
REMARK  Name = 
REMARK  2 active torsions:
REMARK  status: ('A' for Active; 'I' for Inactive)
REMARK    1  A    between atoms: C_1  and  C_2
REMARK    2  A    between atoms: C_7  and  N_8
REMARK                            x       y       z     vdW  Elec       q    Type
REMARK                         _______ _______ _______ _____ _____    ______ ____
ROOT
ATOM      1  N   UNL     1       1.062   8.720  19.875  0.00  0.00    +0.000 N 
ATOM      2  C   UNL     1       1.901   8.650  18.776  0.00  0.00    +0.000 C 
ATOM      3  O   UNL     1       2.058   9.572  17.974  0.00  0.00    +0.000 OA
ATOM      4  N   UNL     1       2.601   7.463  18.567  0.00  0.00    +0.000 N 
ATOM      5  C   UNL     1       2.548   6.265  19.395  0.00  0.00    +0.000 C 
ATOM      6  C   UNL     1       3.358   5.026  18.970  0.00  0.00    +0.000 C 
ATOM      7  C   UNL     1       4.304   5.174  17.815  0.00  0.00    +0.000 A 
ATOM      8  C   UNL     1       5.143   4.112  17.448  0.00  0.00    +0.000 A 
ATOM      9  C   UNL     1       6.007   4.224  16.354  0.00  0.00    +0.000 A 
ATOM     10  C   UNL     1       6.038   5.398  15.612  0.00  0.00    +0.000 A 
ATOM     11  C   UNL     1       5.206   6.454  15.969  0.00  0.00    +0.000 A 
ATOM     12  C   UNL     1       4.336   6.350  17.072  0.00  0.00    +0.000 A 
ATOM     13  C   UNL     1       3.462   7.520  17.389  0.00  0.00    +0.000 C 
ATOM     14  H   UNL     1       0.975   7.901  20.453  0.00  0.00    +0.000 HD
ENDROOT
BRANCH   1  21
ATOM     15  C   UNL     1      -1.592  14.214  23.822  0.00  0.00    +0.000 C 
ATOM     16  C   UNL     1      -1.315  13.238  22.749  0.00  0.00    +0.000 A 
ATOM     17  N   UNL     1      -1.892  13.166  21.568  0.00  0.00    +0.000 NA
ATOM     18  C   UNL     1      -1.275  12.099  20.978  0.00  0.00    +0.000 A 
ATOM     19  C   UNL     1      -1.462  11.540  19.721  0.00  0.00    +0.000 A 
ATOM     20  C   UNL     1      -0.677  10.429  19.376  0.00  0.00    +0.000 A 
ATOM     21  C   UNL     1       0.280   9.861  20.241  0.00  0.00    +0.000 A 
ATOM     22  C   UNL     1       0.470  10.436  21.514  0.00  0.00    +0.000 A 
ATOM     23  C   UNL     1      -0.330  11.546  21.826  0.00  0.00    +0.000 A 
ATOM     24  O   UNL     1      -0.351  12.286  22.982  0.00  0.00    +0.000 OA
ENDBRANCH   1  21
TORSDOF 1
ENDMDL
MODEL 4
REMARK VINA RESULT:      -7.7      1.131      1.404
REMARK  Name = 
REMARK  2 active torsions:
REMARK  status: ('A' for Active; 'I' for Inactive)
REMARK    1  A    between atoms: C_1  and  C_2
REMARK    2  A    between atoms: C_7  and  N_8
REMARK                            x       y       z     vdW  Elec       q    Type
REMARK                         _______ _______ _______ _____ _____    ______ ____
ROOT
ATOM      1  N   UNL     1       2.023   7.269  20.408  0.00  0.00    +0.000 N 
ATOM      2  C   UNL     1       1.457   8.453  19.964  0.00  0.00    +0.000 C 
ATOM      3  O   UNL     1       1.564   8.873  18.812  0.00  0.00    +0.000 OA
ATOM      4  N   UNL     1       0.729   9.209  20.882  0.00  0.00    +0.000 N 
ATOM      5  C   UNL     1       0.492   8.884  22.283  0.00  0.00    +0.000 C 
ATOM      6  C   UNL     1      -0.297   9.877  23.156  0.00  0.00    +0.000 C 
ATOM      7  C   UNL     1      -0.937  11.050  22.474  0.00  0.00    +0.000 A 
ATOM      8  C   UNL     1      -1.753  11.931  23.200  0.00  0.00    +0.000 A 
ATOM      9  C   UNL     1      -2.330  13.047  22.585  0.00  0.00    +0.000 A 
ATOM     10  C   UNL     1      -2.094  13.297  21.240  0.00  0.00    +0.000 A 
ATOM     11  C   UNL     1      -1.282  12.429  20.516  0.00  0.00    +0.000 A 
ATOM     12  C   UNL     1      -0.701  11.301  21.127  0.00  0.00    +0.000 A 
ATOM     13  C   UNL     1       0.169  10.420  20.290  0.00  0.00    +0.000 C 
ATOM     14  H   UNL     1       1.908   7.028  21.377  0.00  0.00    +0.000 HD
ENDROOT
BRANCH   1  21
ATOM     15  C   UNL     1       6.018   4.757  14.883  0.00  0.00    +0.000 C 
ATOM     16  C   UNL     1       5.257   4.891  16.141  0.00  0.00    +0.000 A 
ATOM     17  N   UNL     1       5.041   3.960  17.045  0.00  0.00    +0.000 NA
ATOM     18  C   UNL     1       4.292   4.604  17.991  0.00  0.00    +0.000 A 
ATOM     19  C   UNL     1       3.763   4.135  19.185  0.00  0.00    +0.000 A 
ATOM     20  C   UNL     1       3.022   5.032  19.969  0.00  0.00    +0.000 A 
ATOM     21  C   UNL     1       2.791   6.372  19.600  0.00  0.00    +0.000 A 
ATOM     22  C   UNL     1       3.336   6.846  18.389  0.00  0.00    +0.000 A 
ATOM     23  C   UNL     1       4.072   5.923  17.630  0.00  0.00    +0.000 A 
ATOM     24  O   UNL     1       4.701   6.117  16.425  0.00  0.00    +0.000 OA
ENDBRANCH   1  21
TORSDOF 1
ENDMDL
MODEL 5
REMARK VINA RESULT:      -7.5      1.854      8.847
REMARK  Name = 
REMARK  2 active torsions:
REMARK  status: ('A' for Active; 'I' for Inactive)
REMARK    1  A    between atoms: C_1  and  C_2
REMARK    2  A    between atoms: C_7  and  N_8
REMARK                            x       y       z     vdW  Elec       q    Type
REMARK                         _______ _______ _______ _____ _____    ______ ____
ROOT
ATOM      1  N   UNL     1       1.297   7.891  20.421  0.00  0.00    +0.000 N 
ATOM      2  C   UNL     1       2.082   8.040  19.289  0.00  0.00    +0.000 C 
ATOM      3  O   UNL     1       2.250   9.113  18.709  0.00  0.00    +0.000 OA
ATOM      4  N   UNL     1       2.711   6.904  18.782  0.00  0.00    +0.000 N 
ATOM      5  C   UNL     1       2.634   5.552  19.321  0.00  0.00    +0.000 C 
ATOM      6  C   UNL     1       3.361   4.412  18.585  0.00  0.00    +0.000 C 
ATOM      7  C   UNL     1       4.262   4.781  17.444  0.00  0.00    +0.000 A 
ATOM      8  C   UNL     1       5.029   3.797  16.802  0.00  0.00    +0.000 A 
ATOM      9  C   UNL     1       5.849   4.120  15.716  0.00  0.00    +0.000 A 
ATOM     10  C   UNL     1       5.906   5.430  15.256  0.00  0.00    +0.000 A 
ATOM     11  C   UNL     1       5.145   6.409  15.886  0.00  0.00    +0.000 A 
ATOM     12  C   UNL     1       4.320   6.092  16.984  0.00  0.00    +0.000 A 
ATOM     13  C   UNL     1       3.521   7.193  17.602  0.00  0.00    +0.000 C 
ATOM     14  H   UNL     1       1.194   6.967  20.803  0.00  0.00    +0.000 HD
ENDROOT
BRANCH   1  21
ATOM     15  C   UNL     1      -2.589  13.958  21.368  0.00  0.00    +0.000 C 
ATOM     16  C   UNL     1      -1.815  12.718  21.578  0.00  0.00    +0.000 A 
ATOM     17  N   UNL     1      -1.502  12.159  22.727  0.00  0.00    +0.000 NA
ATOM     18  C   UNL     1      -0.791  11.052  22.358  0.00  0.00    +0.000 A 
ATOM     19  C   UNL     1      -0.199  10.067  23.137  0.00  0.00    +0.000 A 
ATOM     20  C   UNL     1       0.480   9.031  22.477  0.00  0.00    +0.000 A 
ATOM     21  C   UNL     1       0.590   8.949  21.075  0.00  0.00    +0.000 A 
ATOM     22  C   UNL     1      -0.018   9.949  20.287  0.00  0.00    +0.000 A 
ATOM     23  C   UNL     1      -0.690  10.968  20.979  0.00  0.00    +0.000 A 
ATOM     24  O   UNL     1      -1.358  12.052  20.465  0.00  0.00    +0.000 OA
ENDBRANCH   1  21
TORSDOF 1
ENDMDL
MODEL 6
REMARK VINA RESULT:      -7.4      3.304      8.322
REMARK  Name = 
REMARK  2 active torsions:
REMARK  status: ('A' for Active; 'I' for Inactive)
REMARK    1  A    between atoms: C_1  and  C_2
REMARK    2  A    between atoms: C_7  and  N_8
REMARK                            x       y       z     vdW  Elec       q    Type
REMARK                         _______ _______ _______ _____ _____    ______ ____
ROOT
ATOM      1  N   UNL     1       1.637   9.740  18.512  0.00  0.00    +0.000 N 
ATOM      2  C   UNL     1       1.516   8.773  19.496  0.00  0.00    +0.000 C 
ATOM      3  O   UNL     1       0.923   8.950  20.561  0.00  0.00    +0.000 OA
ATOM      4  N   UNL     1       2.106   7.531  19.263  0.00  0.00    +0.000 N 
ATOM      5  C   UNL     1       2.849   7.131  18.075  0.00  0.00    +0.000 C 
ATOM      6  C   UNL     1       3.476   5.726  18.025  0.00  0.00    +0.000 C 
ATOM      7  C   UNL     1       3.140   4.772  19.132  0.00  0.00    +0.000 A 
ATOM      8  C   UNL     1       3.597   3.446  19.087  0.00  0.00    +0.000 A 
ATOM      9  C   UNL     1       3.318   2.554  20.128  0.00  0.00    +0.000 A 
ATOM     10  C   UNL     1       2.583   2.979  21.227  0.00  0.00    +0.000 A 
ATOM     11  C   UNL     1       2.130   4.293  21.279  0.00  0.00    +0.000 A 
ATOM     12  C   UNL     1       2.403   5.197  20.233  0.00  0.00    +0.000 A 
ATOM     13  C   UNL     1       1.895   6.596  20.363  0.00  0.00    +0.000 C 
ATOM     14  H   UNL     1       2.170   9.511  17.691  0.00  0.00    +0.000 HD
ENDROOT
BRANCH   1  21
ATOM     15  C   UNL     1       1.276  16.986  18.928  0.00  0.00    +0.000 C 
ATOM     16  C   UNL     1       0.948  15.548  18.846  0.00  0.00    +0.000 A 
ATOM     17  N   UNL     1      -0.250  15.003  18.831  0.00  0.00    +0.000 NA
ATOM     18  C   UNL     1       0.011  13.664  18.747  0.00  0.00    +0.000 A 
ATOM     19  C   UNL     1      -0.859  12.584  18.693  0.00  0.00    +0.000 A 
ATOM     20  C   UNL     1      -0.302  11.299  18.611  0.00  0.00    +0.000 A 
ATOM     21  C   UNL     1       1.087  11.059  18.584  0.00  0.00    +0.000 A 
ATOM     22  C   UNL     1       1.967  12.160  18.633  0.00  0.00    +0.000 A 
ATOM     23  C   UNL     1       1.376  13.430  18.713  0.00  0.00    +0.000 A 
ATOM     24  O   UNL     1       1.992  14.656  18.776  0.00  0.00    +0.000 OA
ENDBRANCH   1  21
TORSDOF 1
ENDMDL
MODEL 7
REMARK VINA RESULT:      -7.4      3.076      8.415
REMARK  Name = 
REMARK  2 active torsions:
REMARK  status: ('A' for Active; 'I' for Inactive)
REMARK    1  A    between atoms: C_1  and  C_2
REMARK    2  A    between atoms: C_7  and  N_8
REMARK                            x       y       z     vdW  Elec       q    Type
REMARK                         _______ _______ _______ _____ _____    ______ ____
ROOT
ATOM      1  N   UNL     1       1.152   9.880  19.455  0.00  0.00    +0.000 N 
ATOM      2  C   UNL     1       1.829   9.056  18.571  0.00  0.00    +0.000 C 
ATOM      3  O   UNL     1       2.196   9.408  17.450  0.00  0.00    +0.000 OA
ATOM      4  N   UNL     1       2.104   7.751  18.980  0.00  0.00    +0.000 N 
ATOM      5  C   UNL     1       1.752   7.148  20.259  0.00  0.00    +0.000 C 
ATOM      6  C   UNL     1       2.095   5.668  20.507  0.00  0.00    +0.000 C 
ATOM      7  C   UNL     1       2.937   4.966  19.482  0.00  0.00    +0.000 A 
ATOM      8  C   UNL     1       3.368   3.650  19.703  0.00  0.00    +0.000 A 
ATOM      9  C   UNL     1       4.127   2.972  18.743  0.00  0.00    +0.000 A 
ATOM     10  C   UNL     1       4.458   3.601  17.550  0.00  0.00    +0.000 A 
ATOM     11  C   UNL     1       4.030   4.906  17.324  0.00  0.00    +0.000 A 
ATOM     12  C   UNL     1       3.270   5.597  18.288  0.00  0.00    +0.000 A 
ATOM     13  C   UNL     1       2.835   6.990  17.971  0.00  0.00    +0.000 C 
ATOM     14  H   UNL     1       0.864   9.489  20.335  0.00  0.00    +0.000 HD
ENDROOT
BRANCH   1  21
ATOM     15  C   UNL     1       1.683  17.113  18.999  0.00  0.00    +0.000 C 
ATOM     16  C   UNL     1       1.204  15.716  18.951  0.00  0.00    +0.000 A 
ATOM     17  N   UNL     1       0.017  15.293  18.575  0.00  0.00    +0.000 NA
ATOM     18  C   UNL     1       0.102  13.937  18.721  0.00  0.00    +0.000 A 
ATOM     19  C   UNL     1      -0.841  12.948  18.475  0.00  0.00    +0.000 A 
ATOM     20  C   UNL     1      -0.472  11.617  18.719  0.00  0.00    +0.000 A 
ATOM     21  C   UNL     1       0.799  11.243  19.200  0.00  0.00    +0.000 A 
ATOM     22  C   UNL     1       1.756  12.249  19.442  0.00  0.00    +0.000 A 
ATOM     23  C   UNL     1       1.355  13.570  19.186  0.00  0.00    +0.000 A 
ATOM     24  O   UNL     1       2.078  14.727  19.337  0.00  0.00    +0.000 OA
ENDBRANCH   1  21
TORSDOF 1
ENDMDL
MODEL 8
REMARK VINA RESULT:      -7.3      1.049      1.758
REMARK  Name = 
REMARK  2 active torsions:
REMARK  status: ('A' for Active; 'I' for Inactive)
REMARK    1  A    between atoms: C_1  and  C_2
REMARK    2  A    between atoms: C_7  and  N_8
REMARK                            x       y       z     vdW  Elec       q    Type
REMARK                         _______ _______ _______ _____ _____    ______ ____
ROOT
ATOM      1  N   UNL     1       2.861   7.786  17.966  0.00  0.00    +0.000 N 
ATOM      2  C   UNL     1       2.210   7.727  19.186  0.00  0.00    +0.000 C 
ATOM      3  O   UNL     1       2.248   6.751  19.937  0.00  0.00    +0.000 OA
ATOM      4  N   UNL     1       1.466   8.839  19.581  0.00  0.00    +0.000 N 
ATOM      5  C   UNL     1       1.297  10.080  18.836  0.00  0.00    +0.000 C 
ATOM      6  C   UNL     1       0.388  11.180  19.415  0.00  0.00    +0.000 C 
ATOM      7  C   UNL     1      -0.139  10.989  20.806  0.00  0.00    +0.000 A 
ATOM      8  C   UNL     1      -0.886  12.002  21.425  0.00  0.00    +0.000 A 
ATOM      9  C   UNL     1      -1.411  11.825  22.709  0.00  0.00    +0.000 A 
ATOM     10  C   UNL     1      -1.199  10.632  23.387  0.00  0.00    +0.000 A 
ATOM     11  C   UNL     1      -0.462   9.622  22.777  0.00  0.00    +0.000 A 
ATOM     12  C   UNL     1       0.074   9.794  21.486  0.00  0.00    +0.000 A 
ATOM     13  C   UNL     1       0.845   8.661  20.889  0.00  0.00    +0.000 C 
ATOM     14  H   UNL     1       2.742   8.614  17.408  0.00  0.00    +0.000 HD
ENDROOT
BRANCH   1  21
ATOM     15  C   UNL     1       7.546   4.342  13.608  0.00  0.00    +0.000 C 
ATOM     16  C   UNL     1       6.578   4.680  14.670  0.00  0.00    +0.000 A 
ATOM     17  N   UNL     1       6.097   3.878  15.595  0.00  0.00    +0.000 NA
ATOM     18  C   UNL     1       5.255   4.684  16.308  0.00  0.00    +0.000 A 
ATOM     19  C   UNL     1       4.462   4.398  17.412  0.00  0.00    +0.000 A 
ATOM     20  C   UNL     1       3.684   5.437  17.945  0.00  0.00    +0.000 A 
ATOM     21  C   UNL     1       3.670   6.743  17.415  0.00  0.00    +0.000 A 
ATOM     22  C   UNL     1       4.482   7.030  16.298  0.00  0.00    +0.000 A 
ATOM     23  C   UNL     1       5.248   5.969  15.791  0.00  0.00    +0.000 A 
ATOM     24  O   UNL     1       6.110   5.973  14.722  0.00  0.00    +0.000 OA
ENDBRANCH   1  21
TORSDOF 1
ENDMDL
MODEL 9
REMARK VINA RESULT:      -7.3      2.053      3.096
REMARK  Name = 
REMARK  2 active torsions:
REMARK  status: ('A' for Active; 'I' for Inactive)
REMARK    1  A    between atoms: C_1  and  C_2
REMARK    2  A    between atoms: C_7  and  N_8
REMARK                            x       y       z     vdW  Elec       q    Type
REMARK                         _______ _______ _______ _____ _____    ______ ____
ROOT
ATOM      1  N   UNL     1       1.823   8.439  18.439  0.00  0.00    +0.000 N 
ATOM      2  C   UNL     1       1.337   8.795  19.686  0.00  0.00    +0.000 C 
ATOM      3  O   UNL     1       1.506   8.124  20.704  0.00  0.00    +0.000 OA
ATOM      4  N   UNL     1       0.612   9.982  19.785  0.00  0.00    +0.000 N 
ATOM      5  C   UNL     1       0.304  10.907  18.701  0.00  0.00    +0.000 C 
ATOM      6  C   UNL     1      -0.561  12.145  18.999  0.00  0.00    +0.000 C 
ATOM      7  C   UNL     1      -0.897  12.433  20.433  0.00  0.00    +0.000 A 
ATOM      8  C   UNL     1      -1.593  13.601  20.775  0.00  0.00    +0.000 A 
ATOM      9  C   UNL     1      -1.942  13.867  22.103  0.00  0.00    +0.000 A 
ATOM     10  C   UNL     1      -1.602  12.965  23.103  0.00  0.00    +0.000 A 
ATOM     11  C   UNL     1      -0.914  11.803  22.769  0.00  0.00    +0.000 A 
ATOM     12  C   UNL     1      -0.556  11.530  21.434  0.00  0.00    +0.000 A 
ATOM     13  C   UNL     1       0.171  10.256  21.149  0.00  0.00    +0.000 C 
ATOM     14  H   UNL     1       1.603   9.035  17.660  0.00  0.00    +0.000 HD
ENDROOT
BRANCH   1  21
ATOM     15  C   UNL     1       3.743   1.437  18.141  0.00  0.00    +0.000 C 
ATOM     16  C   UNL     1       3.709   2.908  18.019  0.00  0.00    +0.000 A 
ATOM     17  N   UNL     1       4.634   3.686  17.499  0.00  0.00    +0.000 NA
ATOM     18  C   UNL     1       4.107   4.940  17.637  0.00  0.00    +0.000 A 
ATOM     19  C   UNL     1       4.625   6.175  17.268  0.00  0.00    +0.000 A 
ATOM     20  C   UNL     1       3.853   7.315  17.538  0.00  0.00    +0.000 A 
ATOM     21  C   UNL     1       2.591   7.263  18.162  0.00  0.00    +0.000 A 
ATOM     22  C   UNL     1       2.065   6.007  18.528  0.00  0.00    +0.000 A 
ATOM     23  C   UNL     1       2.863   4.888  18.243  0.00  0.00    +0.000 A 
ATOM     24  O   UNL     1       2.597   3.564  18.493  0.00  0.00    +0.000 OA
ENDBRANCH   1  21
TORSDOF 1
ENDMDL
