MODEL 1
REMARK VINA RESULT:      -8.5      0.000      0.000
REMARK  Name = 
REMARK  4 active torsions:
REMARK  status: ('A' for Active; 'I' for Inactive)
REMARK    1  A    between atoms: N_3  and  C_4
REMARK    2  A    between atoms: C_4  and  C_5
REMARK    3  A    between atoms: C_5  and  C_6
REMARK    4  A    between atoms: N_15  and  C_16
REMARK                            x       y       z     vdW  Elec       q    Type
REMARK                         _______ _______ _______ _____ _____    ______ ____
ROOT
ATOM      1  O   UNL     1       8.343   7.169  18.871  0.00  0.00    +0.000 OA
ATOM      2  C   UNL     1       7.788   7.691  17.916  0.00  0.00    +0.000 C 
ATOM      3  N   UNL     1       7.038   6.955  17.026  0.00  0.00    +0.000 N 
ATOM      4  N   UNL     1       7.834   9.026  17.560  0.00  0.00    +0.000 N 
ATOM      5  H   UNL     1       6.445   7.451  16.379  0.00  0.00    +0.000 HD
ATOM      6  H   UNL     1       7.292   9.290  16.754  0.00  0.00    +0.000 HD
ENDROOT
BRANCH   4   7
ATOM      7  C   UNL     1       8.537  10.065  18.212  0.00  0.00    +0.000 A 
ATOM      8  C   UNL     1       9.281   9.877  19.377  0.00  0.00    +0.000 A 
ATOM      9  C   UNL     1       9.877  10.943  20.061  0.00  0.00    +0.000 A 
ATOM     10  C   UNL     1       9.725  12.212  19.507  0.00  0.00    +0.000 A 
ATOM     11  N   UNL     1      10.106  13.450  19.952  0.00  0.00    +0.000 N 
ATOM     12  N   UNL     1       9.878  14.439  19.071  0.00  0.00    +0.000 NA
ATOM     13  C   UNL     1       9.261  13.817  18.061  0.00  0.00    +0.000 A 
ATOM     14  C   UNL     1       9.080  12.438  18.302  0.00  0.00    +0.000 A 
ATOM     15  C   UNL     1       8.458  11.353  17.642  0.00  0.00    +0.000 A 
ATOM     16  H   UNL     1      10.522  13.685  20.842  0.00  0.00    +0.000 HD
ENDBRANCH   4   7
BRANCH   3  17
ATOM     17  C   UNL     1       6.914   5.513  17.180  0.00  0.00    +0.000 C 
BRANCH  17  18
ATOM     18  C   UNL     1       5.867   4.934  16.214  0.00  0.00    +0.000 C 
ATOM     19  C   UNL     1       6.283   3.658  15.370  0.00  0.00    +0.000 C 
ATOM     20  C   UNL     1       5.496   4.259  14.192  0.00  0.00    +0.000 C 
ATOM     21  C   UNL     1       5.760   5.651  14.807  0.00  0.00    +0.000 C 
BRANCH  18  22
ATOM     22  C   UNL     1       4.449   4.777  17.022  0.00  0.00    +0.000 A 
ATOM     23  C   UNL     1       3.745   5.889  17.535  0.00  0.00    +0.000 A 
ATOM     24  C   UNL     1       2.497   5.757  18.153  0.00  0.00    +0.000 A 
ATOM     25  C   UNL     1       1.914   4.503  18.294  0.00  0.00    +0.000 A 
ATOM     26  C   UNL     1       2.591   3.378  17.834  0.00  0.00    +0.000 A 
ATOM     27  C   UNL     1       3.842   3.520  17.223  0.00  0.00    +0.000 A 
ENDBRANCH  18  22
ENDBRANCH  17  18
ENDBRANCH   3  17
TORSDOF 4
ENDMDL
MODEL 2
REMARK VINA RESULT:      -8.4      5.482      7.401
REMARK  Name = 
REMARK  4 active torsions:
REMARK  status: ('A' for Active; 'I' for Inactive)
REMARK    1  A    between atoms: N_3  and  C_4
REMARK    2  A    between atoms: C_4  and  C_5
REMARK    3  A    between atoms: C_5  and  C_6
REMARK    4  A    between atoms: N_15  and  C_16
REMARK                            x       y       z     vdW  Elec       q    Type
REMARK                         _______ _______ _______ _____ _____    ______ ____
ROOT
ATOM      1  O   UNL     1       1.426   5.916  20.717  0.00  0.00    +0.000 OA
ATOM      2  C   UNL     1       2.251   6.560  20.088  0.00  0.00    +0.000 C 
ATOM      3  N   UNL     1       3.399   5.980  19.596  0.00  0.00    +0.000 N 
ATOM      4  N   UNL     1       2.200   7.912  19.798  0.00  0.00    +0.000 N 
ATOM      5  H   UNL     1       3.943   6.497  18.923  0.00  0.00    +0.000 HD
ATOM      6  H   UNL     1       2.956   8.275  19.242  0.00  0.00    +0.000 HD
ENDROOT
BRANCH   4   7
ATOM      7  C   UNL     1       1.196   8.833  20.175  0.00  0.00    +0.000 A 
ATOM      8  C   UNL     1       0.561   9.688  19.276  0.00  0.00    +0.000 A 
ATOM      9  C   UNL     1      -0.351  10.666  19.694  0.00  0.00    +0.000 A 
ATOM     10  C   UNL     1      -0.627  10.729  21.058  0.00  0.00    +0.000 A 
ATOM     11  N   UNL     1      -1.393  11.596  21.791  0.00  0.00    +0.000 N 
ATOM     12  N   UNL     1      -1.506  11.259  23.087  0.00  0.00    +0.000 NA
ATOM     13  C   UNL     1      -0.723  10.181  23.195  0.00  0.00    +0.000 A 
ATOM     14  C   UNL     1      -0.097   9.839  21.978  0.00  0.00    +0.000 A 
ATOM     15  C   UNL     1       0.845   8.879  21.541  0.00  0.00    +0.000 A 
ATOM     16  H   UNL     1      -1.860  12.431  21.468  0.00  0.00    +0.000 HD
ENDBRANCH   4   7
BRANCH   3  17
ATOM     17  C   UNL     1       3.682   4.575  19.847  0.00  0.00    +0.000 C 
BRANCH  17  18
ATOM     18  C   UNL     1       3.607   3.747  18.552  0.00  0.00    +0.000 C 
ATOM     19  C   UNL     1       2.203   3.669  17.820  0.00  0.00    +0.000 C 
ATOM     20  C   UNL     1       2.529   2.201  17.492  0.00  0.00    +0.000 C 
ATOM     21  C   UNL     1       3.432   2.186  18.744  0.00  0.00    +0.000 C 
BRANCH  18  22
ATOM     22  C   UNL     1       4.853   4.192  17.582  0.00  0.00    +0.000 A 
ATOM     23  C   UNL     1       6.167   4.357  18.070  0.00  0.00    +0.000 A 
ATOM     24  C   UNL     1       7.240   4.658  17.224  0.00  0.00    +0.000 A 
ATOM     25  C   UNL     1       7.033   4.820  15.859  0.00  0.00    +0.000 A 
ATOM     26  C   UNL     1       5.746   4.701  15.344  0.00  0.00    +0.000 A 
ATOM     27  C   UNL     1       4.678   4.406  16.199  0.00  0.00    +0.000 A 
ENDBRANCH  18  22
ENDBRANCH  17  18
ENDBRANCH   3  17
TORSDOF 4
ENDMDL
MODEL 3
REMARK VINA RESULT:      -8.4      5.264      7.431
REMARK  Name = 
REMARK  4 active torsions:
REMARK  status: ('A' for Active; 'I' for Inactive)
REMARK    1  A    between atoms: N_3  and  C_4
REMARK    2  A    between atoms: C_4  and  C_5
REMARK    3  A    between atoms: C_5  and  C_6
REMARK    4  A    between atoms: N_15  and  C_16
REMARK                            x       y       z     vdW  Elec       q    Type
REMARK                         _______ _______ _______ _____ _____    ______ ____
ROOT
ATOM      1  O   UNL     1       1.050   5.736  20.516  0.00  0.00    +0.000 OA
ATOM      2  C   UNL     1       2.084   6.356  20.315  0.00  0.00    +0.000 C 
ATOM      3  N   UNL     1       3.281   5.713  20.094  0.00  0.00    +0.000 N 
ATOM      4  N   UNL     1       2.235   7.731  20.302  0.00  0.00    +0.000 N 
ATOM      5  H   UNL     1       4.054   6.255  19.740  0.00  0.00    +0.000 HD
ATOM      6  H   UNL     1       3.158   8.074  20.092  0.00  0.00    +0.000 HD
ENDROOT
BRANCH   4   7
ATOM      7  C   UNL     1       1.237   8.707  20.530  0.00  0.00    +0.000 A 
ATOM      8  C   UNL     1       0.714   9.519  19.525  0.00  0.00    +0.000 A 
ATOM      9  C   UNL     1      -0.194  10.551  19.798  0.00  0.00    +0.000 A 
ATOM     10  C   UNL     1      -0.584  10.713  21.126  0.00  0.00    +0.000 A 
ATOM     11  N   UNL     1      -1.378  11.650  21.732  0.00  0.00    +0.000 N 
ATOM     12  N   UNL     1      -1.614  11.404  23.032  0.00  0.00    +0.000 NA
ATOM     13  C   UNL     1      -0.884  10.312  23.277  0.00  0.00    +0.000 A 
ATOM     14  C   UNL     1      -0.168   9.870  22.144  0.00  0.00    +0.000 A 
ATOM     15  C   UNL     1       0.772   8.854  21.854  0.00  0.00    +0.000 A 
ATOM     16  H   UNL     1      -1.784  12.476  21.317  0.00  0.00    +0.000 HD
ENDBRANCH   4   7
BRANCH   3  17
ATOM     17  C   UNL     1       3.357   4.260  20.131  0.00  0.00    +0.000 C 
BRANCH  17  18
ATOM     18  C   UNL     1       3.472   3.668  18.716  0.00  0.00    +0.000 C 
ATOM     19  C   UNL     1       2.135   3.524  17.877  0.00  0.00    +0.000 C 
ATOM     20  C   UNL     1       2.693   2.194  17.337  0.00  0.00    +0.000 C 
ATOM     21  C   UNL     1       3.524   2.089  18.634  0.00  0.00    +0.000 C 
BRANCH  18  22
ATOM     22  C   UNL     1       4.684   4.444  17.929  0.00  0.00    +0.000 A 
ATOM     23  C   UNL     1       4.448   5.277  16.814  0.00  0.00    +0.000 A 
ATOM     24  C   UNL     1       5.475   6.000  16.196  0.00  0.00    +0.000 A 
ATOM     25  C   UNL     1       6.780   5.902  16.664  0.00  0.00    +0.000 A 
ATOM     26  C   UNL     1       7.060   5.064  17.739  0.00  0.00    +0.000 A 
ATOM     27  C   UNL     1       6.027   4.340  18.346  0.00  0.00    +0.000 A 
ENDBRANCH  18  22
ENDBRANCH  17  18
ENDBRANCH   3  17
TORSDOF 4
ENDMDL
MODEL 4
REMARK VINA RESULT:      -8.3      5.248      6.774
REMARK  Name = 
REMARK  4 active torsions:
REMARK  status: ('A' for Active; 'I' for Inactive)
REMARK    1  A    between atoms: N_3  and  C_4
REMARK    2  A    between atoms: C_4  and  C_5
REMARK    3  A    between atoms: C_5  and  C_6
REMARK    4  A    between atoms: N_15  and  C_16
REMARK                            x       y       z     vdW  Elec       q    Type
REMARK                         _______ _______ _______ _____ _____    ______ ____
ROOT
ATOM      1  O   UNL     1       1.852   7.845  20.089  0.00  0.00    +0.000 OA
ATOM      2  C   UNL     1       2.141   7.885  18.902  0.00  0.00    +0.000 C 
ATOM      3  N   UNL     1       2.931   6.921  18.317  0.00  0.00    +0.000 N 
ATOM      4  N   UNL     1       1.774   8.861  17.994  0.00  0.00    +0.000 N 
ATOM      5  H   UNL     1       2.976   6.889  17.311  0.00  0.00    +0.000 HD
ATOM      6  H   UNL     1       2.079   8.722  17.045  0.00  0.00    +0.000 HD
ENDROOT
BRANCH   4   7
ATOM      7  C   UNL     1       1.003  10.020  18.243  0.00  0.00    +0.000 A 
ATOM      8  C   UNL     1      -0.392  10.034  18.225  0.00  0.00    +0.000 A 
ATOM      9  C   UNL     1      -1.127  11.217  18.367  0.00  0.00    +0.000 A 
ATOM     10  C   UNL     1      -0.403  12.390  18.566  0.00  0.00    +0.000 A 
ATOM     11  N   UNL     1      -0.799  13.698  18.663  0.00  0.00    +0.000 N 
ATOM     12  N   UNL     1       0.196  14.546  18.970  0.00  0.00    +0.000 NA
ATOM     13  C   UNL     1       1.276  13.759  18.997  0.00  0.00    +0.000 A 
ATOM     14  C   UNL     1       0.977  12.414  18.690  0.00  0.00    +0.000 A 
ATOM     15  C   UNL     1       1.704  11.215  18.512  0.00  0.00    +0.000 A 
ATOM     16  H   UNL     1      -1.727  14.073  18.528  0.00  0.00    +0.000 HD
ENDBRANCH   4   7
BRANCH   3  17
ATOM     17  C   UNL     1       3.481   5.834  19.114  0.00  0.00    +0.000 C 
BRANCH  17  18
ATOM     18  C   UNL     1       3.499   4.514  18.325  0.00  0.00    +0.000 C 
ATOM     19  C   UNL     1       2.165   4.094  17.579  0.00  0.00    +0.000 C 
ATOM     20  C   UNL     1       2.479   2.639  17.974  0.00  0.00    +0.000 C 
ATOM     21  C   UNL     1       3.266   3.201  19.177  0.00  0.00    +0.000 C 
BRANCH  18  22
ATOM     22  C   UNL     1       4.838   4.498  17.377  0.00  0.00    +0.000 A 
ATOM     23  C   UNL     1       4.764   4.462  15.968  0.00  0.00    +0.000 A 
ATOM     24  C   UNL     1       5.906   4.529  15.163  0.00  0.00    +0.000 A 
ATOM     25  C   UNL     1       7.167   4.620  15.741  0.00  0.00    +0.000 A 
ATOM     26  C   UNL     1       7.285   4.623  17.128  0.00  0.00    +0.000 A 
ATOM     27  C   UNL     1       6.137   4.548  17.924  0.00  0.00    +0.000 A 
ENDBRANCH  18  22
ENDBRANCH  17  18
ENDBRANCH   3  17
TORSDOF 4
ENDMDL
MODEL 5
REMARK VINA RESULT:      -8.3      5.294      7.331
REMARK  Name = 
REMARK  4 active torsions:
REMARK  status: ('A' for Active; 'I' for Inactive)
REMARK    1  A    between atoms: N_3  and  C_4
REMARK    2  A    between atoms: C_4  and  C_5
REMARK    3  A    between atoms: C_5  and  C_6
REMARK    4  A    between atoms: N_15  and  C_16
REMARK                            x       y       z     vdW  Elec       q    Type
REMARK                         _______ _______ _______ _____ _____    ______ ____
ROOT
ATOM      1  O   UNL     1       1.883   7.581  20.041  0.00  0.00    +0.000 OA
ATOM      2  C   UNL     1       2.291   7.684  18.894  0.00  0.00    +0.000 C 
ATOM      3  N   UNL     1       3.193   6.788  18.364  0.00  0.00    +0.000 N 
ATOM      4  N   UNL     1       1.965   8.674  17.985  0.00  0.00    +0.000 N 
ATOM      5  H   UNL     1       3.344   6.799  17.368  0.00  0.00    +0.000 HD
ATOM      6  H   UNL     1       2.374   8.590  17.069  0.00  0.00    +0.000 HD
ENDROOT
BRANCH   4   7
ATOM      7  C   UNL     1       1.105   9.779  18.190  0.00  0.00    +0.000 A 
ATOM      8  C   UNL     1       1.550  11.029  18.617  0.00  0.00    +0.000 A 
ATOM      9  C   UNL     1       0.664  12.072  18.916  0.00  0.00    +0.000 A 
ATOM     10  C   UNL     1      -0.693  11.820  18.734  0.00  0.00    +0.000 A 
ATOM     11  N   UNL     1      -1.803  12.577  19.000  0.00  0.00    +0.000 N 
ATOM     12  N   UNL     1      -2.953  12.025  18.576  0.00  0.00    +0.000 NA
ATOM     13  C   UNL     1      -2.566  10.842  18.091  0.00  0.00    +0.000 A 
ATOM     14  C   UNL     1      -1.177  10.628  18.219  0.00  0.00    +0.000 A 
ATOM     15  C   UNL     1      -0.271   9.576  17.953  0.00  0.00    +0.000 A 
ATOM     16  H   UNL     1      -1.842  13.472  19.467  0.00  0.00    +0.000 HD
ENDBRANCH   4   7
BRANCH   3  17
ATOM     17  C   UNL     1       3.719   5.702  19.177  0.00  0.00    +0.000 C 
BRANCH  17  18
ATOM     18  C   UNL     1       3.726   4.374  18.402  0.00  0.00    +0.000 C 
ATOM     19  C   UNL     1       2.347   3.874  17.803  0.00  0.00    +0.000 C 
ATOM     20  C   UNL     1       2.777   2.443  18.175  0.00  0.00    +0.000 C 
ATOM     21  C   UNL     1       3.654   3.063  19.285  0.00  0.00    +0.000 C 
BRANCH  18  22
ATOM     22  C   UNL     1       4.959   4.414  17.320  0.00  0.00    +0.000 A 
ATOM     23  C   UNL     1       4.740   4.388  15.926  0.00  0.00    +0.000 A 
ATOM     24  C   UNL     1       5.789   4.504  15.008  0.00  0.00    +0.000 A 
ATOM     25  C   UNL     1       7.099   4.635  15.453  0.00  0.00    +0.000 A 
ATOM     26  C   UNL     1       7.361   4.630  16.820  0.00  0.00    +0.000 A 
ATOM     27  C   UNL     1       6.305   4.507  17.731  0.00  0.00    +0.000 A 
ENDBRANCH  18  22
ENDBRANCH  17  18
ENDBRANCH   3  17
TORSDOF 4
ENDMDL
MODEL 6
REMARK VINA RESULT:      -8.3      5.117      6.792
REMARK  Name = 
REMARK  4 active torsions:
REMARK  status: ('A' for Active; 'I' for Inactive)
REMARK    1  A    between atoms: N_3  and  C_4
REMARK    2  A    between atoms: C_4  and  C_5
REMARK    3  A    between atoms: C_5  and  C_6
REMARK    4  A    between atoms: N_15  and  C_16
REMARK                            x       y       z     vdW  Elec       q    Type
REMARK                         _______ _______ _______ _____ _____    ______ ____
ROOT
ATOM      1  O   UNL     1       2.636   8.718  17.327  0.00  0.00    +0.000 OA
ATOM      2  C   UNL     1       2.790   7.847  18.170  0.00  0.00    +0.000 C 
ATOM      3  N   UNL     1       3.601   6.758  17.945  0.00  0.00    +0.000 N 
ATOM      4  N   UNL     1       2.191   7.786  19.415  0.00  0.00    +0.000 N 
ATOM      5  H   UNL     1       3.849   6.178  18.732  0.00  0.00    +0.000 HD
ATOM      6  H   UNL     1       2.453   7.007  19.997  0.00  0.00    +0.000 HD
ENDROOT
BRANCH   4   7
ATOM      7  C   UNL     1       1.270   8.704  19.971  0.00  0.00    +0.000 A 
ATOM      8  C   UNL     1       0.613   9.681  19.224  0.00  0.00    +0.000 A 
ATOM      9  C   UNL     1      -0.210  10.646  19.819  0.00  0.00    +0.000 A 
ATOM     10  C   UNL     1      -0.377  10.568  21.199  0.00  0.00    +0.000 A 
ATOM     11  N   UNL     1      -1.037  11.381  22.082  0.00  0.00    +0.000 N 
ATOM     12  N   UNL     1      -1.068  10.907  23.339  0.00  0.00    +0.000 NA
ATOM     13  C   UNL     1      -0.338   9.790  23.266  0.00  0.00    +0.000 A 
ATOM     14  C   UNL     1       0.174   9.558  21.971  0.00  0.00    +0.000 A 
ATOM     15  C   UNL     1       1.027   8.612  21.358  0.00  0.00    +0.000 A 
ATOM     16  H   UNL     1      -1.482  12.267  21.891  0.00  0.00    +0.000 HD
ENDBRANCH   4   7
BRANCH   3  17
ATOM     17  C   UNL     1       4.278   6.593  16.667  0.00  0.00    +0.000 C 
BRANCH  17  18
ATOM     18  C   UNL     1       5.135   5.315  16.647  0.00  0.00    +0.000 C 
ATOM     19  C   UNL     1       6.674   5.466  16.991  0.00  0.00    +0.000 C 
ATOM     20  C   UNL     1       6.954   4.407  15.909  0.00  0.00    +0.000 C 
ATOM     21  C   UNL     1       5.646   4.854  15.222  0.00  0.00    +0.000 C 
BRANCH  18  22
ATOM     22  C   UNL     1       4.358   4.159  17.513  0.00  0.00    +0.000 A 
ATOM     23  C   UNL     1       3.199   3.509  17.035  0.00  0.00    +0.000 A 
ATOM     24  C   UNL     1       2.587   2.468  17.742  0.00  0.00    +0.000 A 
ATOM     25  C   UNL     1       3.105   2.050  18.962  0.00  0.00    +0.000 A 
ATOM     26  C   UNL     1       4.225   2.689  19.485  0.00  0.00    +0.000 A 
ATOM     27  C   UNL     1       4.827   3.734  18.773  0.00  0.00    +0.000 A 
ENDBRANCH  18  22
ENDBRANCH  17  18
ENDBRANCH   3  17
TORSDOF 4
ENDMDL
MODEL 7
REMARK VINA RESULT:      -8.2      5.079      6.824
REMARK  Name = 
REMARK  4 active torsions:
REMARK  status: ('A' for Active; 'I' for Inactive)
REMARK    1  A    between atoms: N_3  and  C_4
REMARK    2  A    between atoms: C_4  and  C_5
REMARK    3  A    between atoms: C_5  and  C_6
REMARK    4  A    between atoms: N_15  and  C_16
REMARK                            x       y       z     vdW  Elec       q    Type
REMARK                         _______ _______ _______ _____ _____    ______ ____
ROOT
ATOM      1  O   UNL     1       2.626   8.652  17.414  0.00  0.00    +0.000 OA
ATOM      2  C   UNL     1       2.753   7.818  18.298  0.00  0.00    +0.000 C 
ATOM      3  N   UNL     1       3.552   6.708  18.137  0.00  0.00    +0.000 N 
ATOM      4  N   UNL     1       2.133   7.823  19.535  0.00  0.00    +0.000 N 
ATOM      5  H   UNL     1       3.779   6.162  18.953  0.00  0.00    +0.000 HD
ATOM      6  H   UNL     1       2.375   7.068  20.155  0.00  0.00    +0.000 HD
ENDROOT
BRANCH   4   7
ATOM      7  C   UNL     1       1.217   8.778  20.033  0.00  0.00    +0.000 A 
ATOM      8  C   UNL     1       0.616   9.754  19.238  0.00  0.00    +0.000 A 
ATOM      9  C   UNL     1      -0.202  10.754  19.777  0.00  0.00    +0.000 A 
ATOM     10  C   UNL     1      -0.424  10.715  21.152  0.00  0.00    +0.000 A 
ATOM     11  N   UNL     1      -1.094  11.566  21.990  0.00  0.00    +0.000 N 
ATOM     12  N   UNL     1      -1.186  11.124  23.255  0.00  0.00    +0.000 NA
ATOM     13  C   UNL     1      -0.484   9.987  23.237  0.00  0.00    +0.000 A 
ATOM     14  C   UNL     1       0.070   9.710  21.969  0.00  0.00    +0.000 A 
ATOM     15  C   UNL     1       0.920   8.727  21.411  0.00  0.00    +0.000 A 
ATOM     16  H   UNL     1      -1.507  12.459  21.760  0.00  0.00    +0.000 HD
ENDBRANCH   4   7
BRANCH   3  17
ATOM     17  C   UNL     1       4.246   6.475  16.879  0.00  0.00    +0.000 C 
BRANCH  17  18
ATOM     18  C   UNL     1       5.182   5.258  16.972  0.00  0.00    +0.000 C 
ATOM     19  C   UNL     1       6.633   5.500  17.562  0.00  0.00    +0.000 C 
ATOM     20  C   UNL     1       7.154   4.495  16.519  0.00  0.00    +0.000 C 
ATOM     21  C   UNL     1       5.944   4.874  15.639  0.00  0.00    +0.000 C 
BRANCH  18  22
ATOM     22  C   UNL     1       4.360   4.028  17.681  0.00  0.00    +0.000 A 
ATOM     23  C   UNL     1       4.697   3.534  18.960  0.00  0.00    +0.000 A 
ATOM     24  C   UNL     1       3.943   2.540  19.593  0.00  0.00    +0.000 A 
ATOM     25  C   UNL     1       2.833   1.993  18.962  0.00  0.00    +0.000 A 
ATOM     26  C   UNL     1       2.488   2.428  17.686  0.00  0.00    +0.000 A 
ATOM     27  C   UNL     1       3.252   3.418  17.058  0.00  0.00    +0.000 A 
ENDBRANCH  18  22
ENDBRANCH  17  18
ENDBRANCH   3  17
TORSDOF 4
ENDMDL
MODEL 8
REMARK VINA RESULT:      -8.2      5.365      8.923
REMARK  Name = 
REMARK  4 active torsions:
REMARK  status: ('A' for Active; 'I' for Inactive)
REMARK    1  A    between atoms: N_3  and  C_4
REMARK    2  A    between atoms: C_4  and  C_5
REMARK    3  A    between atoms: C_5  and  C_6
REMARK    4  A    between atoms: N_15  and  C_16
REMARK                            x       y       z     vdW  Elec       q    Type
REMARK                         _______ _______ _______ _____ _____    ______ ____
ROOT
ATOM      1  O   UNL     1       2.101   8.890  17.175  0.00  0.00    +0.000 OA
ATOM      2  C   UNL     1       2.067   8.511  18.336  0.00  0.00    +0.000 C 
ATOM      3  N   UNL     1       1.524   9.287  19.335  0.00  0.00    +0.000 N 
ATOM      4  N   UNL     1       2.562   7.318  18.832  0.00  0.00    +0.000 N 
ATOM      5  H   UNL     1       1.340   8.855  20.227  0.00  0.00    +0.000 HD
ATOM      6  H   UNL     1       2.423   7.154  19.815  0.00  0.00    +0.000 HD
ENDROOT
BRANCH   4   7
ATOM      7  C   UNL     1       3.221   6.296  18.110  0.00  0.00    +0.000 A 
ATOM      8  C   UNL     1       2.660   5.042  17.868  0.00  0.00    +0.000 A 
ATOM      9  C   UNL     1       3.377   4.013  17.245  0.00  0.00    +0.000 A 
ATOM     10  C   UNL     1       4.678   4.305  16.841  0.00  0.00    +0.000 A 
ATOM     11  N   UNL     1       5.655   3.522  16.287  0.00  0.00    +0.000 N 
ATOM     12  N   UNL     1       6.757   4.201  15.927  0.00  0.00    +0.000 NA
ATOM     13  C   UNL     1       6.500   5.447  16.336  0.00  0.00    +0.000 A 
ATOM     14  C   UNL     1       5.245   5.562  16.971  0.00  0.00    +0.000 A 
ATOM     15  C   UNL     1       4.517   6.580  17.630  0.00  0.00    +0.000 A 
ATOM     16  H   UNL     1       5.632   2.524  16.130  0.00  0.00    +0.000 HD
ENDBRANCH   4   7
BRANCH   3  17
ATOM     17  C   UNL     1       1.003  10.614  19.039  0.00  0.00    +0.000 C 
BRANCH  17  18
ATOM     18  C   UNL     1      -0.243  10.929  19.884  0.00  0.00    +0.000 C 
ATOM     19  C   UNL     1      -0.170  12.186  20.846  0.00  0.00    +0.000 C 
ATOM     20  C   UNL     1      -0.979  11.368  21.870  0.00  0.00    +0.000 C 
ATOM     21  C   UNL     1      -0.396  10.095  21.220  0.00  0.00    +0.000 C 
BRANCH  18  22
ATOM     22  C   UNL     1      -1.554  10.906  18.898  0.00  0.00    +0.000 A 
ATOM     23  C   UNL     1      -1.679   9.992  17.829  0.00  0.00    +0.000 A 
ATOM     24  C   UNL     1      -2.833   9.923  17.042  0.00  0.00    +0.000 A 
ATOM     25  C   UNL     1      -3.900  10.780  17.287  0.00  0.00    +0.000 A 
ATOM     26  C   UNL     1      -3.803  11.719  18.309  0.00  0.00    +0.000 A 
ATOM     27  C   UNL     1      -2.641  11.784  19.087  0.00  0.00    +0.000 A 
ENDBRANCH  18  22
ENDBRANCH  17  18
ENDBRANCH   3  17
TORSDOF 4
ENDMDL
MODEL 9
REMARK VINA RESULT:      -8.2      5.422      7.303
REMARK  Name = 
REMARK  4 active torsions:
REMARK  status: ('A' for Active; 'I' for Inactive)
REMARK    1  A    between atoms: N_3  and  C_4
REMARK    2  A    between atoms: C_4  and  C_5
REMARK    3  A    between atoms: C_5  and  C_6
REMARK    4  A    between atoms: N_15  and  C_16
REMARK                            x       y       z     vdW  Elec       q    Type
REMARK                         _______ _______ _______ _____ _____    ______ ____
ROOT
ATOM      1  O   UNL     1       1.655   6.630  20.616  0.00  0.00    +0.000 OA
ATOM      2  C   UNL     1       2.248   7.082  19.648  0.00  0.00    +0.000 C 
ATOM      3  N   UNL     1       3.272   6.391  19.040  0.00  0.00    +0.000 N 
ATOM      4  N   UNL     1       2.033   8.307  19.044  0.00  0.00    +0.000 N 
ATOM      5  H   UNL     1       3.592   6.709  18.139  0.00  0.00    +0.000 HD
ATOM      6  H   UNL     1       2.597   8.509  18.235  0.00  0.00    +0.000 HD
ENDROOT
BRANCH   4   7
ATOM      7  C   UNL     1       1.096   9.297  19.420  0.00  0.00    +0.000 A 
ATOM      8  C   UNL     1       0.927   9.736  20.732  0.00  0.00    +0.000 A 
ATOM      9  C   UNL     1      -0.083  10.638  21.093  0.00  0.00    +0.000 A 
ATOM     10  C   UNL     1      -0.900  11.112  20.069  0.00  0.00    +0.000 A 
ATOM     11  N   UNL     1      -2.002  11.924  20.088  0.00  0.00    +0.000 N 
ATOM     12  N   UNL     1      -2.459  12.251  18.867  0.00  0.00    +0.000 NA
ATOM     13  C   UNL     1      -1.661  11.562  18.045  0.00  0.00    +0.000 A 
ATOM     14  C   UNL     1      -0.710  10.782  18.737  0.00  0.00    +0.000 A 
ATOM     15  C   UNL     1       0.294   9.846  18.397  0.00  0.00    +0.000 A 
ATOM     16  H   UNL     1      -2.489  12.285  20.896  0.00  0.00    +0.000 HD
ENDBRANCH   4   7
BRANCH   3  17
ATOM     17  C   UNL     1       3.706   5.103  19.561  0.00  0.00    +0.000 C 
BRANCH  17  18
ATOM     18  C   UNL     1       3.639   4.009  18.482  0.00  0.00    +0.000 C 
ATOM     19  C   UNL     1       2.246   3.786  17.759  0.00  0.00    +0.000 C 
ATOM     20  C   UNL     1       2.554   2.278  17.772  0.00  0.00    +0.000 C 
ATOM     21  C   UNL     1       3.436   2.532  19.013  0.00  0.00    +0.000 C 
BRANCH  18  22
ATOM     22  C   UNL     1       4.906   4.212  17.461  0.00  0.00    +0.000 A 
ATOM     23  C   UNL     1       4.753   4.214  16.058  0.00  0.00    +0.000 A 
ATOM     24  C   UNL     1       5.824   4.468  15.195  0.00  0.00    +0.000 A 
ATOM     25  C   UNL     1       7.093   4.715  15.705  0.00  0.00    +0.000 A 
ATOM     26  C   UNL     1       7.293   4.686  17.082  0.00  0.00    +0.000 A 
ATOM     27  C   UNL     1       6.217   4.425  17.937  0.00  0.00    +0.000 A 
ENDBRANCH  18  22
ENDBRANCH  17  18
ENDBRANCH   3  17
TORSDOF 4
ENDMDL
