MODEL 1
REMARK VINA RESULT:      -8.9      0.000      0.000
REMARK  Name = 
REMARK  5 active torsions:
REMARK  status: ('A' for Active; 'I' for Inactive)
REMARK    1  A    between atoms: C_2  and  C_18
REMARK    2  A    between atoms: N_3  and  C_4
REMARK    3  A    between atoms: C_4  and  C_5
REMARK    4  A    between atoms: C_9  and  O_10
REMARK    5  A    between atoms: O_10  and  C_11
REMARK                            x       y       z     vdW  Elec       q    Type
REMARK                         _______ _______ _______ _____ _____    ______ ____
ROOT
ATOM      1  O   UNL     1       8.408   7.035  19.002  0.00  0.00    +0.000 OA
ATOM      2  C   UNL     1       8.158   7.945  18.219  0.00  0.00    +0.000 C 
ATOM      3  N   UNL     1       7.458   7.755  17.048  0.00  0.00    +0.000 N 
ATOM      4  H   UNL     1       7.348   8.538  16.425  0.00  0.00    +0.000 HD
ENDROOT
BRANCH   2   5
ATOM      5  C   UNL     1       8.616   9.306  18.442  0.00  0.00    +0.000 A 
ATOM      6  C   UNL     1       8.543  10.449  17.657  0.00  0.00    +0.000 A 
ATOM      7  C   UNL     1       9.291  11.483  18.288  0.00  0.00    +0.000 A 
ATOM      8  C   UNL     1       9.635  12.800  17.927  0.00  0.00    +0.000 A 
ATOM      9  C   UNL     1      10.474  13.526  18.771  0.00  0.00    +0.000 A 
ATOM     10  F   UNL     1      10.851  14.762  18.411  0.00  0.00    +0.000 F 
ATOM     11  C   UNL     1      10.943  12.997  19.967  0.00  0.00    +0.000 A 
ATOM     12  C   UNL     1      10.575  11.707  20.365  0.00  0.00    +0.000 A 
ATOM     13  C   UNL     1       9.759  10.969  19.495  0.00  0.00    +0.000 A 
ATOM     14  N   UNL     1       9.279   9.682  19.595  0.00  0.00    +0.000 N 
ATOM     15  H   UNL     1       9.453   9.055  20.370  0.00  0.00    +0.000 HD
ENDBRANCH   2   5
BRANCH   3  16
ATOM     16  C   UNL     1       6.958   6.474  16.590  0.00  0.00    +0.000 C 
BRANCH  16  17
ATOM     17  C   UNL     1       5.537   6.217  17.035  0.00  0.00    +0.000 A 
ATOM     18  C   UNL     1       4.649   7.288  17.174  0.00  0.00    +0.000 A 
ATOM     19  C   UNL     1       3.359   7.039  17.607  0.00  0.00    +0.000 A 
ATOM     20  N   UNL     1       2.894   5.811  17.898  0.00  0.00    +0.000 NA
ATOM     21  C   UNL     1       3.729   4.766  17.698  0.00  0.00    +0.000 A 
ATOM     22  C   UNL     1       5.054   4.922  17.294  0.00  0.00    +0.000 A 
BRANCH  21  23
ATOM     23  O   UNL     1       3.261   3.467  17.914  0.00  0.00    +0.000 OA
BRANCH  23  24
ATOM     24  C   UNL     1       2.618   3.202  19.109  0.00  0.00    +0.000 A 
ATOM     25  C   UNL     1       1.231   3.237  19.248  0.00  0.00    +0.000 A 
ATOM     26  C   UNL     1       0.633   2.998  20.486  0.00  0.00    +0.000 A 
ATOM     27  C   UNL     1       1.423   2.662  21.582  0.00  0.00    +0.000 A 
ATOM     28  C   UNL     1       2.808   2.559  21.436  0.00  0.00    +0.000 A 
ATOM     29  C   UNL     1       3.409   2.830  20.202  0.00  0.00    +0.000 A 
ENDBRANCH  23  24
ENDBRANCH  21  23
ENDBRANCH  16  17
ENDBRANCH   3  16
TORSDOF 5
ENDMDL
MODEL 2
REMARK VINA RESULT:      -8.9      1.460      1.929
REMARK  Name = 
REMARK  5 active torsions:
REMARK  status: ('A' for Active; 'I' for Inactive)
REMARK    1  A    between atoms: C_2  and  C_18
REMARK    2  A    between atoms: N_3  and  C_4
REMARK    3  A    between atoms: C_4  and  C_5
REMARK    4  A    between atoms: C_9  and  O_10
REMARK    5  A    between atoms: O_10  and  C_11
REMARK                            x       y       z     vdW  Elec       q    Type
REMARK                         _______ _______ _______ _____ _____    ______ ____
ROOT
ATOM      1  O   UNL     1       7.909   7.423  16.836  0.00  0.00    +0.000 OA
ATOM      2  C   UNL     1       8.199   7.774  17.974  0.00  0.00    +0.000 C 
ATOM      3  N   UNL     1       8.223   6.907  19.043  0.00  0.00    +0.000 N 
ATOM      4  H   UNL     1       8.408   7.282  19.959  0.00  0.00    +0.000 HD
ENDROOT
BRANCH   2   5
ATOM      5  C   UNL     1       8.507   9.156  18.303  0.00  0.00    +0.000 A 
ATOM      6  C   UNL     1       8.301  10.342  17.612  0.00  0.00    +0.000 A 
ATOM      7  C   UNL     1       8.937  11.400  18.322  0.00  0.00    +0.000 A 
ATOM      8  C   UNL     1       9.130  12.771  18.067  0.00  0.00    +0.000 A 
ATOM      9  C   UNL     1       9.893  13.516  18.965  0.00  0.00    +0.000 A 
ATOM     10  F   UNL     1      10.128  14.811  18.703  0.00  0.00    +0.000 F 
ATOM     11  C   UNL     1      10.429  12.950  20.114  0.00  0.00    +0.000 A 
ATOM     12  C   UNL     1      10.209  11.599  20.409  0.00  0.00    +0.000 A 
ATOM     13  C   UNL     1       9.470  10.847  19.484  0.00  0.00    +0.000 A 
ATOM     14  N   UNL     1       9.136   9.510  19.482  0.00  0.00    +0.000 N 
ATOM     15  H   UNL     1       9.385   8.848  20.205  0.00  0.00    +0.000 HD
ENDBRANCH   2   5
BRANCH   3  16
ATOM     16  C   UNL     1       7.892   5.498  18.964  0.00  0.00    +0.000 C 
BRANCH  16  17
ATOM     17  C   UNL     1       6.721   5.232  18.047  0.00  0.00    +0.000 A 
ATOM     18  C   UNL     1       6.917   4.514  16.862  0.00  0.00    +0.000 A 
ATOM     19  C   UNL     1       5.840   4.301  16.021  0.00  0.00    +0.000 A 
ATOM     20  N   UNL     1       4.593   4.737  16.279  0.00  0.00    +0.000 NA
ATOM     21  C   UNL     1       4.388   5.370  17.456  0.00  0.00    +0.000 A 
ATOM     22  C   UNL     1       5.416   5.657  18.352  0.00  0.00    +0.000 A 
BRANCH  21  23
ATOM     23  O   UNL     1       3.093   5.771  17.798  0.00  0.00    +0.000 OA
BRANCH  23  24
ATOM     24  C   UNL     1       2.333   4.912  18.570  0.00  0.00    +0.000 A 
ATOM     25  C   UNL     1       2.103   5.117  19.931  0.00  0.00    +0.000 A 
ATOM     26  C   UNL     1       1.360   4.198  20.672  0.00  0.00    +0.000 A 
ATOM     27  C   UNL     1       0.790   3.096  20.039  0.00  0.00    +0.000 A 
ATOM     28  C   UNL     1       0.960   2.919  18.665  0.00  0.00    +0.000 A 
ATOM     29  C   UNL     1       1.732   3.823  17.928  0.00  0.00    +0.000 A 
ENDBRANCH  23  24
ENDBRANCH  21  23
ENDBRANCH  16  17
ENDBRANCH   3  16
TORSDOF 5
ENDMDL
MODEL 3
REMARK VINA RESULT:      -8.7      2.194      3.197
REMARK  Name = 
REMARK  5 active torsions:
REMARK  status: ('A' for Active; 'I' for Inactive)
REMARK    1  A    between atoms: C_2  and  C_18
REMARK    2  A    between atoms: N_3  and  C_4
REMARK    3  A    between atoms: C_4  and  C_5
REMARK    4  A    between atoms: C_9  and  O_10
REMARK    5  A    between atoms: O_10  and  C_11
REMARK                            x       y       z     vdW  Elec       q    Type
REMARK                         _______ _______ _______ _____ _____    ______ ____
ROOT
ATOM      1  O   UNL     1       7.541   7.442  16.717  0.00  0.00    +0.000 OA
ATOM      2  C   UNL     1       8.002   7.706  17.822  0.00  0.00    +0.000 C 
ATOM      3  N   UNL     1       8.141   6.768  18.821  0.00  0.00    +0.000 N 
ATOM      4  H   UNL     1       8.468   7.073  19.722  0.00  0.00    +0.000 HD
ENDROOT
BRANCH   2   5
ATOM      5  C   UNL     1       8.410   9.052  18.190  0.00  0.00    +0.000 A 
ATOM      6  C   UNL     1       8.281  10.271  17.539  0.00  0.00    +0.000 A 
ATOM      7  C   UNL     1       8.998  11.258  18.273  0.00  0.00    +0.000 A 
ATOM      8  C   UNL     1       9.285  12.620  18.058  0.00  0.00    +0.000 A 
ATOM      9  C   UNL     1      10.108  13.281  18.969  0.00  0.00    +0.000 A 
ATOM     10  F   UNL     1      10.431  14.563  18.744  0.00  0.00    +0.000 F 
ATOM     11  C   UNL     1      10.615  12.641  20.092  0.00  0.00    +0.000 A 
ATOM     12  C   UNL     1      10.304  11.301  20.348  0.00  0.00    +0.000 A 
ATOM     13  C   UNL     1       9.504  10.632  19.411  0.00  0.00    +0.000 A 
ATOM     14  N   UNL     1       9.076   9.323  19.371  0.00  0.00    +0.000 N 
ATOM     15  H   UNL     1       9.285   8.622  20.070  0.00  0.00    +0.000 HD
ENDBRANCH   2   5
BRANCH   3  16
ATOM     16  C   UNL     1       7.744   5.379  18.701  0.00  0.00    +0.000 C 
BRANCH  16  17
ATOM     17  C   UNL     1       6.275   5.224  18.381  0.00  0.00    +0.000 A 
ATOM     18  C   UNL     1       5.884   4.530  17.231  0.00  0.00    +0.000 A 
ATOM     19  C   UNL     1       4.537   4.420  16.939  0.00  0.00    +0.000 A 
ATOM     20  N   UNL     1       3.562   4.937  17.709  0.00  0.00    +0.000 NA
ATOM     21  C   UNL     1       3.933   5.548  18.856  0.00  0.00    +0.000 A 
ATOM     22  C   UNL     1       5.266   5.734  19.218  0.00  0.00    +0.000 A 
BRANCH  21  23
ATOM     23  O   UNL     1       2.948   6.030  19.722  0.00  0.00    +0.000 OA
BRANCH  23  24
ATOM     24  C   UNL     1       2.354   7.240  19.415  0.00  0.00    +0.000 A 
ATOM     25  C   UNL     1       2.379   7.793  18.134  0.00  0.00    +0.000 A 
ATOM     26  C   UNL     1       1.795   9.036  17.885  0.00  0.00    +0.000 A 
ATOM     27  C   UNL     1       1.128   9.705  18.908  0.00  0.00    +0.000 A 
ATOM     28  C   UNL     1       1.041   9.127  20.176  0.00  0.00    +0.000 A 
ATOM     29  C   UNL     1       1.654   7.896  20.433  0.00  0.00    +0.000 A 
ENDBRANCH  23  24
ENDBRANCH  21  23
ENDBRANCH  16  17
ENDBRANCH   3  16
TORSDOF 5
ENDMDL
MODEL 4
REMARK VINA RESULT:      -8.7      2.054      3.166
REMARK  Name = 
REMARK  5 active torsions:
REMARK  status: ('A' for Active; 'I' for Inactive)
REMARK    1  A    between atoms: C_2  and  C_18
REMARK    2  A    between atoms: N_3  and  C_4
REMARK    3  A    between atoms: C_4  and  C_5
REMARK    4  A    between atoms: C_9  and  O_10
REMARK    5  A    between atoms: O_10  and  C_11
REMARK                            x       y       z     vdW  Elec       q    Type
REMARK                         _______ _______ _______ _____ _____    ______ ____
ROOT
ATOM      1  O   UNL     1       8.191   6.361  18.943  0.00  0.00    +0.000 OA
ATOM      2  C   UNL     1       7.903   7.235  18.133  0.00  0.00    +0.000 C 
ATOM      3  N   UNL     1       7.237   6.977  16.955  0.00  0.00    +0.000 N 
ATOM      4  H   UNL     1       7.092   7.736  16.311  0.00  0.00    +0.000 HD
ENDROOT
BRANCH   2   5
ATOM      5  C   UNL     1       8.276   8.626  18.329  0.00  0.00    +0.000 A 
ATOM      6  C   UNL     1       8.037   9.766  17.573  0.00  0.00    +0.000 A 
ATOM      7  C   UNL     1       8.765  10.851  18.141  0.00  0.00    +0.000 A 
ATOM      8  C   UNL     1       8.968  12.193  17.767  0.00  0.00    +0.000 A 
ATOM      9  C   UNL     1       9.831  12.975  18.533  0.00  0.00    +0.000 A 
ATOM     10  F   UNL     1      10.075  14.239  18.155  0.00  0.00    +0.000 F 
ATOM     11  C   UNL     1      10.458  12.475  19.667  0.00  0.00    +0.000 A 
ATOM     12  C   UNL     1      10.232  11.158  20.081  0.00  0.00    +0.000 A 
ATOM     13  C   UNL     1       9.390  10.365  19.287  0.00  0.00    +0.000 A 
ATOM     14  N   UNL     1       9.022   9.044  19.415  0.00  0.00    +0.000 N 
ATOM     15  H   UNL     1       9.321   8.427  20.159  0.00  0.00    +0.000 HD
ENDBRANCH   2   5
BRANCH   3  16
ATOM     16  C   UNL     1       6.821   5.658  16.522  0.00  0.00    +0.000 C 
BRANCH  16  17
ATOM     17  C   UNL     1       5.462   5.275  17.060  0.00  0.00    +0.000 A 
ATOM     18  C   UNL     1       4.786   4.176  16.520  0.00  0.00    +0.000 A 
ATOM     19  C   UNL     1       3.532   3.854  17.006  0.00  0.00    +0.000 A 
ATOM     20  N   UNL     1       2.915   4.535  17.989  0.00  0.00    +0.000 NA
ATOM     21  C   UNL     1       3.595   5.554  18.560  0.00  0.00    +0.000 A 
ATOM     22  C   UNL     1       4.849   5.971  18.118  0.00  0.00    +0.000 A 
BRANCH  21  23
ATOM     23  O   UNL     1       3.023   6.238  19.636  0.00  0.00    +0.000 OA
BRANCH  23  24
ATOM     24  C   UNL     1       2.322   7.399  19.365  0.00  0.00    +0.000 A 
ATOM     25  C   UNL     1       2.217   7.939  18.083  0.00  0.00    +0.000 A 
ATOM     26  C   UNL     1       1.529   9.134  17.869  0.00  0.00    +0.000 A 
ATOM     27  C   UNL     1       0.889   9.764  18.934  0.00  0.00    +0.000 A 
ATOM     28  C   UNL     1       0.933   9.194  20.208  0.00  0.00    +0.000 A 
ATOM     29  C   UNL     1       1.650   8.014  20.427  0.00  0.00    +0.000 A 
ENDBRANCH  23  24
ENDBRANCH  21  23
ENDBRANCH  16  17
ENDBRANCH   3  16
TORSDOF 5
ENDMDL
MODEL 5
REMARK VINA RESULT:      -8.6      4.962      6.982
REMARK  Name = 
REMARK  5 active torsions:
REMARK  status: ('A' for Active; 'I' for Inactive)
REMARK    1  A    between atoms: C_2  and  C_18
REMARK    2  A    between atoms: N_3  and  C_4
REMARK    3  A    between atoms: C_4  and  C_5
REMARK    4  A    between atoms: C_9  and  O_10
REMARK    5  A    between atoms: O_10  and  C_11
REMARK                            x       y       z     vdW  Elec       q    Type
REMARK                         _______ _______ _______ _____ _____    ______ ____
ROOT
ATOM      1  O   UNL     1       2.320   9.802  17.128  0.00  0.00    +0.000 OA
ATOM      2  C   UNL     1       2.193   9.070  18.104  0.00  0.00    +0.000 C 
ATOM      3  N   UNL     1       2.842   7.862  18.225  0.00  0.00    +0.000 N 
ATOM      4  H   UNL     1       2.638   7.287  19.025  0.00  0.00    +0.000 HD
ENDROOT
BRANCH   2   5
ATOM      5  C   UNL     1       1.309   9.400  19.209  0.00  0.00    +0.000 A 
ATOM      6  C   UNL     1       0.340  10.382  19.361  0.00  0.00    +0.000 A 
ATOM      7  C   UNL     1      -0.122  10.363  20.708  0.00  0.00    +0.000 A 
ATOM      8  C   UNL     1      -1.017  11.161  21.445  0.00  0.00    +0.000 A 
ATOM      9  C   UNL     1      -1.178  10.901  22.805  0.00  0.00    +0.000 A 
ATOM     10  F   UNL     1      -1.986  11.690  23.529  0.00  0.00    +0.000 F 
ATOM     11  C   UNL     1      -0.510   9.858  23.434  0.00  0.00    +0.000 A 
ATOM     12  C   UNL     1       0.348   9.024  22.708  0.00  0.00    +0.000 A 
ATOM     13  C   UNL     1       0.532   9.312  21.348  0.00  0.00    +0.000 A 
ATOM     14  N   UNL     1       1.334   8.707  20.405  0.00  0.00    +0.000 N 
ATOM     15  H   UNL     1       1.930   7.907  20.576  0.00  0.00    +0.000 HD
ENDBRANCH   2   5
BRANCH   3  16
ATOM     16  C   UNL     1       3.724   7.301  17.220  0.00  0.00    +0.000 C 
BRANCH  16  17
ATOM     17  C   UNL     1       4.689   6.292  17.797  0.00  0.00    +0.000 A 
ATOM     18  C   UNL     1       6.067   6.507  17.683  0.00  0.00    +0.000 A 
ATOM     19  C   UNL     1       6.938   5.562  18.195  0.00  0.00    +0.000 A 
ATOM     20  N   UNL     1       6.538   4.436  18.814  0.00  0.00    +0.000 NA
ATOM     21  C   UNL     1       5.209   4.260  18.987  0.00  0.00    +0.000 A 
ATOM     22  C   UNL     1       4.256   5.141  18.480  0.00  0.00    +0.000 A 
BRANCH  21  23
ATOM     23  O   UNL     1       4.754   3.143  19.693  0.00  0.00    +0.000 OA
BRANCH  23  24
ATOM     24  C   UNL     1       3.390   2.922  19.744  0.00  0.00    +0.000 A 
ATOM     25  C   UNL     1       2.675   2.347  18.692  0.00  0.00    +0.000 A 
ATOM     26  C   UNL     1       1.293   2.181  18.780  0.00  0.00    +0.000 A 
ATOM     27  C   UNL     1       0.625   2.535  19.950  0.00  0.00    +0.000 A 
ATOM     28  C   UNL     1       1.343   3.049  21.031  0.00  0.00    +0.000 A 
ATOM     29  C   UNL     1       2.725   3.246  20.931  0.00  0.00    +0.000 A 
ENDBRANCH  23  24
ENDBRANCH  21  23
ENDBRANCH  16  17
ENDBRANCH   3  16
TORSDOF 5
ENDMDL
MODEL 6
REMARK VINA RESULT:      -8.5      5.381      7.169
REMARK  Name = 
REMARK  5 active torsions:
REMARK  status: ('A' for Active; 'I' for Inactive)
REMARK    1  A    between atoms: C_2  and  C_18
REMARK    2  A    between atoms: N_3  and  C_4
REMARK    3  A    between atoms: C_4  and  C_5
REMARK    4  A    between atoms: C_9  and  O_10
REMARK    5  A    between atoms: O_10  and  C_11
REMARK                            x       y       z     vdW  Elec       q    Type
REMARK                         _______ _______ _______ _____ _____    ______ ____
ROOT
ATOM      1  O   UNL     1       6.470   4.851  19.022  0.00  0.00    +0.000 OA
ATOM      2  C   UNL     1       5.991   4.147  18.141  0.00  0.00    +0.000 C 
ATOM      3  N   UNL     1       5.055   3.167  18.389  0.00  0.00    +0.000 N 
ATOM      4  H   UNL     1       4.757   2.585  17.623  0.00  0.00    +0.000 HD
ENDROOT
BRANCH   2   5
ATOM      5  C   UNL     1       6.402   4.258  16.751  0.00  0.00    +0.000 A 
ATOM      6  C   UNL     1       7.251   5.144  16.103  0.00  0.00    +0.000 A 
ATOM      7  C   UNL     1       7.179   4.904  14.701  0.00  0.00    +0.000 A 
ATOM      8  C   UNL     1       7.739   5.531  13.572  0.00  0.00    +0.000 A 
ATOM      9  C   UNL     1       7.381   5.069  12.306  0.00  0.00    +0.000 A 
ATOM     10  F   UNL     1       7.866   5.693  11.223  0.00  0.00    +0.000 F 
ATOM     11  C   UNL     1       6.521   3.992  12.138  0.00  0.00    +0.000 A 
ATOM     12  C   UNL     1       5.990   3.326  13.249  0.00  0.00    +0.000 A 
ATOM     13  C   UNL     1       6.327   3.817  14.519  0.00  0.00    +0.000 A 
ATOM     14  N   UNL     1       5.930   3.404  15.772  0.00  0.00    +0.000 N 
ATOM     15  H   UNL     1       5.308   2.628  15.958  0.00  0.00    +0.000 HD
ENDBRANCH   2   5
BRANCH   3  16
ATOM     16  C   UNL     1       4.545   2.835  19.704  0.00  0.00    +0.000 C 
BRANCH  16  17
ATOM     17  C   UNL     1       3.210   3.484  19.985  0.00  0.00    +0.000 A 
ATOM     18  C   UNL     1       2.041   2.718  19.930  0.00  0.00    +0.000 A 
ATOM     19  C   UNL     1       0.824   3.332  20.164  0.00  0.00    +0.000 A 
ATOM     20  N   UNL     1       0.691   4.639  20.457  0.00  0.00    +0.000 NA
ATOM     21  C   UNL     1       1.824   5.366  20.579  0.00  0.00    +0.000 A 
ATOM     22  C   UNL     1       3.092   4.842  20.332  0.00  0.00    +0.000 A 
BRANCH  21  23
ATOM     23  O   UNL     1       1.736   6.709  20.958  0.00  0.00    +0.000 OA
BRANCH  23  24
ATOM     24  C   UNL     1       1.750   7.664  19.959  0.00  0.00    +0.000 A 
ATOM     25  C   UNL     1       1.163   8.922  20.104  0.00  0.00    +0.000 A 
ATOM     26  C   UNL     1       1.172   9.836  19.050  0.00  0.00    +0.000 A 
ATOM     27  C   UNL     1       1.825   9.518  17.862  0.00  0.00    +0.000 A 
ATOM     28  C   UNL     1       2.472   8.287  17.733  0.00  0.00    +0.000 A 
ATOM     29  C   UNL     1       2.435   7.358  18.778  0.00  0.00    +0.000 A 
ENDBRANCH  23  24
ENDBRANCH  21  23
ENDBRANCH  16  17
ENDBRANCH   3  16
TORSDOF 5
ENDMDL
MODEL 7
REMARK VINA RESULT:      -8.4      5.507      8.308
REMARK  Name = 
REMARK  5 active torsions:
REMARK  status: ('A' for Active; 'I' for Inactive)
REMARK    1  A    between atoms: C_2  and  C_18
REMARK    2  A    between atoms: N_3  and  C_4
REMARK    3  A    between atoms: C_4  and  C_5
REMARK    4  A    between atoms: C_9  and  O_10
REMARK    5  A    between atoms: O_10  and  C_11
REMARK                            x       y       z     vdW  Elec       q    Type
REMARK                         _______ _______ _______ _____ _____    ______ ____
ROOT
ATOM      1  O   UNL     1       1.677   4.759  20.355  0.00  0.00    +0.000 OA
ATOM      2  C   UNL     1       2.310   5.761  20.040  0.00  0.00    +0.000 C 
ATOM      3  N   UNL     1       2.025   7.014  20.536  0.00  0.00    +0.000 N 
ATOM      4  H   UNL     1       2.547   7.798  20.181  0.00  0.00    +0.000 HD
ENDROOT
BRANCH   2   5
ATOM      5  C   UNL     1       3.400   5.719  19.080  0.00  0.00    +0.000 A 
ATOM      6  C   UNL     1       3.455   6.020  17.726  0.00  0.00    +0.000 A 
ATOM      7  C   UNL     1       4.738   5.654  17.229  0.00  0.00    +0.000 A 
ATOM      8  C   UNL     1       5.325   5.648  15.949  0.00  0.00    +0.000 A 
ATOM      9  C   UNL     1       6.613   5.133  15.808  0.00  0.00    +0.000 A 
ATOM     10  F   UNL     1       7.162   5.073  14.586  0.00  0.00    +0.000 F 
ATOM     11  C   UNL     1       7.336   4.665  16.898  0.00  0.00    +0.000 A 
ATOM     12  C   UNL     1       6.787   4.705  18.185  0.00  0.00    +0.000 A 
ATOM     13  C   UNL     1       5.478   5.192  18.315  0.00  0.00    +0.000 A 
ATOM     14  N   UNL     1       4.673   5.308  19.427  0.00  0.00    +0.000 N 
ATOM     15  H   UNL     1       4.942   5.052  20.368  0.00  0.00    +0.000 HD
ENDBRANCH   2   5
BRANCH   3  16
ATOM     16  C   UNL     1       0.945   7.305  21.457  0.00  0.00    +0.000 C 
BRANCH  16  17
ATOM     17  C   UNL     1       0.443   8.724  21.329  0.00  0.00    +0.000 A 
ATOM     18  C   UNL     1       0.222   9.488  22.480  0.00  0.00    +0.000 A 
ATOM     19  C   UNL     1      -0.262  10.777  22.346  0.00  0.00    +0.000 A 
ATOM     20  N   UNL     1      -0.528  11.356  21.161  0.00  0.00    +0.000 NA
ATOM     21  C   UNL     1      -0.249  10.645  20.046  0.00  0.00    +0.000 A 
ATOM     22  C   UNL     1       0.211   9.330  20.081  0.00  0.00    +0.000 A 
BRANCH  21  23
ATOM     23  O   UNL     1      -0.436  11.237  18.794  0.00  0.00    +0.000 OA
BRANCH  23  24
ATOM     24  C   UNL     1      -1.639  11.015  18.148  0.00  0.00    +0.000 A 
ATOM     25  C   UNL     1      -1.805  10.032  17.172  0.00  0.00    +0.000 A 
ATOM     26  C   UNL     1      -3.031   9.875  16.524  0.00  0.00    +0.000 A 
ATOM     27  C   UNL     1      -4.117  10.664  16.894  0.00  0.00    +0.000 A 
ATOM     28  C   UNL     1      -3.976  11.605  17.916  0.00  0.00    +0.000 A 
ATOM     29  C   UNL     1      -2.739  11.784  18.544  0.00  0.00    +0.000 A 
ENDBRANCH  23  24
ENDBRANCH  21  23
ENDBRANCH  16  17
ENDBRANCH   3  16
TORSDOF 5
ENDMDL
MODEL 8
REMARK VINA RESULT:      -8.3      7.434      9.834
REMARK  Name = 
REMARK  5 active torsions:
REMARK  status: ('A' for Active; 'I' for Inactive)
REMARK    1  A    between atoms: C_2  and  C_18
REMARK    2  A    between atoms: N_3  and  C_4
REMARK    3  A    between atoms: C_4  and  C_5
REMARK    4  A    between atoms: C_9  and  O_10
REMARK    5  A    between atoms: O_10  and  C_11
REMARK                            x       y       z     vdW  Elec       q    Type
REMARK                         _______ _______ _______ _____ _____    ______ ____
ROOT
ATOM      1  O   UNL     1       0.960   9.090  21.379  0.00  0.00    +0.000 OA
ATOM      2  C   UNL     1       1.094   8.919  20.172  0.00  0.00    +0.000 C 
ATOM      3  N   UNL     1       0.395   9.641  19.230  0.00  0.00    +0.000 N 
ATOM      4  H   UNL     1       0.510   9.400  18.260  0.00  0.00    +0.000 HD
ENDROOT
BRANCH   2   5
ATOM      5  C   UNL     1       1.979   7.903  19.627  0.00  0.00    +0.000 A 
ATOM      6  C   UNL     1       2.631   7.800  18.406  0.00  0.00    +0.000 A 
ATOM      7  C   UNL     1       3.250   6.520  18.326  0.00  0.00    +0.000 A 
ATOM      8  C   UNL     1       3.961   5.839  17.319  0.00  0.00    +0.000 A 
ATOM      9  C   UNL     1       4.366   4.527  17.559  0.00  0.00    +0.000 A 
ATOM     10  F   UNL     1       4.997   3.851  16.587  0.00  0.00    +0.000 F 
ATOM     11  C   UNL     1       4.119   3.897  18.772  0.00  0.00    +0.000 A 
ATOM     12  C   UNL     1       3.455   4.572  19.802  0.00  0.00    +0.000 A 
ATOM     13  C   UNL     1       3.019   5.880  19.542  0.00  0.00    +0.000 A 
ATOM     14  N   UNL     1       2.314   6.762  20.331  0.00  0.00    +0.000 N 
ATOM     15  H   UNL     1       2.004   6.576  21.276  0.00  0.00    +0.000 HD
ENDBRANCH   2   5
BRANCH   3  16
ATOM     16  C   UNL     1      -0.586  10.661  19.542  0.00  0.00    +0.000 C 
BRANCH  16  17
ATOM     17  C   UNL     1      -1.693  10.730  18.516  0.00  0.00    +0.000 A 
ATOM     18  C   UNL     1      -1.574  10.017  17.318  0.00  0.00    +0.000 A 
ATOM     19  C   UNL     1      -2.584  10.111  16.378  0.00  0.00    +0.000 A 
ATOM     20  N   UNL     1      -3.697  10.848  16.549  0.00  0.00    +0.000 NA
ATOM     21  C   UNL     1      -3.846  11.483  17.733  0.00  0.00    +0.000 A 
ATOM     22  C   UNL     1      -2.869  11.472  18.727  0.00  0.00    +0.000 A 
BRANCH  21  23
ATOM     23  O   UNL     1      -5.022  12.197  17.982  0.00  0.00    +0.000 OA
BRANCH  23  24
ATOM     24  C   UNL     1      -5.881  11.708  18.949  0.00  0.00    +0.000 A 
ATOM     25  C   UNL     1      -6.272  12.453  20.062  0.00  0.00    +0.000 A 
ATOM     26  C   UNL     1      -7.113  11.899  21.028  0.00  0.00    +0.000 A 
ATOM     27  C   UNL     1      -7.617  10.613  20.852  0.00  0.00    +0.000 A 
ATOM     28  C   UNL     1      -7.284   9.886  19.707  0.00  0.00    +0.000 A 
ATOM     29  C   UNL     1      -6.416  10.430  18.755  0.00  0.00    +0.000 A 
ENDBRANCH  23  24
ENDBRANCH  21  23
ENDBRANCH  16  17
ENDBRANCH   3  16
TORSDOF 5
ENDMDL
MODEL 9
REMARK VINA RESULT:      -8.2      0.781      1.570
REMARK  Name = 
REMARK  5 active torsions:
REMARK  status: ('A' for Active; 'I' for Inactive)
REMARK    1  A    between atoms: C_2  and  C_18
REMARK    2  A    between atoms: N_3  and  C_4
REMARK    3  A    between atoms: C_4  and  C_5
REMARK    4  A    between atoms: C_9  and  O_10
REMARK    5  A    between atoms: O_10  and  C_11
REMARK                            x       y       z     vdW  Elec       q    Type
REMARK                         _______ _______ _______ _____ _____    ______ ____
ROOT
ATOM      1  O   UNL     1       8.220   7.002  18.917  0.00  0.00    +0.000 OA
ATOM      2  C   UNL     1       8.055   7.910  18.110  0.00  0.00    +0.000 C 
ATOM      3  N   UNL     1       7.408   7.735  16.907  0.00  0.00    +0.000 N 
ATOM      4  H   UNL     1       7.367   8.511  16.268  0.00  0.00    +0.000 HD
ENDROOT
BRANCH   2   5
ATOM      5  C   UNL     1       8.565   9.251  18.337  0.00  0.00    +0.000 A 
ATOM      6  C   UNL     1       9.370   9.781  19.336  0.00  0.00    +0.000 A 
ATOM      7  C   UNL     1       9.438  11.193  19.168  0.00  0.00    +0.000 A 
ATOM      8  C   UNL     1      10.023  12.239  19.907  0.00  0.00    +0.000 A 
ATOM      9  C   UNL     1       9.819  13.551  19.483  0.00  0.00    +0.000 A 
ATOM     10  F   UNL     1      10.326  14.558  20.210  0.00  0.00    +0.000 F 
ATOM     11  C   UNL     1       9.090  13.844  18.338  0.00  0.00    +0.000 A 
ATOM     12  C   UNL     1       8.540  12.816  17.564  0.00  0.00    +0.000 A 
ATOM     13  C   UNL     1       8.719  11.500  18.014  0.00  0.00    +0.000 A 
ATOM     14  N   UNL     1       8.265  10.307  17.497  0.00  0.00    +0.000 N 
ATOM     15  H   UNL     1       7.712  10.212  16.655  0.00  0.00    +0.000 HD
ENDBRANCH   2   5
BRANCH   3  16
ATOM     16  C   UNL     1       6.871   6.471  16.441  0.00  0.00    +0.000 C 
BRANCH  16  17
ATOM     17  C   UNL     1       5.471   6.217  16.948  0.00  0.00    +0.000 A 
ATOM     18  C   UNL     1       4.593   7.291  17.129  0.00  0.00    +0.000 A 
ATOM     19  C   UNL     1       3.323   7.045  17.618  0.00  0.00    +0.000 A 
ATOM     20  N   UNL     1       2.867   5.817  17.925  0.00  0.00    +0.000 NA
ATOM     21  C   UNL     1       3.688   4.771  17.686  0.00  0.00    +0.000 A 
ATOM     22  C   UNL     1       4.994   4.923  17.224  0.00  0.00    +0.000 A 
BRANCH  21  23
ATOM     23  O   UNL     1       3.226   3.472  17.918  0.00  0.00    +0.000 OA
BRANCH  23  24
ATOM     24  C   UNL     1       2.661   3.198  19.150  0.00  0.00    +0.000 A 
ATOM     25  C   UNL     1       3.413   2.815  20.260  0.00  0.00    +0.000 A 
ATOM     26  C   UNL     1       2.790   2.513  21.472  0.00  0.00    +0.000 A 
ATOM     27  C   UNL     1       1.409   2.653  21.594  0.00  0.00    +0.000 A 
ATOM     28  C   UNL     1       0.657   3.101  20.506  0.00  0.00    +0.000 A 
ATOM     29  C   UNL     1       1.279   3.372  19.282  0.00  0.00    +0.000 A 
ENDBRANCH  23  24
ENDBRANCH  21  23
ENDBRANCH  16  17
ENDBRANCH   3  16
TORSDOF 5
ENDMDL
