MODEL 1
REMARK VINA RESULT:      -8.8      0.000      0.000
REMARK  Name = 
REMARK  4 active torsions:
REMARK  status: ('A' for Active; 'I' for Inactive)
REMARK    1  A    between atoms: C_4  and  C_5
REMARK    2  A    between atoms: C_5  and  N_6
REMARK    3  A    between atoms: N_6  and  C_7
REMARK    4  A    between atoms: C_10  and  C_11
REMARK                            x       y       z     vdW  Elec       q    Type
REMARK                         _______ _______ _______ _____ _____    ______ ____
ROOT
ATOM      1  N   UNL     1       6.737   4.150  17.576  0.00  0.00    +0.000 N 
ATOM      2  H   UNL     1       6.546   3.634  18.434  0.00  0.00    +0.000 HD
ENDROOT
BRANCH   1   3
ATOM      3  C   UNL     1       7.176   5.459  17.823  0.00  0.00    +0.000 A 
ATOM      4  C   UNL     1       7.966   5.744  18.941  0.00  0.00    +0.000 A 
ATOM      5  C   UNL     1       8.439   7.048  19.190  0.00  0.00    +0.000 A 
ATOM      6  C   UNL     1       8.174   8.105  18.305  0.00  0.00    +0.000 A 
ATOM      7  C   UNL     1       7.460   7.780  17.142  0.00  0.00    +0.000 A 
ATOM      8  C   UNL     1       6.977   6.492  16.907  0.00  0.00    +0.000 A 
BRANCH   6   9
ATOM      9  C   UNL     1       8.613   9.502  18.542  0.00  0.00    +0.000 A 
ATOM     10  C   UNL     1       8.377  10.536  17.622  0.00  0.00    +0.000 A 
ATOM     11  C   UNL     1       8.767  11.855  17.894  0.00  0.00    +0.000 A 
ATOM     12  C   UNL     1       9.395  12.170  19.096  0.00  0.00    +0.000 A 
ATOM     13  C   UNL     1       9.651  11.167  20.021  0.00  0.00    +0.000 A 
ATOM     14  C   UNL     1       9.278   9.851  19.737  0.00  0.00    +0.000 A 
ENDBRANCH   6   9
ENDBRANCH   1   3
BRANCH   1  15
ATOM     15  C   UNL     1       5.610   4.002  16.651  0.00  0.00    +0.000 C 
BRANCH  15  19
ATOM     16  O   UNL     1       0.841   4.198  17.147  0.00  0.00    +0.000 OA
ATOM     17  C   UNL     1       1.922   3.934  17.674  0.00  0.00    +0.000 A 
ATOM     18  C   UNL     1       3.149   4.099  16.882  0.00  0.00    +0.000 A 
ATOM     19  C   UNL     1       4.332   3.831  17.447  0.00  0.00    +0.000 A 
ATOM     20  N   UNL     1       4.475   3.418  18.750  0.00  0.00    +0.000 NA
ATOM     21  C   UNL     1       3.392   3.268  19.450  0.00  0.00    +0.000 A 
ATOM     22  C   UNL     1       3.518   2.819  20.865  0.00  0.00    +0.000 A 
ATOM     23  C   UNL     1       2.421   2.655  21.613  0.00  0.00    +0.000 A 
ATOM     24  C   UNL     1       1.116   2.906  21.059  0.00  0.00    +0.000 A 
ATOM     25  C   UNL     1       0.996   3.315  19.790  0.00  0.00    +0.000 A 
ATOM     26  N   UNL     1       2.105   3.502  18.976  0.00  0.00    +0.000 N 
ENDBRANCH  15  19
ENDBRANCH   1  15
TORSDOF 4
ENDMDL
MODEL 2
REMARK VINA RESULT:      -8.7      4.453      6.530
REMARK  Name = 
REMARK  4 active torsions:
REMARK  status: ('A' for Active; 'I' for Inactive)
REMARK    1  A    between atoms: C_4  and  C_5
REMARK    2  A    between atoms: C_5  and  N_6
REMARK    3  A    between atoms: N_6  and  C_7
REMARK    4  A    between atoms: C_10  and  C_11
REMARK                            x       y       z     vdW  Elec       q    Type
REMARK                         _______ _______ _______ _____ _____    ______ ____
ROOT
ATOM      1  N   UNL     1       4.232   5.594  19.703  0.00  0.00    +0.000 N 
ATOM      2  H   UNL     1       4.581   6.478  20.075  0.00  0.00    +0.000 HD
ENDROOT
BRANCH   1   3
ATOM      3  C   UNL     1       4.723   5.321  18.418  0.00  0.00    +0.000 A 
ATOM      4  C   UNL     1       4.177   4.285  17.654  0.00  0.00    +0.000 A 
ATOM      5  C   UNL     1       4.639   4.014  16.350  0.00  0.00    +0.000 A 
ATOM      6  C   UNL     1       5.635   4.800  15.749  0.00  0.00    +0.000 A 
ATOM      7  C   UNL     1       6.103   5.891  16.494  0.00  0.00    +0.000 A 
ATOM      8  C   UNL     1       5.657   6.146  17.792  0.00  0.00    +0.000 A 
BRANCH   6   9
ATOM      9  C   UNL     1       6.184   4.532  14.396  0.00  0.00    +0.000 A 
ATOM     10  C   UNL     1       5.599   3.614  13.510  0.00  0.00    +0.000 A 
ATOM     11  C   UNL     1       6.116   3.415  12.223  0.00  0.00    +0.000 A 
ATOM     12  C   UNL     1       7.226   4.136  11.790  0.00  0.00    +0.000 A 
ATOM     13  C   UNL     1       7.832   5.044  12.648  0.00  0.00    +0.000 A 
ATOM     14  C   UNL     1       7.324   5.225  13.936  0.00  0.00    +0.000 A 
ENDBRANCH   6   9
ENDBRANCH   1   3
BRANCH   1  15
ATOM     15  C   UNL     1       2.778   5.528  19.874  0.00  0.00    +0.000 C 
BRANCH  15  19
ATOM     16  O   UNL     1       1.920   9.609  17.501  0.00  0.00    +0.000 OA
ATOM     17  C   UNL     1       1.774   8.975  18.545  0.00  0.00    +0.000 A 
ATOM     18  C   UNL     1       2.336   7.620  18.629  0.00  0.00    +0.000 A 
ATOM     19  C   UNL     1       2.199   6.924  19.764  0.00  0.00    +0.000 A 
ATOM     20  N   UNL     1       1.566   7.412  20.881  0.00  0.00    +0.000 NA
ATOM     21  C   UNL     1       1.065   8.608  20.809  0.00  0.00    +0.000 A 
ATOM     22  C   UNL     1       0.372   9.161  22.006  0.00  0.00    +0.000 A 
ATOM     23  C   UNL     1      -0.156  10.390  21.962  0.00  0.00    +0.000 A 
ATOM     24  C   UNL     1      -0.061  11.183  20.764  0.00  0.00    +0.000 A 
ATOM     25  C   UNL     1       0.566  10.693  19.687  0.00  0.00    +0.000 A 
ATOM     26  N   UNL     1       1.130   9.425  19.685  0.00  0.00    +0.000 N 
ENDBRANCH  15  19
ENDBRANCH   1  15
TORSDOF 4
ENDMDL
MODEL 3
REMARK VINA RESULT:      -8.6      4.487      6.599
REMARK  Name = 
REMARK  4 active torsions:
REMARK  status: ('A' for Active; 'I' for Inactive)
REMARK    1  A    between atoms: C_4  and  C_5
REMARK    2  A    between atoms: C_5  and  N_6
REMARK    3  A    between atoms: N_6  and  C_7
REMARK    4  A    between atoms: C_10  and  C_11
REMARK                            x       y       z     vdW  Elec       q    Type
REMARK                         _______ _______ _______ _____ _____    ______ ____
ROOT
ATOM      1  N   UNL     1       4.106   5.552  19.689  0.00  0.00    +0.000 N 
ATOM      2  H   UNL     1       4.489   6.402  20.105  0.00  0.00    +0.000 HD
ENDROOT
BRANCH   1   3
ATOM      3  C   UNL     1       4.588   5.325  18.392  0.00  0.00    +0.000 A 
ATOM      4  C   UNL     1       5.590   6.139  17.854  0.00  0.00    +0.000 A 
ATOM      5  C   UNL     1       6.107   5.909  16.563  0.00  0.00    +0.000 A 
ATOM      6  C   UNL     1       5.668   4.829  15.781  0.00  0.00    +0.000 A 
ATOM      7  C   UNL     1       4.732   3.969  16.374  0.00  0.00    +0.000 A 
ATOM      8  C   UNL     1       4.209   4.210  17.646  0.00  0.00    +0.000 A 
BRANCH   6   9
ATOM      9  C   UNL     1       6.149   4.567  14.402  0.00  0.00    +0.000 A 
ATOM     10  C   UNL     1       7.310   5.159  13.880  0.00  0.00    +0.000 A 
ATOM     11  C   UNL     1       7.763   4.858  12.588  0.00  0.00    +0.000 A 
ATOM     12  C   UNL     1       7.068   3.951  11.792  0.00  0.00    +0.000 A 
ATOM     13  C   UNL     1       5.912   3.356  12.278  0.00  0.00    +0.000 A 
ATOM     14  C   UNL     1       5.454   3.674  13.559  0.00  0.00    +0.000 A 
ENDBRANCH   6   9
ENDBRANCH   1   3
BRANCH   1  15
ATOM     15  C   UNL     1       2.651   5.534  19.859  0.00  0.00    +0.000 C 
BRANCH  15  19
ATOM     16  O   UNL     1       1.941   9.667  17.527  0.00  0.00    +0.000 OA
ATOM     17  C   UNL     1       1.769   9.027  18.564  0.00  0.00    +0.000 A 
ATOM     18  C   UNL     1       2.285   7.653  18.635  0.00  0.00    +0.000 A 
ATOM     19  C   UNL     1       2.120   6.950  19.761  0.00  0.00    +0.000 A 
ATOM     20  N   UNL     1       1.499   7.447  20.882  0.00  0.00    +0.000 NA
ATOM     21  C   UNL     1       1.039   8.660  20.820  0.00  0.00    +0.000 A 
ATOM     22  C   UNL     1       0.360   9.223  22.021  0.00  0.00    +0.000 A 
ATOM     23  C   UNL     1      -0.125  10.470  21.988  0.00  0.00    +0.000 A 
ATOM     24  C   UNL     1       0.001  11.272  20.799  0.00  0.00    +0.000 A 
ATOM     25  C   UNL     1       0.615  10.773  19.720  0.00  0.00    +0.000 A 
ATOM     26  N   UNL     1       1.137   9.487  19.706  0.00  0.00    +0.000 N 
ENDBRANCH  15  19
ENDBRANCH   1  15
TORSDOF 4
ENDMDL
MODEL 4
REMARK VINA RESULT:      -8.1      3.374      9.103
REMARK  Name = 
REMARK  4 active torsions:
REMARK  status: ('A' for Active; 'I' for Inactive)
REMARK    1  A    between atoms: C_4  and  C_5
REMARK    2  A    between atoms: C_5  and  N_6
REMARK    3  A    between atoms: N_6  and  C_7
REMARK    4  A    between atoms: C_10  and  C_11
REMARK                            x       y       z     vdW  Elec       q    Type
REMARK                         _______ _______ _______ _____ _____    ______ ____
ROOT
ATOM      1  N   UNL     1       7.403   7.685  17.253  0.00  0.00    +0.000 N 
ATOM      2  H   UNL     1       7.130   8.548  16.784  0.00  0.00    +0.000 HD
ENDROOT
BRANCH   1   3
ATOM      3  C   UNL     1       6.299   6.912  17.641  0.00  0.00    +0.000 A 
ATOM      4  C   UNL     1       5.044   7.126  17.061  0.00  0.00    +0.000 A 
ATOM      5  C   UNL     1       3.930   6.341  17.417  0.00  0.00    +0.000 A 
ATOM      6  C   UNL     1       4.041   5.285  18.335  0.00  0.00    +0.000 A 
ATOM      7  C   UNL     1       5.326   5.025  18.835  0.00  0.00    +0.000 A 
ATOM      8  C   UNL     1       6.424   5.817  18.494  0.00  0.00    +0.000 A 
BRANCH   6   9
ATOM      9  C   UNL     1       2.892   4.455  18.775  0.00  0.00    +0.000 A 
ATOM     10  C   UNL     1       2.482   3.304  18.084  0.00  0.00    +0.000 A 
ATOM     11  C   UNL     1       1.419   2.517  18.548  0.00  0.00    +0.000 A 
ATOM     12  C   UNL     1       0.747   2.860  19.718  0.00  0.00    +0.000 A 
ATOM     13  C   UNL     1       1.124   3.998  20.418  0.00  0.00    +0.000 A 
ATOM     14  C   UNL     1       2.171   4.790  19.941  0.00  0.00    +0.000 A 
ENDBRANCH   6   9
ENDBRANCH   1   3
BRANCH   1  15
ATOM     15  C   UNL     1       8.390   7.983  18.294  0.00  0.00    +0.000 C 
BRANCH  15  19
ATOM     16  O   UNL     1       7.571  12.481  16.837  0.00  0.00    +0.000 OA
ATOM     17  C   UNL     1       8.141  11.747  17.645  0.00  0.00    +0.000 A 
ATOM     18  C   UNL     1       7.946  10.295  17.534  0.00  0.00    +0.000 A 
ATOM     19  C   UNL     1       8.571   9.484  18.395  0.00  0.00    +0.000 A 
ATOM     20  N   UNL     1       9.412   9.932  19.386  0.00  0.00    +0.000 NA
ATOM     21  C   UNL     1       9.583  11.215  19.488  0.00  0.00    +0.000 A 
ATOM     22  C   UNL     1      10.488  11.728  20.554  0.00  0.00    +0.000 A 
ATOM     23  C   UNL     1      10.684  13.045  20.686  0.00  0.00    +0.000 A 
ATOM     24  C   UNL     1      10.024  13.973  19.804  0.00  0.00    +0.000 A 
ATOM     25  C   UNL     1       9.214  13.517  18.841  0.00  0.00    +0.000 A 
ATOM     26  N   UNL     1       8.982  12.161  18.664  0.00  0.00    +0.000 N 
ENDBRANCH  15  19
ENDBRANCH   1  15
TORSDOF 4
ENDMDL
MODEL 5
REMARK VINA RESULT:      -8.1      1.545      2.026
REMARK  Name = 
REMARK  4 active torsions:
REMARK  status: ('A' for Active; 'I' for Inactive)
REMARK    1  A    between atoms: C_4  and  C_5
REMARK    2  A    between atoms: C_5  and  N_6
REMARK    3  A    between atoms: N_6  and  C_7
REMARK    4  A    between atoms: C_10  and  C_11
REMARK                            x       y       z     vdW  Elec       q    Type
REMARK                         _______ _______ _______ _____ _____    ______ ____
ROOT
ATOM      1  N   UNL     1       6.677   5.387  17.207  0.00  0.00    +0.000 N 
ATOM      2  H   UNL     1       6.552   4.734  17.980  0.00  0.00    +0.000 HD
ENDROOT
BRANCH   1   3
ATOM      3  C   UNL     1       7.307   6.575  17.605  0.00  0.00    +0.000 A 
ATOM      4  C   UNL     1       7.013   7.784  16.966  0.00  0.00    +0.000 A 
ATOM      5  C   UNL     1       7.615   8.992  17.371  0.00  0.00    +0.000 A 
ATOM      6  C   UNL     1       8.501   9.040  18.459  0.00  0.00    +0.000 A 
ATOM      7  C   UNL     1       8.710   7.836  19.146  0.00  0.00    +0.000 A 
ATOM      8  C   UNL     1       8.126   6.637  18.731  0.00  0.00    +0.000 A 
BRANCH   6   9
ATOM      9  C   UNL     1       9.192  10.277  18.899  0.00  0.00    +0.000 A 
ATOM     10  C   UNL     1       9.621  11.266  18.000  0.00  0.00    +0.000 A 
ATOM     11  C   UNL     1      10.233  12.443  18.450  0.00  0.00    +0.000 A 
ATOM     12  C   UNL     1      10.422  12.662  19.812  0.00  0.00    +0.000 A 
ATOM     13  C   UNL     1      10.016  11.698  20.726  0.00  0.00    +0.000 A 
ATOM     14  C   UNL     1       9.425  10.517  20.271  0.00  0.00    +0.000 A 
ENDBRANCH   6   9
ENDBRANCH   1   3
BRANCH   1  15
ATOM     15  C   UNL     1       5.416   5.530  16.474  0.00  0.00    +0.000 C 
BRANCH  15  19
ATOM     16  O   UNL     1       2.316   6.763  19.924  0.00  0.00    +0.000 OA
ATOM     17  C   UNL     1       2.702   5.886  19.151  0.00  0.00    +0.000 A 
ATOM     18  C   UNL     1       3.819   6.189  18.245  0.00  0.00    +0.000 A 
ATOM     19  C   UNL     1       4.260   5.241  17.411  0.00  0.00    +0.000 A 
ATOM     20  N   UNL     1       3.733   3.973  17.357  0.00  0.00    +0.000 NA
ATOM     21  C   UNL     1       2.743   3.704  18.153  0.00  0.00    +0.000 A 
ATOM     22  C   UNL     1       2.153   2.337  18.114  0.00  0.00    +0.000 A 
ATOM     23  C   UNL     1       1.131   2.028  18.922  0.00  0.00    +0.000 A 
ATOM     24  C   UNL     1       0.596   3.010  19.829  0.00  0.00    +0.000 A 
ATOM     25  C   UNL     1       1.127   4.238  19.872  0.00  0.00    +0.000 A 
ATOM     26  N   UNL     1       2.188   4.604  19.056  0.00  0.00    +0.000 N 
ENDBRANCH  15  19
ENDBRANCH   1  15
TORSDOF 4
ENDMDL
MODEL 6
REMARK VINA RESULT:      -8.1      5.016      6.827
REMARK  Name = 
REMARK  4 active torsions:
REMARK  status: ('A' for Active; 'I' for Inactive)
REMARK    1  A    between atoms: C_4  and  C_5
REMARK    2  A    between atoms: C_5  and  N_6
REMARK    3  A    between atoms: N_6  and  C_7
REMARK    4  A    between atoms: C_10  and  C_11
REMARK                            x       y       z     vdW  Elec       q    Type
REMARK                         _______ _______ _______ _____ _____    ______ ____
ROOT
ATOM      1  N   UNL     1       2.527   5.723  20.463  0.00  0.00    +0.000 N 
ATOM      2  H   UNL     1       2.095   5.368  21.317  0.00  0.00    +0.000 HD
ENDROOT
BRANCH   1   3
ATOM      3  C   UNL     1       2.020   6.975  20.086  0.00  0.00    +0.000 A 
ATOM      4  C   UNL     1       1.336   7.772  21.010  0.00  0.00    +0.000 A 
ATOM      5  C   UNL     1       0.845   9.045  20.656  0.00  0.00    +0.000 A 
ATOM      6  C   UNL     1       1.059   9.583  19.378  0.00  0.00    +0.000 A 
ATOM      7  C   UNL     1       1.829   8.810  18.496  0.00  0.00    +0.000 A 
ATOM      8  C   UNL     1       2.298   7.542  18.843  0.00  0.00    +0.000 A 
BRANCH   6   9
ATOM      9  C   UNL     1       0.529  10.900  18.944  0.00  0.00    +0.000 A 
ATOM     10  C   UNL     1      -0.817  11.096  18.595  0.00  0.00    +0.000 A 
ATOM     11  C   UNL     1      -1.297  12.361  18.230  0.00  0.00    +0.000 A 
ATOM     12  C   UNL     1      -0.443  13.460  18.213  0.00  0.00    +0.000 A 
ATOM     13  C   UNL     1       0.896  13.295  18.543  0.00  0.00    +0.000 A 
ATOM     14  C   UNL     1       1.374  12.029  18.887  0.00  0.00    +0.000 A 
ENDBRANCH   6   9
ENDBRANCH   1   3
BRANCH   1  15
ATOM     15  C   UNL     1       2.517   4.677  19.437  0.00  0.00    +0.000 C 
BRANCH  15  19
ATOM     16  O   UNL     1       7.297   5.048  19.242  0.00  0.00    +0.000 OA
ATOM     17  C   UNL     1       6.250   4.886  18.616  0.00  0.00    +0.000 A 
ATOM     18  C   UNL     1       4.983   4.860  19.360  0.00  0.00    +0.000 A 
ATOM     19  C   UNL     1       3.835   4.700  18.691  0.00  0.00    +0.000 A 
ATOM     20  N   UNL     1       3.766   4.570  17.324  0.00  0.00    +0.000 NA
ATOM     21  C   UNL     1       4.885   4.589  16.665  0.00  0.00    +0.000 A 
ATOM     22  C   UNL     1       4.837   4.449  15.183  0.00  0.00    +0.000 A 
ATOM     23  C   UNL     1       5.973   4.464  14.475  0.00  0.00    +0.000 A 
ATOM     24  C   UNL     1       7.243   4.612  15.137  0.00  0.00    +0.000 A 
ATOM     25  C   UNL     1       7.291   4.744  16.468  0.00  0.00    +0.000 A 
ATOM     26  N   UNL     1       6.140   4.737  17.244  0.00  0.00    +0.000 N 
ENDBRANCH  15  19
ENDBRANCH   1  15
TORSDOF 4
ENDMDL
MODEL 7
REMARK VINA RESULT:      -8.0      6.923      8.623
REMARK  Name = 
REMARK  4 active torsions:
REMARK  status: ('A' for Active; 'I' for Inactive)
REMARK    1  A    between atoms: C_4  and  C_5
REMARK    2  A    between atoms: C_5  and  N_6
REMARK    3  A    between atoms: N_6  and  C_7
REMARK    4  A    between atoms: C_10  and  C_11
REMARK                            x       y       z     vdW  Elec       q    Type
REMARK                         _______ _______ _______ _____ _____    ______ ____
ROOT
ATOM      1  N   UNL     1       1.480   8.114  20.560  0.00  0.00    +0.000 N 
ATOM      2  H   UNL     1       1.010   7.209  20.590  0.00  0.00    +0.000 HD
ENDROOT
BRANCH   1   3
ATOM      3  C   UNL     1       0.728   9.129  21.170  0.00  0.00    +0.000 A 
ATOM      4  C   UNL     1       0.164  10.153  20.402  0.00  0.00    +0.000 A 
ATOM      5  C   UNL     1      -0.618  11.165  20.994  0.00  0.00    +0.000 A 
ATOM      6  C   UNL     1      -0.899  11.164  22.369  0.00  0.00    +0.000 A 
ATOM      7  C   UNL     1      -0.404  10.079  23.106  0.00  0.00    +0.000 A 
ATOM      8  C   UNL     1       0.385   9.087  22.521  0.00  0.00    +0.000 A 
BRANCH   6   9
ATOM      9  C   UNL     1      -1.682  12.227  23.047  0.00  0.00    +0.000 A 
ATOM     10  C   UNL     1      -1.164  13.509  23.292  0.00  0.00    +0.000 A 
ATOM     11  C   UNL     1      -1.943  14.506  23.895  0.00  0.00    +0.000 A 
ATOM     12  C   UNL     1      -3.261  14.244  24.260  0.00  0.00    +0.000 A 
ATOM     13  C   UNL     1      -3.798  12.983  24.040  0.00  0.00    +0.000 A 
ATOM     14  C   UNL     1      -3.011  11.987  23.456  0.00  0.00    +0.000 A 
ENDBRANCH   6   9
ENDBRANCH   1   3
BRANCH   1  15
ATOM     15  C   UNL     1       1.954   8.379  19.200  0.00  0.00    +0.000 C 
BRANCH  15  19
ATOM     16  O   UNL     1       2.931   3.681  19.234  0.00  0.00    +0.000 OA
ATOM     17  C   UNL     1       3.135   4.772  18.702  0.00  0.00    +0.000 A 
ATOM     18  C   UNL     1       2.435   5.952  19.227  0.00  0.00    +0.000 A 
ATOM     19  C   UNL     1       2.659   7.148  18.669  0.00  0.00    +0.000 A 
ATOM     20  N   UNL     1       3.532   7.346  17.625  0.00  0.00    +0.000 NA
ATOM     21  C   UNL     1       4.149   6.304  17.157  0.00  0.00    +0.000 A 
ATOM     22  C   UNL     1       5.099   6.491  16.025  0.00  0.00    +0.000 A 
ATOM     23  C   UNL     1       5.750   5.436  15.520  0.00  0.00    +0.000 A 
ATOM     24  C   UNL     1       5.537   4.119  16.062  0.00  0.00    +0.000 A 
ATOM     25  C   UNL     1       4.689   3.946  17.083  0.00  0.00    +0.000 A 
ATOM     26  N   UNL     1       3.993   5.009  17.642  0.00  0.00    +0.000 N 
ENDBRANCH  15  19
ENDBRANCH   1  15
TORSDOF 4
ENDMDL
MODEL 8
REMARK VINA RESULT:      -7.9      7.001      8.569
REMARK  Name = 
REMARK  4 active torsions:
REMARK  status: ('A' for Active; 'I' for Inactive)
REMARK    1  A    between atoms: C_4  and  C_5
REMARK    2  A    between atoms: C_5  and  N_6
REMARK    3  A    between atoms: N_6  and  C_7
REMARK    4  A    between atoms: C_10  and  C_11
REMARK                            x       y       z     vdW  Elec       q    Type
REMARK                         _______ _______ _______ _____ _____    ______ ____
ROOT
ATOM      1  N   UNL     1       1.463   8.502  20.289  0.00  0.00    +0.000 N 
ATOM      2  H   UNL     1       2.417   8.835  20.148  0.00  0.00    +0.000 HD
ENDROOT
BRANCH   1   3
ATOM      3  C   UNL     1       0.665   9.434  20.970  0.00  0.00    +0.000 A 
ATOM      4  C   UNL     1       0.097   9.112  22.207  0.00  0.00    +0.000 A 
ATOM      5  C   UNL     1      -0.684  10.045  22.919  0.00  0.00    +0.000 A 
ATOM      6  C   UNL     1      -0.887  11.348  22.438  0.00  0.00    +0.000 A 
ATOM      7  C   UNL     1      -0.231  11.681  21.244  0.00  0.00    +0.000 A 
ATOM      8  C   UNL     1       0.526  10.750  20.532  0.00  0.00    +0.000 A 
BRANCH   6   9
ATOM      9  C   UNL     1      -1.733  12.354  23.128  0.00  0.00    +0.000 A 
ATOM     10  C   UNL     1      -3.049  12.085  23.534  0.00  0.00    +0.000 A 
ATOM     11  C   UNL     1      -3.808  13.041  24.222  0.00  0.00    +0.000 A 
ATOM     12  C   UNL     1      -3.264  14.286  24.526  0.00  0.00    +0.000 A 
ATOM     13  C   UNL     1      -1.967  14.585  24.128  0.00  0.00    +0.000 A 
ATOM     14  C   UNL     1      -1.222  13.635  23.426  0.00  0.00    +0.000 A 
ENDBRANCH   6   9
ENDBRANCH   1   3
BRANCH   1  15
ATOM     15  C   UNL     1       1.491   7.143  20.836  0.00  0.00    +0.000 C 
BRANCH  15  19
ATOM     16  O   UNL     1       2.664   2.815  19.128  0.00  0.00    +0.000 OA
ATOM     17  C   UNL     1       2.784   4.034  19.014  0.00  0.00    +0.000 A 
ATOM     18  C   UNL     1       2.075   4.902  19.964  0.00  0.00    +0.000 A 
ATOM     19  C   UNL     1       2.208   6.230  19.862  0.00  0.00    +0.000 A 
ATOM     20  N   UNL     1       2.993   6.843  18.915  0.00  0.00    +0.000 NA
ATOM     21  C   UNL     1       3.619   6.078  18.072  0.00  0.00    +0.000 A 
ATOM     22  C   UNL     1       4.476   6.717  17.035  0.00  0.00    +0.000 A 
ATOM     23  C   UNL     1       5.132   5.956  16.152  0.00  0.00    +0.000 A 
ATOM     24  C   UNL     1       5.015   4.522  16.194  0.00  0.00    +0.000 A 
ATOM     25  C   UNL     1       4.250   3.942  17.128  0.00  0.00    +0.000 A 
ATOM     26  N   UNL     1       3.553   4.689  18.066  0.00  0.00    +0.000 N 
ENDBRANCH  15  19
ENDBRANCH   1  15
TORSDOF 4
ENDMDL
MODEL 9
REMARK VINA RESULT:      -7.9      6.976      9.260
REMARK  Name = 
REMARK  4 active torsions:
REMARK  status: ('A' for Active; 'I' for Inactive)
REMARK    1  A    between atoms: C_4  and  C_5
REMARK    2  A    between atoms: C_5  and  N_6
REMARK    3  A    between atoms: N_6  and  C_7
REMARK    4  A    between atoms: C_10  and  C_11
REMARK                            x       y       z     vdW  Elec       q    Type
REMARK                         _______ _______ _______ _____ _____    ______ ____
ROOT
ATOM      1  N   UNL     1       1.398  10.497  18.186  0.00  0.00    +0.000 N 
ATOM      2  H   UNL     1       0.733  10.512  17.412  0.00  0.00    +0.000 HD
ENDROOT
BRANCH   1   3
ATOM      3  C   UNL     1       1.702   9.194  18.606  0.00  0.00    +0.000 A 
ATOM      4  C   UNL     1       2.393   8.319  17.762  0.00  0.00    +0.000 A 
ATOM      5  C   UNL     1       2.732   7.015  18.178  0.00  0.00    +0.000 A 
ATOM      6  C   UNL     1       2.429   6.557  19.470  0.00  0.00    +0.000 A 
ATOM      7  C   UNL     1       1.821   7.480  20.332  0.00  0.00    +0.000 A 
ATOM      8  C   UNL     1       1.470   8.764  19.912  0.00  0.00    +0.000 A 
BRANCH   6   9
ATOM      9  C   UNL     1       2.727   5.182  19.942  0.00  0.00    +0.000 A 
ATOM     10  C   UNL     1       2.013   4.568  20.983  0.00  0.00    +0.000 A 
ATOM     11  C   UNL     1       2.290   3.252  21.378  0.00  0.00    +0.000 A 
ATOM     12  C   UNL     1       3.283   2.518  20.735  0.00  0.00    +0.000 A 
ATOM     13  C   UNL     1       4.014   3.102  19.709  0.00  0.00    +0.000 A 
ATOM     14  C   UNL     1       3.747   4.420  19.332  0.00  0.00    +0.000 A 
ENDBRANCH   6   9
ENDBRANCH   1   3
BRANCH   1  15
ATOM     15  C   UNL     1       0.966  11.435  19.225  0.00  0.00    +0.000 C 
BRANCH  15  19
ATOM     16  O   UNL     1      -3.289  12.696  21.051  0.00  0.00    +0.000 OA
ATOM     17  C   UNL     1      -2.673  12.268  20.075  0.00  0.00    +0.000 A 
ATOM     18  C   UNL     1      -1.216  12.101  20.181  0.00  0.00    +0.000 A 
ATOM     19  C   UNL     1      -0.535  11.622  19.135  0.00  0.00    +0.000 A 
ATOM     20  N   UNL     1      -1.126  11.256  17.949  0.00  0.00    +0.000 NA
ATOM     21  C   UNL     1      -2.412  11.405  17.851  0.00  0.00    +0.000 A 
ATOM     22  C   UNL     1      -3.077  11.017  16.576  0.00  0.00    +0.000 A 
ATOM     23  C   UNL     1      -4.401  11.160  16.444  0.00  0.00    +0.000 A 
ATOM     24  C   UNL     1      -5.189  11.689  17.526  0.00  0.00    +0.000 A 
ATOM     25  C   UNL     1      -4.597  12.035  18.676  0.00  0.00    +0.000 A 
ATOM     26  N   UNL     1      -3.228  11.902  18.861  0.00  0.00    +0.000 N 
ENDBRANCH  15  19
ENDBRANCH   1  15
TORSDOF 4
ENDMDL
