MODEL 1
REMARK VINA RESULT:      -8.2      0.000      0.000
REMARK  Name = 
REMARK  5 active torsions:
REMARK  status: ('A' for Active; 'I' for Inactive)
REMARK    1  A    between atoms: C_2  and  C_14
REMARK    2  A    between atoms: N_3  and  C_4
REMARK    3  A    between atoms: C_4  and  C_5
REMARK    4  A    between atoms: C_5  and  C_6
REMARK    5  A    between atoms: C_16  and  C_17
REMARK                            x       y       z     vdW  Elec       q    Type
REMARK                         _______ _______ _______ _____ _____    ______ ____
ROOT
ATOM      1  O   UNL     1       1.073   4.262  17.585  0.00  0.00    +0.000 OA
ATOM      2  C   UNL     1       1.683   3.497  18.320  0.00  0.00    +0.000 C 
ATOM      3  N   UNL     1       1.814   3.722  19.667  0.00  0.00    +0.000 N 
ATOM      4  H   UNL     1       2.336   3.084  20.254  0.00  0.00    +0.000 HD
ENDROOT
BRANCH   2   5
ATOM      5  C   UNL     1       2.358   2.267  17.816  0.00  0.00    +0.000 C 
ATOM      6  C   UNL     1       3.451   1.635  18.640  0.00  0.00    +0.000 C 
ATOM      7  C   UNL     1       3.795   2.252  17.307  0.00  0.00    +0.000 C 
BRANCH   7   8
ATOM      8  C   UNL     1       4.588   3.536  17.171  0.00  0.00    +0.000 A 
ATOM      9  C   UNL     1       4.489   4.388  16.062  0.00  0.00    +0.000 A 
ATOM     10  C   UNL     1       5.277   5.542  15.948  0.00  0.00    +0.000 A 
ATOM     11  C   UNL     1       6.172   5.901  16.964  0.00  0.00    +0.000 A 
ATOM     12  C   UNL     1       6.975   7.050  16.863  0.00  0.00    +0.000 A 
ATOM     13  C   UNL     1       7.849   7.400  17.893  0.00  0.00    +0.000 A 
ATOM     14  C   UNL     1       7.933   6.606  19.033  0.00  0.00    +0.000 A 
ATOM     15  C   UNL     1       7.150   5.455  19.140  0.00  0.00    +0.000 A 
ATOM     16  C   UNL     1       6.267   5.086  18.111  0.00  0.00    +0.000 A 
ATOM     17  C   UNL     1       5.477   3.924  18.194  0.00  0.00    +0.000 A 
ENDBRANCH   7   8
ENDBRANCH   2   5
BRANCH   3  18
ATOM     18  C   UNL     1       1.196   4.883  20.291  0.00  0.00    +0.000 C 
BRANCH  18  19
ATOM     19  C   UNL     1       2.197   5.995  20.619  0.00  0.00    +0.000 C 
BRANCH  19  20
ATOM     20  C   UNL     1       2.352   6.947  19.485  0.00  0.00    +0.000 A 
ATOM     21  N   UNL     1       3.053   6.769  18.375  0.00  0.00    +0.000 NA
ATOM     22  N   UNL     1       2.983   7.930  17.607  0.00  0.00    +0.000 NA
ATOM     23  C   UNL     1       2.235   8.762  18.277  0.00  0.00    +0.000 A 
ATOM     24  N   UNL     1       1.821   8.182  19.429  0.00  0.00    +0.000 N 
ATOM     25  C   UNL     1       0.993   9.047  20.237  0.00  0.00    +0.000 C 
ATOM     26  C   UNL     1       0.632  10.165  19.236  0.00  0.00    +0.000 C 
ATOM     27  C   UNL     1       1.737  10.142  18.146  0.00  0.00    +0.000 C 
ENDBRANCH  19  20
ENDBRANCH  18  19
ENDBRANCH   3  18
TORSDOF 5
ENDMDL
MODEL 2
REMARK VINA RESULT:      -8.2      4.177      7.023
REMARK  Name = 
REMARK  5 active torsions:
REMARK  status: ('A' for Active; 'I' for Inactive)
REMARK    1  A    between atoms: C_2  and  C_14
REMARK    2  A    between atoms: N_3  and  C_4
REMARK    3  A    between atoms: C_4  and  C_5
REMARK    4  A    between atoms: C_5  and  C_6
REMARK    5  A    between atoms: C_16  and  C_17
REMARK                            x       y       z     vdW  Elec       q    Type
REMARK                         _______ _______ _______ _____ _____    ______ ____
ROOT
ATOM      1  O   UNL     1       7.179   5.719  18.378  0.00  0.00    +0.000 OA
ATOM      2  C   UNL     1       7.132   6.280  17.291  0.00  0.00    +0.000 C 
ATOM      3  N   UNL     1       7.615   7.549  17.099  0.00  0.00    +0.000 N 
ATOM      4  H   UNL     1       7.553   8.000  16.195  0.00  0.00    +0.000 HD
ENDROOT
BRANCH   2   5
ATOM      5  C   UNL     1       6.524   5.645  16.087  0.00  0.00    +0.000 C 
ATOM      6  C   UNL     1       5.428   6.370  15.346  0.00  0.00    +0.000 C 
ATOM      7  C   UNL     1       5.106   5.083  16.065  0.00  0.00    +0.000 C 
BRANCH   7   8
ATOM      8  C   UNL     1       4.269   5.029  17.327  0.00  0.00    +0.000 A 
ATOM      9  C   UNL     1       3.504   6.109  17.790  0.00  0.00    +0.000 A 
ATOM     10  C   UNL     1       2.783   6.039  18.990  0.00  0.00    +0.000 A 
ATOM     11  C   UNL     1       2.777   4.865  19.754  0.00  0.00    +0.000 A 
ATOM     12  C   UNL     1       2.066   4.780  20.963  0.00  0.00    +0.000 A 
ATOM     13  C   UNL     1       2.058   3.598  21.703  0.00  0.00    +0.000 A 
ATOM     14  C   UNL     1       2.762   2.487  21.245  0.00  0.00    +0.000 A 
ATOM     15  C   UNL     1       3.484   2.563  20.052  0.00  0.00    +0.000 A 
ATOM     16  C   UNL     1       3.504   3.748  19.296  0.00  0.00    +0.000 A 
ATOM     17  C   UNL     1       4.234   3.849  18.097  0.00  0.00    +0.000 A 
ENDBRANCH   7   8
ENDBRANCH   2   5
BRANCH   3  18
ATOM     18  C   UNL     1       8.244   8.279  18.191  0.00  0.00    +0.000 C 
BRANCH  18  19
ATOM     19  C   UNL     1       8.377   9.779  17.912  0.00  0.00    +0.000 C 
BRANCH  19  20
ATOM     20  C   UNL     1       9.181  10.464  18.962  0.00  0.00    +0.000 A 
ATOM     21  N   UNL     1       9.019  10.389  20.275  0.00  0.00    +0.000 NA
ATOM     22  N   UNL     1       9.942  11.233  20.891  0.00  0.00    +0.000 NA
ATOM     23  C   UNL     1      10.632  11.778  19.927  0.00  0.00    +0.000 A 
ATOM     24  N   UNL     1      10.198  11.314  18.731  0.00  0.00    +0.000 N 
ATOM     25  C   UNL     1      10.908  11.880  17.608  0.00  0.00    +0.000 C 
ATOM     26  C   UNL     1      12.135  12.515  18.296  0.00  0.00    +0.000 C 
ATOM     27  C   UNL     1      11.723  12.755  19.774  0.00  0.00    +0.000 C 
ENDBRANCH  19  20
ENDBRANCH  18  19
ENDBRANCH   3  18
TORSDOF 5
ENDMDL
MODEL 3
REMARK VINA RESULT:      -7.9      2.287      4.375
REMARK  Name = 
REMARK  5 active torsions:
REMARK  status: ('A' for Active; 'I' for Inactive)
REMARK    1  A    between atoms: C_2  and  C_14
REMARK    2  A    between atoms: N_3  and  C_4
REMARK    3  A    between atoms: C_4  and  C_5
REMARK    4  A    between atoms: C_5  and  C_6
REMARK    5  A    between atoms: C_16  and  C_17
REMARK                            x       y       z     vdW  Elec       q    Type
REMARK                         _______ _______ _______ _____ _____    ______ ____
ROOT
ATOM      1  O   UNL     1       5.018   6.991  15.205  0.00  0.00    +0.000 OA
ATOM      2  C   UNL     1       5.309   6.247  16.132  0.00  0.00    +0.000 C 
ATOM      3  N   UNL     1       4.958   6.519  17.429  0.00  0.00    +0.000 N 
ATOM      4  H   UNL     1       5.221   5.896  18.183  0.00  0.00    +0.000 HD
ENDROOT
BRANCH   2   5
ATOM      5  C   UNL     1       6.091   4.992  15.938  0.00  0.00    +0.000 C 
ATOM      6  C   UNL     1       5.601   3.963  14.950  0.00  0.00    +0.000 C 
ATOM      7  C   UNL     1       5.612   3.626  16.421  0.00  0.00    +0.000 C 
BRANCH   7   8
ATOM      8  C   UNL     1       4.349   3.489  17.247  0.00  0.00    +0.000 A 
ATOM      9  C   UNL     1       3.061   3.651  16.715  0.00  0.00    +0.000 A 
ATOM     10  C   UNL     1       1.918   3.568  17.522  0.00  0.00    +0.000 A 
ATOM     11  C   UNL     1       2.025   3.285  18.890  0.00  0.00    +0.000 A 
ATOM     12  C   UNL     1       0.889   3.206  19.714  0.00  0.00    +0.000 A 
ATOM     13  C   UNL     1       1.014   2.907  21.071  0.00  0.00    +0.000 A 
ATOM     14  C   UNL     1       2.274   2.685  21.620  0.00  0.00    +0.000 A 
ATOM     15  C   UNL     1       3.411   2.775  20.814  0.00  0.00    +0.000 A 
ATOM     16  C   UNL     1       3.303   3.078  19.446  0.00  0.00    +0.000 A 
ATOM     17  C   UNL     1       4.437   3.183  18.619  0.00  0.00    +0.000 A 
ENDBRANCH   7   8
ENDBRANCH   2   5
BRANCH   3  18
ATOM     18  C   UNL     1       4.184   7.708  17.757  0.00  0.00    +0.000 C 
BRANCH  18  19
ATOM     19  C   UNL     1       2.683   7.433  17.884  0.00  0.00    +0.000 C 
BRANCH  19  20
ATOM     20  C   UNL     1       1.947   8.622  18.395  0.00  0.00    +0.000 A 
ATOM     21  N   UNL     1       1.677   9.743  17.741  0.00  0.00    +0.000 NA
ATOM     22  N   UNL     1       1.026  10.622  18.605  0.00  0.00    +0.000 NA
ATOM     23  C   UNL     1       0.919   9.995  19.745  0.00  0.00    +0.000 A 
ATOM     24  N   UNL     1       1.462   8.760  19.643  0.00  0.00    +0.000 N 
ATOM     25  C   UNL     1       1.393   8.002  20.871  0.00  0.00    +0.000 C 
ATOM     26  C   UNL     1       0.374   8.822  21.691  0.00  0.00    +0.000 C 
ATOM     27  C   UNL     1       0.397  10.257  21.097  0.00  0.00    +0.000 C 
ENDBRANCH  19  20
ENDBRANCH  18  19
ENDBRANCH   3  18
TORSDOF 5
ENDMDL
MODEL 4
REMARK VINA RESULT:      -7.6      0.765      1.452
REMARK  Name = 
REMARK  5 active torsions:
REMARK  status: ('A' for Active; 'I' for Inactive)
REMARK    1  A    between atoms: C_2  and  C_14
REMARK    2  A    between atoms: N_3  and  C_4
REMARK    3  A    between atoms: C_4  and  C_5
REMARK    4  A    between atoms: C_5  and  C_6
REMARK    5  A    between atoms: C_16  and  C_17
REMARK                            x       y       z     vdW  Elec       q    Type
REMARK                         _______ _______ _______ _____ _____    ______ ____
ROOT
ATOM      1  O   UNL     1       1.226   4.557  17.698  0.00  0.00    +0.000 OA
ATOM      2  C   UNL     1       1.653   3.657  18.408  0.00  0.00    +0.000 C 
ATOM      3  N   UNL     1       1.642   3.734  19.777  0.00  0.00    +0.000 N 
ATOM      4  H   UNL     1       2.014   2.984  20.345  0.00  0.00    +0.000 HD
ENDROOT
BRANCH   2   5
ATOM      5  C   UNL     1       2.244   2.406  17.850  0.00  0.00    +0.000 C 
ATOM      6  C   UNL     1       3.349   1.712  18.605  0.00  0.00    +0.000 C 
ATOM      7  C   UNL     1       3.651   2.336  17.265  0.00  0.00    +0.000 C 
BRANCH   7   8
ATOM      8  C   UNL     1       4.493   3.586  17.107  0.00  0.00    +0.000 A 
ATOM      9  C   UNL     1       4.472   4.387  15.956  0.00  0.00    +0.000 A 
ATOM     10  C   UNL     1       5.304   5.508  15.826  0.00  0.00    +0.000 A 
ATOM     11  C   UNL     1       6.166   5.885  16.864  0.00  0.00    +0.000 A 
ATOM     12  C   UNL     1       7.012   7.001  16.747  0.00  0.00    +0.000 A 
ATOM     13  C   UNL     1       7.852   7.370  17.798  0.00  0.00    +0.000 A 
ATOM     14  C   UNL     1       7.858   6.629  18.976  0.00  0.00    +0.000 A 
ATOM     15  C   UNL     1       7.032   5.510  19.099  0.00  0.00    +0.000 A 
ATOM     16  C   UNL     1       6.182   5.122  18.050  0.00  0.00    +0.000 A 
ATOM     17  C   UNL     1       5.350   3.992  18.150  0.00  0.00    +0.000 A 
ENDBRANCH   7   8
ENDBRANCH   2   5
BRANCH   3  18
ATOM     18  C   UNL     1       1.085   4.898  20.452  0.00  0.00    +0.000 C 
BRANCH  18  19
ATOM     19  C   UNL     1       2.129   5.976  20.753  0.00  0.00    +0.000 C 
BRANCH  19  20
ATOM     20  C   UNL     1       1.557   7.345  20.634  0.00  0.00    +0.000 A 
ATOM     21  N   UNL     1       0.817   7.988  21.526  0.00  0.00    +0.000 NA
ATOM     22  N   UNL     1       0.437   9.219  20.992  0.00  0.00    +0.000 NA
ATOM     23  C   UNL     1       0.970   9.277  19.803  0.00  0.00    +0.000 A 
ATOM     24  N   UNL     1       1.676   8.147  19.560  0.00  0.00    +0.000 N 
ATOM     25  C   UNL     1       2.290   8.129  18.253  0.00  0.00    +0.000 C 
ATOM     26  C   UNL     1       2.172   9.607  17.826  0.00  0.00    +0.000 C 
ATOM     27  C   UNL     1       1.004  10.203  18.659  0.00  0.00    +0.000 C 
ENDBRANCH  19  20
ENDBRANCH  18  19
ENDBRANCH   3  18
TORSDOF 5
ENDMDL
MODEL 5
REMARK VINA RESULT:      -7.6      4.079      6.801
REMARK  Name = 
REMARK  5 active torsions:
REMARK  status: ('A' for Active; 'I' for Inactive)
REMARK    1  A    between atoms: C_2  and  C_14
REMARK    2  A    between atoms: N_3  and  C_4
REMARK    3  A    between atoms: C_4  and  C_5
REMARK    4  A    between atoms: C_5  and  C_6
REMARK    5  A    between atoms: C_16  and  C_17
REMARK                            x       y       z     vdW  Elec       q    Type
REMARK                         _______ _______ _______ _____ _____    ______ ____
ROOT
ATOM      1  O   UNL     1       7.152   6.249  18.910  0.00  0.00    +0.000 OA
ATOM      2  C   UNL     1       7.328   6.342  17.702  0.00  0.00    +0.000 C 
ATOM      3  N   UNL     1       7.459   7.552  17.071  0.00  0.00    +0.000 N 
ATOM      4  H   UNL     1       7.589   7.607  16.069  0.00  0.00    +0.000 HD
ENDROOT
BRANCH   2   5
ATOM      5  C   UNL     1       7.391   5.151  16.807  0.00  0.00    +0.000 C 
ATOM      6  C   UNL     1       6.604   5.154  15.520  0.00  0.00    +0.000 C 
ATOM      7  C   UNL     1       6.224   4.187  16.615  0.00  0.00    +0.000 C 
BRANCH   7   8
ATOM      8  C   UNL     1       4.957   4.323  17.436  0.00  0.00    +0.000 A 
ATOM      9  C   UNL     1       3.986   5.305  17.193  0.00  0.00    +0.000 A 
ATOM     10  C   UNL     1       2.851   5.432  18.005  0.00  0.00    +0.000 A 
ATOM     11  C   UNL     1       2.633   4.554  19.075  0.00  0.00    +0.000 A 
ATOM     12  C   UNL     1       1.505   4.673  19.904  0.00  0.00    +0.000 A 
ATOM     13  C   UNL     1       1.297   3.779  20.955  0.00  0.00    +0.000 A 
ATOM     14  C   UNL     1       2.213   2.758  21.190  0.00  0.00    +0.000 A 
ATOM     15  C   UNL     1       3.345   2.638  20.382  0.00  0.00    +0.000 A 
ATOM     16  C   UNL     1       3.572   3.531  19.321  0.00  0.00    +0.000 A 
ATOM     17  C   UNL     1       4.712   3.435  18.501  0.00  0.00    +0.000 A 
ENDBRANCH   7   8
ENDBRANCH   2   5
BRANCH   3  18
ATOM     18  C   UNL     1       7.425   8.794  17.830  0.00  0.00    +0.000 C 
BRANCH  18  19
ATOM     19  C   UNL     1       8.816   9.284  18.243  0.00  0.00    +0.000 C 
BRANCH  19  20
ATOM     20  C   UNL     1       8.921  10.767  18.171  0.00  0.00    +0.000 A 
ATOM     21  N   UNL     1       8.118  11.600  17.524  0.00  0.00    +0.000 NA
ATOM     22  N   UNL     1       8.608  12.897  17.664  0.00  0.00    +0.000 NA
ATOM     23  C   UNL     1       9.683  12.800  18.397  0.00  0.00    +0.000 A 
ATOM     24  N   UNL     1       9.893  11.507  18.737  0.00  0.00    +0.000 N 
ATOM     25  C   UNL     1      11.075  11.313  19.544  0.00  0.00    +0.000 C 
ATOM     26  C   UNL     1      11.396  12.757  19.986  0.00  0.00    +0.000 C 
ATOM     27  C   UNL     1      10.728  13.687  18.937  0.00  0.00    +0.000 C 
ENDBRANCH  19  20
ENDBRANCH  18  19
ENDBRANCH   3  18
TORSDOF 5
ENDMDL
MODEL 6
REMARK VINA RESULT:      -7.6      4.061      6.858
REMARK  Name = 
REMARK  5 active torsions:
REMARK  status: ('A' for Active; 'I' for Inactive)
REMARK    1  A    between atoms: C_2  and  C_14
REMARK    2  A    between atoms: N_3  and  C_4
REMARK    3  A    between atoms: C_4  and  C_5
REMARK    4  A    between atoms: C_5  and  C_6
REMARK    5  A    between atoms: C_16  and  C_17
REMARK                            x       y       z     vdW  Elec       q    Type
REMARK                         _______ _______ _______ _____ _____    ______ ____
ROOT
ATOM      1  O   UNL     1       6.884   5.962  18.955  0.00  0.00    +0.000 OA
ATOM      2  C   UNL     1       6.838   6.230  17.762  0.00  0.00    +0.000 C 
ATOM      3  N   UNL     1       7.478   7.320  17.230  0.00  0.00    +0.000 N 
ATOM      4  H   UNL     1       7.415   7.531  16.242  0.00  0.00    +0.000 HD
ENDROOT
BRANCH   2   5
ATOM      5  C   UNL     1       6.064   5.411  16.785  0.00  0.00    +0.000 C 
ATOM      6  C   UNL     1       5.340   6.100  15.656  0.00  0.00    +0.000 C 
ATOM      7  C   UNL     1       4.540   5.400  16.726  0.00  0.00    +0.000 C 
BRANCH   7   8
ATOM      8  C   UNL     1       3.714   6.141  17.759  0.00  0.00    +0.000 A 
ATOM      9  C   UNL     1       3.416   5.619  19.025  0.00  0.00    +0.000 A 
ATOM     10  C   UNL     1       2.606   6.313  19.935  0.00  0.00    +0.000 A 
ATOM     11  C   UNL     1       2.092   7.576  19.616  0.00  0.00    +0.000 A 
ATOM     12  C   UNL     1       1.272   8.282  20.513  0.00  0.00    +0.000 A 
ATOM     13  C   UNL     1       0.782   9.547  20.185  0.00  0.00    +0.000 A 
ATOM     14  C   UNL     1       1.104  10.120  18.958  0.00  0.00    +0.000 A 
ATOM     15  C   UNL     1       1.907   9.422  18.052  0.00  0.00    +0.000 A 
ATOM     16  C   UNL     1       2.406   8.147  18.366  0.00  0.00    +0.000 A 
ATOM     17  C   UNL     1       3.208   7.423  17.463  0.00  0.00    +0.000 A 
ENDBRANCH   7   8
ENDBRANCH   2   5
BRANCH   3  18
ATOM     18  C   UNL     1       8.277   8.198  18.072  0.00  0.00    +0.000 C 
BRANCH  18  19
ATOM     19  C   UNL     1       8.055   9.684  17.773  0.00  0.00    +0.000 C 
BRANCH  19  20
ATOM     20  C   UNL     1       8.882  10.552  18.655  0.00  0.00    +0.000 A 
ATOM     21  N   UNL     1       9.505  10.203  19.772  0.00  0.00    +0.000 NA
ATOM     22  N   UNL     1      10.112  11.332  20.320  0.00  0.00    +0.000 NA
ATOM     23  C   UNL     1       9.841  12.318  19.509  0.00  0.00    +0.000 A 
ATOM     24  N   UNL     1       9.099  11.867  18.469  0.00  0.00    +0.000 N 
ATOM     25  C   UNL     1       8.747  12.904  17.528  0.00  0.00    +0.000 C 
ATOM     26  C   UNL     1       9.704  14.043  17.939  0.00  0.00    +0.000 C 
ATOM     27  C   UNL     1      10.095  13.765  19.416  0.00  0.00    +0.000 C 
ENDBRANCH  19  20
ENDBRANCH  18  19
ENDBRANCH   3  18
TORSDOF 5
ENDMDL
MODEL 7
REMARK VINA RESULT:      -7.6      4.151      6.984
REMARK  Name = 
REMARK  5 active torsions:
REMARK  status: ('A' for Active; 'I' for Inactive)
REMARK    1  A    between atoms: C_2  and  C_14
REMARK    2  A    between atoms: N_3  and  C_4
REMARK    3  A    between atoms: C_4  and  C_5
REMARK    4  A    between atoms: C_5  and  C_6
REMARK    5  A    between atoms: C_16  and  C_17
REMARK                            x       y       z     vdW  Elec       q    Type
REMARK                         _______ _______ _______ _____ _____    ______ ____
ROOT
ATOM      1  O   UNL     1       7.383   5.893  18.909  0.00  0.00    +0.000 OA
ATOM      2  C   UNL     1       7.177   6.277  17.765  0.00  0.00    +0.000 C 
ATOM      3  N   UNL     1       7.573   7.514  17.325  0.00  0.00    +0.000 N 
ATOM      4  H   UNL     1       7.379   7.818  16.379  0.00  0.00    +0.000 HD
ENDROOT
BRANCH   2   5
ATOM      5  C   UNL     1       6.456   5.448  16.757  0.00  0.00    +0.000 C 
ATOM      6  C   UNL     1       5.715   6.130  15.635  0.00  0.00    +0.000 C 
ATOM      7  C   UNL     1       4.935   5.366  16.676  0.00  0.00    +0.000 C 
BRANCH   7   8
ATOM      8  C   UNL     1       4.061   6.042  17.714  0.00  0.00    +0.000 A 
ATOM      9  C   UNL     1       3.826   5.507  18.988  0.00  0.00    +0.000 A 
ATOM     10  C   UNL     1       2.970   6.136  19.904  0.00  0.00    +0.000 A 
ATOM     11  C   UNL     1       2.344   7.347  19.582  0.00  0.00    +0.000 A 
ATOM     12  C   UNL     1       1.477   7.987  20.485  0.00  0.00    +0.000 A 
ATOM     13  C   UNL     1       0.875   9.201  20.154  0.00  0.00    +0.000 A 
ATOM     14  C   UNL     1       1.130   9.789  18.918  0.00  0.00    +0.000 A 
ATOM     15  C   UNL     1       1.979   9.156  18.007  0.00  0.00    +0.000 A 
ATOM     16  C   UNL     1       2.591   7.931  18.324  0.00  0.00    +0.000 A 
ATOM     17  C   UNL     1       3.441   7.272  17.416  0.00  0.00    +0.000 A 
ENDBRANCH   7   8
ENDBRANCH   2   5
BRANCH   3  18
ATOM     18  C   UNL     1       8.295   8.421  18.205  0.00  0.00    +0.000 C 
BRANCH  18  19
ATOM     19  C   UNL     1       8.128   9.894  17.819  0.00  0.00    +0.000 C 
BRANCH  19  20
ATOM     20  C   UNL     1       9.313  10.704  18.213  0.00  0.00    +0.000 A 
ATOM     21  N   UNL     1      10.313  11.098  17.437  0.00  0.00    +0.000 NA
ATOM     22  N   UNL     1      11.245  11.781  18.216  0.00  0.00    +0.000 NA
ATOM     23  C   UNL     1      10.769  11.783  19.430  0.00  0.00    +0.000 A 
ATOM     24  N   UNL     1       9.577  11.142  19.458  0.00  0.00    +0.000 N 
ATOM     25  C   UNL     1       8.987  11.091  20.775  0.00  0.00    +0.000 C 
ATOM     26  C   UNL     1       9.825  12.138  21.539  0.00  0.00    +0.000 C 
ATOM     27  C   UNL     1      11.166  12.263  20.765  0.00  0.00    +0.000 C 
ENDBRANCH  19  20
ENDBRANCH  18  19
ENDBRANCH   3  18
TORSDOF 5
ENDMDL
MODEL 8
REMARK VINA RESULT:      -7.6      2.620      6.266
REMARK  Name = 
REMARK  5 active torsions:
REMARK  status: ('A' for Active; 'I' for Inactive)
REMARK    1  A    between atoms: C_2  and  C_14
REMARK    2  A    between atoms: N_3  and  C_4
REMARK    3  A    between atoms: C_4  and  C_5
REMARK    4  A    between atoms: C_5  and  C_6
REMARK    5  A    between atoms: C_16  and  C_17
REMARK                            x       y       z     vdW  Elec       q    Type
REMARK                         _______ _______ _______ _____ _____    ______ ____
ROOT
ATOM      1  O   UNL     1       1.998   3.153  18.022  0.00  0.00    +0.000 OA
ATOM      2  C   UNL     1       2.893   3.361  18.831  0.00  0.00    +0.000 C 
ATOM      3  N   UNL     1       4.205   3.495  18.454  0.00  0.00    +0.000 N 
ATOM      4  H   UNL     1       4.932   3.652  19.141  0.00  0.00    +0.000 HD
ENDROOT
BRANCH   2   5
ATOM      5  C   UNL     1       2.642   3.462  20.297  0.00  0.00    +0.000 C 
ATOM      6  C   UNL     1       1.225   3.596  20.795  0.00  0.00    +0.000 C 
ATOM      7  C   UNL     1       2.184   4.747  20.980  0.00  0.00    +0.000 C 
BRANCH   7   8
ATOM      8  C   UNL     1       2.074   6.046  20.206  0.00  0.00    +0.000 A 
ATOM      9  C   UNL     1       2.595   6.218  18.915  0.00  0.00    +0.000 A 
ATOM     10  C   UNL     1       2.520   7.450  18.251  0.00  0.00    +0.000 A 
ATOM     11  C   UNL     1       1.887   8.548  18.848  0.00  0.00    +0.000 A 
ATOM     12  C   UNL     1       1.810   9.792  18.199  0.00  0.00    +0.000 A 
ATOM     13  C   UNL     1       1.162  10.870  18.802  0.00  0.00    +0.000 A 
ATOM     14  C   UNL     1       0.585  10.719  20.060  0.00  0.00    +0.000 A 
ATOM     15  C   UNL     1       0.667   9.491  20.721  0.00  0.00    +0.000 A 
ATOM     16  C   UNL     1       1.319   8.396  20.129  0.00  0.00    +0.000 A 
ATOM     17  C   UNL     1       1.422   7.154  20.782  0.00  0.00    +0.000 A 
ENDBRANCH   7   8
ENDBRANCH   2   5
BRANCH   3  18
ATOM     18  C   UNL     1       4.587   3.426  17.051  0.00  0.00    +0.000 C 
BRANCH  18  19
ATOM     19  C   UNL     1       4.690   4.803  16.388  0.00  0.00    +0.000 C 
BRANCH  19  20
ATOM     20  C   UNL     1       5.860   4.885  15.471  0.00  0.00    +0.000 A 
ATOM     21  N   UNL     1       7.025   5.472  15.704  0.00  0.00    +0.000 NA
ATOM     22  N   UNL     1       7.816   5.372  14.561  0.00  0.00    +0.000 NA
ATOM     23  C   UNL     1       7.104   4.720  13.684  0.00  0.00    +0.000 A 
ATOM     24  N   UNL     1       5.903   4.395  14.219  0.00  0.00    +0.000 N 
ATOM     25  C   UNL     1       5.047   3.677  13.303  0.00  0.00    +0.000 C 
ATOM     26  C   UNL     1       6.041   3.263  12.198  0.00  0.00    +0.000 C 
ATOM     27  C   UNL     1       7.228   4.261  12.291  0.00  0.00    +0.000 C 
ENDBRANCH  19  20
ENDBRANCH  18  19
ENDBRANCH   3  18
TORSDOF 5
ENDMDL
MODEL 9
REMARK VINA RESULT:      -7.5      1.802      5.368
REMARK  Name = 
REMARK  5 active torsions:
REMARK  status: ('A' for Active; 'I' for Inactive)
REMARK    1  A    between atoms: C_2  and  C_14
REMARK    2  A    between atoms: N_3  and  C_4
REMARK    3  A    between atoms: C_4  and  C_5
REMARK    4  A    between atoms: C_5  and  C_6
REMARK    5  A    between atoms: C_16  and  C_17
REMARK                            x       y       z     vdW  Elec       q    Type
REMARK                         _______ _______ _______ _____ _____    ______ ____
ROOT
ATOM      1  O   UNL     1       1.655   2.712  18.303  0.00  0.00    +0.000 OA
ATOM      2  C   UNL     1       2.663   3.075  18.895  0.00  0.00    +0.000 C 
ATOM      3  N   UNL     1       3.855   3.288  18.252  0.00  0.00    +0.000 N 
ATOM      4  H   UNL     1       4.680   3.573  18.764  0.00  0.00    +0.000 HD
ENDROOT
BRANCH   2   5
ATOM      5  C   UNL     1       2.692   3.293  20.370  0.00  0.00    +0.000 C 
ATOM      6  C   UNL     1       1.404   3.587  21.097  0.00  0.00    +0.000 C 
ATOM      7  C   UNL     1       2.465   4.656  21.018  0.00  0.00    +0.000 C 
BRANCH   7   8
ATOM      8  C   UNL     1       2.318   5.906  20.173  0.00  0.00    +0.000 A 
ATOM      9  C   UNL     1       2.857   6.032  18.885  0.00  0.00    +0.000 A 
ATOM     10  C   UNL     1       2.744   7.223  18.155  0.00  0.00    +0.000 A 
ATOM     11  C   UNL     1       2.053   8.323  18.680  0.00  0.00    +0.000 A 
ATOM     12  C   UNL     1       1.936   9.526  17.964  0.00  0.00    +0.000 A 
ATOM     13  C   UNL     1       1.231  10.605  18.496  0.00  0.00    +0.000 A 
ATOM     14  C   UNL     1       0.635  10.496  19.750  0.00  0.00    +0.000 A 
ATOM     15  C   UNL     1       0.755   9.309  20.477  0.00  0.00    +0.000 A 
ATOM     16  C   UNL     1       1.465   8.214  19.956  0.00  0.00    +0.000 A 
ATOM     17  C   UNL     1       1.607   7.013  20.677  0.00  0.00    +0.000 A 
ENDBRANCH   7   8
ENDBRANCH   2   5
BRANCH   3  18
ATOM     18  C   UNL     1       3.963   3.119  16.810  0.00  0.00    +0.000 C 
BRANCH  18  19
ATOM     19  C   UNL     1       5.359   3.441  16.270  0.00  0.00    +0.000 C 
BRANCH  19  20
ATOM     20  C   UNL     1       5.677   4.890  16.394  0.00  0.00    +0.000 A 
ATOM     21  N   UNL     1       5.150   5.891  15.704  0.00  0.00    +0.000 NA
ATOM     22  N   UNL     1       5.770   7.079  16.088  0.00  0.00    +0.000 NA
ATOM     23  C   UNL     1       6.641   6.752  17.002  0.00  0.00    +0.000 A 
ATOM     24  N   UNL     1       6.597   5.417  17.223  0.00  0.00    +0.000 N 
ATOM     25  C   UNL     1       7.543   4.971  18.219  0.00  0.00    +0.000 C 
ATOM     26  C   UNL     1       7.956   6.303  18.881  0.00  0.00    +0.000 C 
ATOM     27  C   UNL     1       7.657   7.414  17.838  0.00  0.00    +0.000 C 
ENDBRANCH  19  20
ENDBRANCH  18  19
ENDBRANCH   3  18
TORSDOF 5
ENDMDL
