MODEL 1
REMARK VINA RESULT:      -8.3      0.000      0.000
REMARK  Name = 
REMARK  5 active torsions:
REMARK  status: ('A' for Active; 'I' for Inactive)
REMARK    1  A    between atoms: S_2  and  N_4
REMARK    2  A    between atoms: S_2  and  C_17
REMARK    3  A    between atoms: N_4  and  C_5
REMARK    4  A    between atoms: C_5  and  C_6
REMARK    5  A    between atoms: C_6  and  N_7
REMARK                            x       y       z     vdW  Elec       q    Type
REMARK                         _______ _______ _______ _____ _____    ______ ____
ROOT
ATOM      1  N   UNL     1       3.053   2.470  20.110  0.00  0.00    +0.000 NA
ATOM      2  H   UNL     1       3.945   2.791  20.490  0.00  0.00    +0.000 HD
ENDROOT
BRANCH   1   4
ATOM      3  O   UNL     1       3.886   0.868  18.333  0.00  0.00    +0.000 OA
ATOM      4  S   UNL     1       3.196   2.131  18.443  0.00  0.00    +0.000 S 
ATOM      5  O   UNL     1       1.923   2.367  17.798  0.00  0.00    +0.000 OA
BRANCH   4   6
ATOM      6  C   UNL     1       4.326   3.399  17.907  0.00  0.00    +0.000 A 
ATOM      7  C   UNL     1       4.189   3.915  16.619  0.00  0.00    +0.000 A 
ATOM      8  C   UNL     1       5.009   4.963  16.204  0.00  0.00    +0.000 A 
ATOM      9  C   UNL     1       5.966   5.508  17.072  0.00  0.00    +0.000 A 
ATOM     10  C   UNL     1       6.780   6.577  16.664  0.00  0.00    +0.000 A 
ATOM     11  C   UNL     1       7.723   7.126  17.534  0.00  0.00    +0.000 A 
ATOM     12  C   UNL     1       7.867   6.611  18.817  0.00  0.00    +0.000 A 
ATOM     13  C   UNL     1       7.065   5.549  19.241  0.00  0.00    +0.000 A 
ATOM     14  C   UNL     1       6.103   4.986  18.381  0.00  0.00    +0.000 A 
ATOM     15  C   UNL     1       5.270   3.930  18.794  0.00  0.00    +0.000 A 
ENDBRANCH   4   6
ENDBRANCH   1   4
BRANCH   1  16
ATOM     16  C   UNL     1       1.917   3.350  20.451  0.00  0.00    +0.000 C 
BRANCH  16  17
ATOM     17  C   UNL     1       2.372   4.755  20.893  0.00  0.00    +0.000 C 
BRANCH  17  18
ATOM     18  N   UNL     1       1.664   5.820  20.154  0.00  0.00    +0.000 NA
ATOM     19  C   UNL     1       2.059   5.883  18.733  0.00  0.00    +0.000 C 
ATOM     20  C   UNL     1       2.862   7.127  18.312  0.00  0.00    +0.000 C 
ATOM     21  C   UNL     1       2.095   8.355  18.723  0.00  0.00    +0.000 A 
ATOM     22  C   UNL     1       1.966   9.484  17.915  0.00  0.00    +0.000 A 
ATOM     23  C   UNL     1       1.207  10.568  18.358  0.00  0.00    +0.000 A 
ATOM     24  C   UNL     1       0.595  10.535  19.613  0.00  0.00    +0.000 A 
ATOM     25  C   UNL     1       0.742   9.418  20.433  0.00  0.00    +0.000 A 
ATOM     26  C   UNL     1       1.483   8.321  19.986  0.00  0.00    +0.000 A 
ATOM     27  C   UNL     1       1.736   7.118  20.857  0.00  0.00    +0.000 C 
ENDBRANCH  17  18
ENDBRANCH  16  17
ENDBRANCH   1  16
TORSDOF 5
ENDMDL
MODEL 2
REMARK VINA RESULT:      -7.9      4.951      7.646
REMARK  Name = 
REMARK  5 active torsions:
REMARK  status: ('A' for Active; 'I' for Inactive)
REMARK    1  A    between atoms: S_2  and  N_4
REMARK    2  A    between atoms: S_2  and  C_17
REMARK    3  A    between atoms: N_4  and  C_5
REMARK    4  A    between atoms: C_5  and  C_6
REMARK    5  A    between atoms: C_6  and  N_7
REMARK                            x       y       z     vdW  Elec       q    Type
REMARK                         _______ _______ _______ _____ _____    ______ ____
ROOT
ATOM      1  N   UNL     1       6.916   7.456  16.796  0.00  0.00    +0.000 NA
ATOM      2  H   UNL     1       5.967   7.790  16.970  0.00  0.00    +0.000 HD
ENDROOT
BRANCH   1   4
ATOM      3  O   UNL     1       6.921   5.491  15.196  0.00  0.00    +0.000 OA
ATOM      4  S   UNL     1       6.931   5.758  16.615  0.00  0.00    +0.000 S 
ATOM      5  O   UNL     1       7.932   5.194  17.493  0.00  0.00    +0.000 OA
BRANCH   4   6
ATOM      6  C   UNL     1       5.329   5.307  17.249  0.00  0.00    +0.000 A 
ATOM      7  C   UNL     1       4.419   6.321  17.548  0.00  0.00    +0.000 A 
ATOM      8  C   UNL     1       3.132   5.990  17.968  0.00  0.00    +0.000 A 
ATOM      9  C   UNL     1       2.740   4.649  18.087  0.00  0.00    +0.000 A 
ATOM     10  C   UNL     1       1.438   4.313  18.491  0.00  0.00    +0.000 A 
ATOM     11  C   UNL     1       1.048   2.978  18.597  0.00  0.00    +0.000 A 
ATOM     12  C   UNL     1       1.954   1.964  18.306  0.00  0.00    +0.000 A 
ATOM     13  C   UNL     1       3.253   2.279  17.901  0.00  0.00    +0.000 A 
ATOM     14  C   UNL     1       3.664   3.620  17.781  0.00  0.00    +0.000 A 
ATOM     15  C   UNL     1       4.960   3.961  17.354  0.00  0.00    +0.000 A 
ENDBRANCH   4   6
ENDBRANCH   1   4
BRANCH   1  16
ATOM     16  C   UNL     1       7.908   7.967  17.764  0.00  0.00    +0.000 C 
BRANCH  16  17
ATOM     17  C   UNL     1       7.806   9.493  17.962  0.00  0.00    +0.000 C 
BRANCH  17  18
ATOM     18  N   UNL     1       9.115  10.095  18.279  0.00  0.00    +0.000 NA
ATOM     19  C   UNL     1       9.385  10.134  19.730  0.00  0.00    +0.000 C 
ATOM     20  C   UNL     1       9.401  11.532  20.374  0.00  0.00    +0.000 C 
ATOM     21  C   UNL     1      10.367  12.400  19.613  0.00  0.00    +0.000 A 
ATOM     22  C   UNL     1      11.256  13.280  20.230  0.00  0.00    +0.000 A 
ATOM     23  C   UNL     1      12.142  14.025  19.451  0.00  0.00    +0.000 A 
ATOM     24  C   UNL     1      12.130  13.908  18.060  0.00  0.00    +0.000 A 
ATOM     25  C   UNL     1      11.226  13.047  17.439  0.00  0.00    +0.000 A 
ATOM     26  C   UNL     1      10.350  12.283  18.214  0.00  0.00    +0.000 A 
ATOM     27  C   UNL     1       9.304  11.393  17.596  0.00  0.00    +0.000 C 
ENDBRANCH  17  18
ENDBRANCH  16  17
ENDBRANCH   1  16
TORSDOF 5
ENDMDL
MODEL 3
REMARK VINA RESULT:      -7.9      4.873      7.401
REMARK  Name = 
REMARK  5 active torsions:
REMARK  status: ('A' for Active; 'I' for Inactive)
REMARK    1  A    between atoms: S_2  and  N_4
REMARK    2  A    between atoms: S_2  and  C_17
REMARK    3  A    between atoms: N_4  and  C_5
REMARK    4  A    between atoms: C_5  and  C_6
REMARK    5  A    between atoms: C_6  and  N_7
REMARK                            x       y       z     vdW  Elec       q    Type
REMARK                         _______ _______ _______ _____ _____    ______ ____
ROOT
ATOM      1  N   UNL     1       6.807   7.199  17.812  0.00  0.00    +0.000 NA
ATOM      2  H   UNL     1       6.212   7.456  18.601  0.00  0.00    +0.000 HD
ENDROOT
BRANCH   1   4
ATOM      3  O   UNL     1       7.490   5.182  16.439  0.00  0.00    +0.000 OA
ATOM      4  S   UNL     1       7.066   5.512  17.779  0.00  0.00    +0.000 S 
ATOM      5  O   UNL     1       7.835   5.125  18.942  0.00  0.00    +0.000 OA
BRANCH   4   6
ATOM      6  C   UNL     1       5.412   4.883  17.981  0.00  0.00    +0.000 A 
ATOM      7  C   UNL     1       4.898   4.031  17.004  0.00  0.00    +0.000 A 
ATOM      8  C   UNL     1       3.637   3.462  17.179  0.00  0.00    +0.000 A 
ATOM      9  C   UNL     1       2.885   3.732  18.331  0.00  0.00    +0.000 A 
ATOM     10  C   UNL     1       1.623   3.144  18.520  0.00  0.00    +0.000 A 
ATOM     11  C   UNL     1       0.882   3.405  19.673  0.00  0.00    +0.000 A 
ATOM     12  C   UNL     1       1.389   4.258  20.646  0.00  0.00    +0.000 A 
ATOM     13  C   UNL     1       2.643   4.850  20.477  0.00  0.00    +0.000 A 
ATOM     14  C   UNL     1       3.409   4.594  19.325  0.00  0.00    +0.000 A 
ATOM     15  C   UNL     1       4.682   5.163  19.143  0.00  0.00    +0.000 A 
ENDBRANCH   4   6
ENDBRANCH   1   4
BRANCH   1  16
ATOM     16  C   UNL     1       8.045   8.000  17.722  0.00  0.00    +0.000 C 
BRANCH  16  17
ATOM     17  C   UNL     1       7.773   9.516  17.797  0.00  0.00    +0.000 C 
BRANCH  17  18
ATOM     18  N   UNL     1       8.988  10.276  18.149  0.00  0.00    +0.000 NA
ATOM     19  C   UNL     1       9.408  10.060  19.547  0.00  0.00    +0.000 C 
ATOM     20  C   UNL     1       9.257  11.268  20.490  0.00  0.00    +0.000 C 
ATOM     21  C   UNL     1       9.971  12.444  19.879  0.00  0.00    +0.000 A 
ATOM     22  C   UNL     1      10.760  13.327  20.615  0.00  0.00    +0.000 A 
ATOM     23  C   UNL     1      11.415  14.374  19.964  0.00  0.00    +0.000 A 
ATOM     24  C   UNL     1      11.267  14.552  18.587  0.00  0.00    +0.000 A 
ATOM     25  C   UNL     1      10.460  13.685  17.853  0.00  0.00    +0.000 A 
ATOM     26  C   UNL     1       9.818  12.623  18.495  0.00  0.00    +0.000 A 
ATOM     27  C   UNL     1       8.876  11.700  17.767  0.00  0.00    +0.000 C 
ENDBRANCH  17  18
ENDBRANCH  16  17
ENDBRANCH   1  16
TORSDOF 5
ENDMDL
MODEL 4
REMARK VINA RESULT:      -7.7      5.287      7.610
REMARK  Name = 
REMARK  5 active torsions:
REMARK  status: ('A' for Active; 'I' for Inactive)
REMARK    1  A    between atoms: S_2  and  N_4
REMARK    2  A    between atoms: S_2  and  C_17
REMARK    3  A    between atoms: N_4  and  C_5
REMARK    4  A    between atoms: C_5  and  C_6
REMARK    5  A    between atoms: C_6  and  N_7
REMARK                            x       y       z     vdW  Elec       q    Type
REMARK                         _______ _______ _______ _____ _____    ______ ____
ROOT
ATOM      1  N   UNL     1       6.962   8.017  17.729  0.00  0.00    +0.000 NA
ATOM      2  H   UNL     1       6.474   8.229  18.600  0.00  0.00    +0.000 HD
ENDROOT
BRANCH   1   4
ATOM      3  O   UNL     1       7.513   6.098  16.170  0.00  0.00    +0.000 OA
ATOM      4  S   UNL     1       7.170   6.332  17.552  0.00  0.00    +0.000 S 
ATOM      5  O   UNL     1       7.986   5.835  18.638  0.00  0.00    +0.000 OA
BRANCH   4   6
ATOM      6  C   UNL     1       5.511   5.730  17.794  0.00  0.00    +0.000 A 
ATOM      7  C   UNL     1       4.454   6.636  17.718  0.00  0.00    +0.000 A 
ATOM      8  C   UNL     1       3.142   6.176  17.824  0.00  0.00    +0.000 A 
ATOM      9  C   UNL     1       2.875   4.811  17.999  0.00  0.00    +0.000 A 
ATOM     10  C   UNL     1       1.554   4.342  18.086  0.00  0.00    +0.000 A 
ATOM     11  C   UNL     1       1.291   2.982  18.247  0.00  0.00    +0.000 A 
ATOM     12  C   UNL     1       2.342   2.076  18.329  0.00  0.00    +0.000 A 
ATOM     13  C   UNL     1       3.662   2.523  18.243  0.00  0.00    +0.000 A 
ATOM     14  C   UNL     1       3.949   3.891  18.073  0.00  0.00    +0.000 A 
ATOM     15  C   UNL     1       5.270   4.361  17.963  0.00  0.00    +0.000 A 
ENDBRANCH   4   6
ENDBRANCH   1   4
BRANCH   1  16
ATOM     16  C   UNL     1       8.201   8.799  17.542  0.00  0.00    +0.000 C 
BRANCH  16  17
ATOM     17  C   UNL     1       8.837   9.225  18.881  0.00  0.00    +0.000 C 
BRANCH  17  18
ATOM     18  N   UNL     1       8.985  10.690  18.978  0.00  0.00    +0.000 NA
ATOM     19  C   UNL     1       9.896  11.237  17.953  0.00  0.00    +0.000 C 
ATOM     20  C   UNL     1      11.234  11.795  18.470  0.00  0.00    +0.000 C 
ATOM     21  C   UNL     1      10.947  12.808  19.546  0.00  0.00    +0.000 A 
ATOM     22  C   UNL     1      11.625  14.022  19.655  0.00  0.00    +0.000 A 
ATOM     23  C   UNL     1      11.274  14.921  20.663  0.00  0.00    +0.000 A 
ATOM     24  C   UNL     1      10.263  14.602  21.572  0.00  0.00    +0.000 A 
ATOM     25  C   UNL     1       9.600  13.380  21.480  0.00  0.00    +0.000 A 
ATOM     26  C   UNL     1       9.933  12.484  20.461  0.00  0.00    +0.000 A 
ATOM     27  C   UNL     1       9.302  11.121  20.357  0.00  0.00    +0.000 C 
ENDBRANCH  17  18
ENDBRANCH  16  17
ENDBRANCH   1  16
TORSDOF 5
ENDMDL
MODEL 5
REMARK VINA RESULT:      -7.6      5.074      7.421
REMARK  Name = 
REMARK  5 active torsions:
REMARK  status: ('A' for Active; 'I' for Inactive)
REMARK    1  A    between atoms: S_2  and  N_4
REMARK    2  A    between atoms: S_2  and  C_17
REMARK    3  A    between atoms: N_4  and  C_5
REMARK    4  A    between atoms: C_5  and  C_6
REMARK    5  A    between atoms: C_6  and  N_7
REMARK                            x       y       z     vdW  Elec       q    Type
REMARK                         _______ _______ _______ _____ _____    ______ ____
ROOT
ATOM      1  N   UNL     1       6.853   7.715  17.779  0.00  0.00    +0.000 NA
ATOM      2  H   UNL     1       6.412   7.891  18.683  0.00  0.00    +0.000 HD
ENDROOT
BRANCH   1   4
ATOM      3  O   UNL     1       7.519   5.863  16.183  0.00  0.00    +0.000 OA
ATOM      4  S   UNL     1       7.135   6.045  17.563  0.00  0.00    +0.000 S 
ATOM      5  O   UNL     1       7.947   5.554  18.654  0.00  0.00    +0.000 OA
BRANCH   4   6
ATOM      6  C   UNL     1       5.498   5.369  17.750  0.00  0.00    +0.000 A 
ATOM      7  C   UNL     1       4.966   4.609  16.709  0.00  0.00    +0.000 A 
ATOM      8  C   UNL     1       3.720   4.003  16.864  0.00  0.00    +0.000 A 
ATOM      9  C   UNL     1       3.000   4.142  18.059  0.00  0.00    +0.000 A 
ATOM     10  C   UNL     1       1.755   3.516  18.226  0.00  0.00    +0.000 A 
ATOM     11  C   UNL     1       1.047   3.646  19.420  0.00  0.00    +0.000 A 
ATOM     12  C   UNL     1       1.571   4.407  20.459  0.00  0.00    +0.000 A 
ATOM     13  C   UNL     1       2.810   5.036  20.313  0.00  0.00    +0.000 A 
ATOM     14  C   UNL     1       3.543   4.911  19.118  0.00  0.00    +0.000 A 
ATOM     15  C   UNL     1       4.802   5.518  18.956  0.00  0.00    +0.000 A 
ENDBRANCH   4   6
ENDBRANCH   1   4
BRANCH   1  16
ATOM     16  C   UNL     1       8.035   8.563  17.524  0.00  0.00    +0.000 C 
BRANCH  16  17
ATOM     17  C   UNL     1       8.753   8.979  18.824  0.00  0.00    +0.000 C 
BRANCH  17  18
ATOM     18  N   UNL     1       8.840  10.446  18.958  0.00  0.00    +0.000 NA
ATOM     19  C   UNL     1       9.580  11.075  17.846  0.00  0.00    +0.000 C 
ATOM     20  C   UNL     1      10.946  11.687  18.207  0.00  0.00    +0.000 C 
ATOM     21  C   UNL     1      10.753  12.648  19.350  0.00  0.00    +0.000 A 
ATOM     22  C   UNL     1      11.379  13.892  19.418  0.00  0.00    +0.000 A 
ATOM     23  C   UNL     1      11.119  14.737  20.498  0.00  0.00    +0.000 A 
ATOM     24  C   UNL     1      10.254  14.335  21.517  0.00  0.00    +0.000 A 
ATOM     25  C   UNL     1       9.645  13.082  21.463  0.00  0.00    +0.000 A 
ATOM     26  C   UNL     1       9.885  12.240  20.375  0.00  0.00    +0.000 A 
ATOM     27  C   UNL     1       9.314  10.848  20.300  0.00  0.00    +0.000 C 
ENDBRANCH  17  18
ENDBRANCH  16  17
ENDBRANCH   1  16
TORSDOF 5
ENDMDL
MODEL 6
REMARK VINA RESULT:      -7.6      4.297      8.672
REMARK  Name = 
REMARK  5 active torsions:
REMARK  status: ('A' for Active; 'I' for Inactive)
REMARK    1  A    between atoms: S_2  and  N_4
REMARK    2  A    between atoms: S_2  and  C_17
REMARK    3  A    between atoms: N_4  and  C_5
REMARK    4  A    between atoms: C_5  and  C_6
REMARK    5  A    between atoms: C_6  and  N_7
REMARK                            x       y       z     vdW  Elec       q    Type
REMARK                         _______ _______ _______ _____ _____    ______ ____
ROOT
ATOM      1  N   UNL     1       1.516   9.700  17.559  0.00  0.00    +0.000 NA
ATOM      2  H   UNL     1       2.342  10.169  17.184  0.00  0.00    +0.000 HD
ENDROOT
BRANCH   1   4
ATOM      3  O   UNL     1       0.975   9.612  20.033  0.00  0.00    +0.000 OA
ATOM      4  S   UNL     1       0.919  10.535  18.923  0.00  0.00    +0.000 S 
ATOM      5  O   UNL     1       1.529  11.845  18.986  0.00  0.00    +0.000 OA
BRANCH   4   6
ATOM      6  C   UNL     1      -0.798  10.749  18.500  0.00  0.00    +0.000 A 
ATOM      7  C   UNL     1      -1.332   9.982  17.466  0.00  0.00    +0.000 A 
ATOM      8  C   UNL     1      -2.691  10.073  17.169  0.00  0.00    +0.000 A 
ATOM      9  C   UNL     1      -3.528  10.923  17.906  0.00  0.00    +0.000 A 
ATOM     10  C   UNL     1      -4.901  11.002  17.623  0.00  0.00    +0.000 A 
ATOM     11  C   UNL     1      -5.733  11.840  18.366  0.00  0.00    +0.000 A 
ATOM     12  C   UNL     1      -5.205  12.611  19.395  0.00  0.00    +0.000 A 
ATOM     13  C   UNL     1      -3.841  12.544  19.692  0.00  0.00    +0.000 A 
ATOM     14  C   UNL     1      -2.986  11.700  18.959  0.00  0.00    +0.000 A 
ATOM     15  C   UNL     1      -1.614  11.601  19.254  0.00  0.00    +0.000 A 
ENDBRANCH   4   6
ENDBRANCH   1   4
BRANCH   1  16
ATOM     16  C   UNL     1       1.709   8.252  17.776  0.00  0.00    +0.000 C 
BRANCH  16  17
ATOM     17  C   UNL     1       3.198   7.858  17.839  0.00  0.00    +0.000 C 
BRANCH  17  18
ATOM     18  N   UNL     1       3.394   6.548  18.491  0.00  0.00    +0.000 NA
ATOM     19  C   UNL     1       3.421   5.433  17.525  0.00  0.00    +0.000 C 
ATOM     20  C   UNL     1       2.224   4.466  17.578  0.00  0.00    +0.000 C 
ATOM     21  C   UNL     1       2.074   3.966  18.990  0.00  0.00    +0.000 A 
ATOM     22  C   UNL     1       1.790   2.637  19.305  0.00  0.00    +0.000 A 
ATOM     23  C   UNL     1       1.701   2.249  20.643  0.00  0.00    +0.000 A 
ATOM     24  C   UNL     1       1.876   3.186  21.663  0.00  0.00    +0.000 A 
ATOM     25  C   UNL     1       2.138   4.519  21.350  0.00  0.00    +0.000 A 
ATOM     26  C   UNL     1       2.247   4.910  20.013  0.00  0.00    +0.000 A 
ATOM     27  C   UNL     1       2.455   6.348  19.616  0.00  0.00    +0.000 C 
ENDBRANCH  17  18
ENDBRANCH  16  17
ENDBRANCH   1  16
TORSDOF 5
ENDMDL
MODEL 7
REMARK VINA RESULT:      -7.5      5.373      7.799
REMARK  Name = 
REMARK  5 active torsions:
REMARK  status: ('A' for Active; 'I' for Inactive)
REMARK    1  A    between atoms: S_2  and  N_4
REMARK    2  A    between atoms: S_2  and  C_17
REMARK    3  A    between atoms: N_4  and  C_5
REMARK    4  A    between atoms: C_5  and  C_6
REMARK    5  A    between atoms: C_6  and  N_7
REMARK                            x       y       z     vdW  Elec       q    Type
REMARK                         _______ _______ _______ _____ _____    ______ ____
ROOT
ATOM      1  N   UNL     1       7.042   8.359  17.728  0.00  0.00    +0.000 NA
ATOM      2  H   UNL     1       6.440   8.563  18.526  0.00  0.00    +0.000 HD
ENDROOT
BRANCH   1   4
ATOM      3  O   UNL     1       7.686   6.438  16.207  0.00  0.00    +0.000 OA
ATOM      4  S   UNL     1       7.284   6.676  17.573  0.00  0.00    +0.000 S 
ATOM      5  O   UNL     1       8.065   6.201  18.694  0.00  0.00    +0.000 OA
BRANCH   4   6
ATOM      6  C   UNL     1       5.627   6.049  17.753  0.00  0.00    +0.000 A 
ATOM      7  C   UNL     1       4.563   6.949  17.707  0.00  0.00    +0.000 A 
ATOM      8  C   UNL     1       3.254   6.473  17.765  0.00  0.00    +0.000 A 
ATOM      9  C   UNL     1       2.996   5.098  17.863  0.00  0.00    +0.000 A 
ATOM     10  C   UNL     1       1.678   4.615  17.901  0.00  0.00    +0.000 A 
ATOM     11  C   UNL     1       1.425   3.246  17.986  0.00  0.00    +0.000 A 
ATOM     12  C   UNL     1       2.482   2.345  18.038  0.00  0.00    +0.000 A 
ATOM     13  C   UNL     1       3.800   2.808  17.998  0.00  0.00    +0.000 A 
ATOM     14  C   UNL     1       4.077   4.184  17.906  0.00  0.00    +0.000 A 
ATOM     15  C   UNL     1       5.395   4.671  17.844  0.00  0.00    +0.000 A 
ENDBRANCH   4   6
ENDBRANCH   1   4
BRANCH   1  16
ATOM     16  C   UNL     1       8.289   9.150  17.713  0.00  0.00    +0.000 C 
BRANCH  16  17
ATOM     17  C   UNL     1       8.811   9.455  19.132  0.00  0.00    +0.000 C 
BRANCH  17  18
ATOM     18  N   UNL     1       9.788  10.562  19.132  0.00  0.00    +0.000 NA
ATOM     19  C   UNL     1       9.733  11.366  20.369  0.00  0.00    +0.000 C 
ATOM     20  C   UNL     1       9.200  12.802  20.215  0.00  0.00    +0.000 C 
ATOM     21  C   UNL     1       9.997  13.497  19.143  0.00  0.00    +0.000 A 
ATOM     22  C   UNL     1      10.438  14.815  19.250  0.00  0.00    +0.000 A 
ATOM     23  C   UNL     1      11.201  15.374  18.224  0.00  0.00    +0.000 A 
ATOM     24  C   UNL     1      11.507  14.626  17.085  0.00  0.00    +0.000 A 
ATOM     25  C   UNL     1      11.048  13.316  16.965  0.00  0.00    +0.000 A 
ATOM     26  C   UNL     1      10.300  12.744  17.997  0.00  0.00    +0.000 A 
ATOM     27  C   UNL     1       9.716  11.360  17.890  0.00  0.00    +0.000 C 
ENDBRANCH  17  18
ENDBRANCH  16  17
ENDBRANCH   1  16
TORSDOF 5
ENDMDL
MODEL 8
REMARK VINA RESULT:      -7.4      5.280      7.543
REMARK  Name = 
REMARK  5 active torsions:
REMARK  status: ('A' for Active; 'I' for Inactive)
REMARK    1  A    between atoms: S_2  and  N_4
REMARK    2  A    between atoms: S_2  and  C_17
REMARK    3  A    between atoms: N_4  and  C_5
REMARK    4  A    between atoms: C_5  and  C_6
REMARK    5  A    between atoms: C_6  and  N_7
REMARK                            x       y       z     vdW  Elec       q    Type
REMARK                         _______ _______ _______ _____ _____    ______ ____
ROOT
ATOM      1  N   UNL     1       6.997   7.899  17.386  0.00  0.00    +0.000 NA
ATOM      2  H   UNL     1       6.097   8.157  17.794  0.00  0.00    +0.000 HD
ENDROOT
BRANCH   1   4
ATOM      3  O   UNL     1       7.543   5.823  16.041  0.00  0.00    +0.000 OA
ATOM      4  S   UNL     1       7.193   6.203  17.389  0.00  0.00    +0.000 S 
ATOM      5  O   UNL     1       8.001   5.819  18.526  0.00  0.00    +0.000 OA
BRANCH   4   6
ATOM      6  C   UNL     1       5.530   5.641  17.683  0.00  0.00    +0.000 A 
ATOM      7  C   UNL     1       4.488   6.564  17.600  0.00  0.00    +0.000 A 
ATOM      8  C   UNL     1       3.170   6.133  17.746  0.00  0.00    +0.000 A 
ATOM      9  C   UNL     1       2.881   4.779  17.968  0.00  0.00    +0.000 A 
ATOM     10  C   UNL     1       1.554   4.338  18.095  0.00  0.00    +0.000 A 
ATOM     11  C   UNL     1       1.269   2.989  18.304  0.00  0.00    +0.000 A 
ATOM     12  C   UNL     1       2.305   2.066  18.393  0.00  0.00    +0.000 A 
ATOM     13  C   UNL     1       3.632   2.485  18.267  0.00  0.00    +0.000 A 
ATOM     14  C   UNL     1       3.939   3.841  18.049  0.00  0.00    +0.000 A 
ATOM     15  C   UNL     1       5.266   4.283  17.898  0.00  0.00    +0.000 A 
ENDBRANCH   4   6
ENDBRANCH   1   4
BRANCH   1  16
ATOM     16  C   UNL     1       8.139   8.639  17.962  0.00  0.00    +0.000 C 
BRANCH  16  17
ATOM     17  C   UNL     1       8.208  10.096  17.465  0.00  0.00    +0.000 C 
BRANCH  17  18
ATOM     18  N   UNL     1       9.244  10.871  18.175  0.00  0.00    +0.000 NA
ATOM     19  C   UNL     1       9.404  10.449  19.581  0.00  0.00    +0.000 C 
ATOM     20  C   UNL     1       8.945  11.462  20.645  0.00  0.00    +0.000 C 
ATOM     21  C   UNL     1       9.634  12.775  20.385  0.00  0.00    +0.000 A 
ATOM     22  C   UNL     1      10.167  13.573  21.396  0.00  0.00    +0.000 A 
ATOM     23  C   UNL     1      10.821  14.762  21.066  0.00  0.00    +0.000 A 
ATOM     24  C   UNL     1      10.925  15.163  19.733  0.00  0.00    +0.000 A 
ATOM     25  C   UNL     1      10.373  14.378  18.722  0.00  0.00    +0.000 A 
ATOM     26  C   UNL     1       9.735  13.178  19.044  0.00  0.00    +0.000 A 
ATOM     27  C   UNL     1       9.057  12.328  18.002  0.00  0.00    +0.000 C 
ENDBRANCH  17  18
ENDBRANCH  16  17
ENDBRANCH   1  16
TORSDOF 5
ENDMDL
MODEL 9
REMARK VINA RESULT:      -7.4      2.547      6.895
REMARK  Name = 
REMARK  5 active torsions:
REMARK  status: ('A' for Active; 'I' for Inactive)
REMARK    1  A    between atoms: S_2  and  N_4
REMARK    2  A    between atoms: S_2  and  C_17
REMARK    3  A    between atoms: N_4  and  C_5
REMARK    4  A    between atoms: C_5  and  C_6
REMARK    5  A    between atoms: C_6  and  N_7
REMARK                            x       y       z     vdW  Elec       q    Type
REMARK                         _______ _______ _______ _____ _____    ______ ____
ROOT
ATOM      1  N   UNL     1       4.621   5.393  19.977  0.00  0.00    +0.000 NA
ATOM      2  H   UNL     1       4.960   5.110  20.897  0.00  0.00    +0.000 HD
ENDROOT
BRANCH   1   4
ATOM      3  O   UNL     1       2.698   4.372  18.682  0.00  0.00    +0.000 OA
ATOM      4  S   UNL     1       2.932   5.168  19.863  0.00  0.00    +0.000 S 
ATOM      5  O   UNL     1       2.414   4.787  21.158  0.00  0.00    +0.000 OA
BRANCH   4   6
ATOM      6  C   UNL     1       2.365   6.819  19.509  0.00  0.00    +0.000 A 
ATOM      7  C   UNL     1       2.521   7.316  18.215  0.00  0.00    +0.000 A 
ATOM      8  C   UNL     1       2.013   8.574  17.894  0.00  0.00    +0.000 A 
ATOM      9  C   UNL     1       1.341   9.341  18.856  0.00  0.00    +0.000 A 
ATOM     10  C   UNL     1       0.810  10.599  18.529  0.00  0.00    +0.000 A 
ATOM     11  C   UNL     1       0.131  11.355  19.485  0.00  0.00    +0.000 A 
ATOM     12  C   UNL     1      -0.021  10.866  20.777  0.00  0.00    +0.000 A 
ATOM     13  C   UNL     1       0.498   9.615  21.120  0.00  0.00    +0.000 A 
ATOM     14  C   UNL     1       1.180   8.834  20.168  0.00  0.00    +0.000 A 
ATOM     15  C   UNL     1       1.693   7.563  20.485  0.00  0.00    +0.000 A 
ENDBRANCH   4   6
ENDBRANCH   1   4
BRANCH   1  16
ATOM     16  C   UNL     1       5.384   4.798  18.860  0.00  0.00    +0.000 C 
BRANCH  16  17
ATOM     17  C   UNL     1       6.261   5.834  18.128  0.00  0.00    +0.000 C 
BRANCH  17  18
ATOM     18  N   UNL     1       6.022   5.825  16.672  0.00  0.00    +0.000 NA
ATOM     19  C   UNL     1       4.800   5.084  16.302  0.00  0.00    +0.000 C 
ATOM     20  C   UNL     1       5.018   3.763  15.542  0.00  0.00    +0.000 C 
ATOM     21  C   UNL     1       5.877   4.038  14.338  0.00  0.00    +0.000 A 
ATOM     22  C   UNL     1       5.640   3.478  13.083  0.00  0.00    +0.000 A 
ATOM     23  C   UNL     1       6.467   3.813  12.010  0.00  0.00    +0.000 A 
ATOM     24  C   UNL     1       7.539   4.688  12.191  0.00  0.00    +0.000 A 
ATOM     25  C   UNL     1       7.794   5.231  13.449  0.00  0.00    +0.000 A 
ATOM     26  C   UNL     1       6.958   4.915  14.524  0.00  0.00    +0.000 A 
ATOM     27  C   UNL     1       7.227   5.413  15.919  0.00  0.00    +0.000 C 
ENDBRANCH  17  18
ENDBRANCH  16  17
ENDBRANCH   1  16
TORSDOF 5
ENDMDL
