MODEL 1
REMARK VINA RESULT:      -9.2      0.000      0.000
REMARK  Name = 
REMARK  6 active torsions:
REMARK  status: ('A' for Active; 'I' for Inactive)
REMARK    1  A    between atoms: C_2  and  C_3
REMARK    2  A    between atoms: C_3  and  C_4
REMARK    3  A    between atoms: N_15  and  C_16
REMARK    4  A    between atoms: C_16  and  C_17
REMARK    5  A    between atoms: C_16  and  C_22
REMARK    6  A    between atoms: C_17  and  C_18
REMARK                            x       y       z     vdW  Elec       q    Type
REMARK                         _______ _______ _______ _____ _____    ______ ____
ROOT
ATOM      1  O   UNL     1       3.460   4.080  17.227  0.00  0.00    +0.000 OA
ATOM      2  C   UNL     1       4.175   4.379  18.182  0.00  0.00    +0.000 C 
ATOM      3  N   UNL     1       3.673   4.843  19.385  0.00  0.00    +0.000 N 
ATOM      4  H   UNL     1       4.331   5.182  20.075  0.00  0.00    +0.000 HD
ENDROOT
BRANCH   2   5
ATOM      5  C   UNL     1       5.699   4.304  18.109  0.00  0.00    +0.000 C 
BRANCH   5   6
ATOM      6  C   UNL     1       6.200   4.446  16.699  0.00  0.00    +0.000 A 
ATOM      7  C   UNL     1       5.737   3.728  15.660  0.00  0.00    +0.000 A 
ATOM      8  C   UNL     1       6.239   3.949  14.302  0.00  0.00    +0.000 A 
ATOM      9  C   UNL     1       5.791   3.192  13.215  0.00  0.00    +0.000 A 
ATOM     10  C   UNL     1       6.299   3.432  11.935  0.00  0.00    +0.000 A 
ATOM     11  C   UNL     1       7.249   4.435  11.733  0.00  0.00    +0.000 A 
ATOM     12  C   UNL     1       7.696   5.201  12.810  0.00  0.00    +0.000 A 
ATOM     13  C   UNL     1       7.193   4.952  14.089  0.00  0.00    +0.000 A 
ATOM     14  N   UNL     1       7.643   5.707  15.177  0.00  0.00    +0.000 N 
ATOM     15  C   UNL     1       7.221   5.509  16.466  0.00  0.00    +0.000 A 
ATOM     16  O   UNL     1       7.645   6.195  17.391  0.00  0.00    +0.000 OA
ATOM     17  H   UNL     1       8.327   6.437  15.040  0.00  0.00    +0.000 HD
ENDBRANCH   5   6
ENDBRANCH   2   5
BRANCH   3  18
ATOM     18  C   UNL     1       2.251   5.108  19.579  0.00  0.00    +0.000 C 
BRANCH  18  19
ATOM     19  C   UNL     1       1.999   6.616  19.564  0.00  0.00    +0.000 A 
ATOM     20  C   UNL     1       2.209   7.364  18.396  0.00  0.00    +0.000 A 
ATOM     21  C   UNL     1       1.927   8.734  18.366  0.00  0.00    +0.000 A 
ATOM     22  C   UNL     1       1.433   9.375  19.501  0.00  0.00    +0.000 A 
ATOM     23  C   UNL     1       1.219   8.648  20.669  0.00  0.00    +0.000 A 
ATOM     24  C   UNL     1       1.501   7.281  20.701  0.00  0.00    +0.000 A 
ENDBRANCH  18  19
BRANCH  18  25
ATOM     25  C   UNL     1       1.709   4.544  20.897  0.00  0.00    +0.000 C 
BRANCH  25  26
ATOM     26  C   UNL     1       1.405   3.066  20.870  0.00  0.00    +0.000 C 
ATOM     27  F   UNL     1       2.456   2.291  20.554  0.00  0.00    +0.000 F 
ATOM     28  F   UNL     1       0.941   2.668  22.080  0.00  0.00    +0.000 F 
ATOM     29  F   UNL     1       0.423   2.806  19.973  0.00  0.00    +0.000 F 
ENDBRANCH  25  26
ENDBRANCH  18  25
ENDBRANCH   3  18
TORSDOF 6
ENDMDL
MODEL 2
REMARK VINA RESULT:      -9.1      4.522      8.471
REMARK  Name = 
REMARK  6 active torsions:
REMARK  status: ('A' for Active; 'I' for Inactive)
REMARK    1  A    between atoms: C_2  and  C_3
REMARK    2  A    between atoms: C_3  and  C_4
REMARK    3  A    between atoms: N_15  and  C_16
REMARK    4  A    between atoms: C_16  and  C_17
REMARK    5  A    between atoms: C_16  and  C_22
REMARK    6  A    between atoms: C_17  and  C_18
REMARK                            x       y       z     vdW  Elec       q    Type
REMARK                         _______ _______ _______ _____ _____    ______ ____
ROOT
ATOM      1  O   UNL     1       2.183   9.039  17.289  0.00  0.00    +0.000 OA
ATOM      2  C   UNL     1       1.936   8.770  18.463  0.00  0.00    +0.000 C 
ATOM      3  N   UNL     1       2.185   7.529  19.022  0.00  0.00    +0.000 N 
ATOM      4  H   UNL     1       1.841   7.351  19.957  0.00  0.00    +0.000 HD
ENDROOT
BRANCH   2   5
ATOM      5  C   UNL     1       1.285   9.779  19.407  0.00  0.00    +0.000 C 
BRANCH   5   6
ATOM      6  C   UNL     1      -0.045  10.253  18.889  0.00  0.00    +0.000 A 
ATOM      7  C   UNL     1      -0.586   9.850  17.727  0.00  0.00    +0.000 A 
ATOM      8  C   UNL     1      -1.909  10.319  17.304  0.00  0.00    +0.000 A 
ATOM      9  C   UNL     1      -2.475   9.933  16.084  0.00  0.00    +0.000 A 
ATOM     10  C   UNL     1      -3.738  10.407  15.716  0.00  0.00    +0.000 A 
ATOM     11  C   UNL     1      -4.444  11.259  16.567  0.00  0.00    +0.000 A 
ATOM     12  C   UNL     1      -3.890  11.642  17.790  0.00  0.00    +0.000 A 
ATOM     13  C   UNL     1      -2.625  11.175  18.149  0.00  0.00    +0.000 A 
ATOM     14  N   UNL     1      -2.056  11.562  19.368  0.00  0.00    +0.000 N 
ATOM     15  C   UNL     1      -0.811  11.170  19.784  0.00  0.00    +0.000 A 
ATOM     16  O   UNL     1      -0.350  11.537  20.861  0.00  0.00    +0.000 OA
ATOM     17  H   UNL     1      -2.562  12.174  19.991  0.00  0.00    +0.000 HD
ENDBRANCH   5   6
ENDBRANCH   2   5
BRANCH   3  18
ATOM     18  C   UNL     1       2.675   6.406  18.227  0.00  0.00    +0.000 C 
BRANCH  18  19
ATOM     19  C   UNL     1       2.098   5.098  18.770  0.00  0.00    +0.000 A 
ATOM     20  C   UNL     1       1.763   4.973  20.126  0.00  0.00    +0.000 A 
ATOM     21  C   UNL     1       1.185   3.796  20.613  0.00  0.00    +0.000 A 
ATOM     22  C   UNL     1       0.935   2.729  19.752  0.00  0.00    +0.000 A 
ATOM     23  C   UNL     1       1.262   2.835  18.403  0.00  0.00    +0.000 A 
ATOM     24  C   UNL     1       1.839   4.009  17.916  0.00  0.00    +0.000 A 
ENDBRANCH  18  19
BRANCH  18  25
ATOM     25  C   UNL     1       4.202   6.293  18.224  0.00  0.00    +0.000 C 
BRANCH  25  26
ATOM     26  C   UNL     1       4.826   6.242  16.851  0.00  0.00    +0.000 C 
ATOM     27  F   UNL     1       6.162   6.387  16.845  0.00  0.00    +0.000 F 
ATOM     28  F   UNL     1       4.531   5.061  16.253  0.00  0.00    +0.000 F 
ATOM     29  F   UNL     1       4.308   7.216  16.065  0.00  0.00    +0.000 F 
ENDBRANCH  25  26
ENDBRANCH  18  25
ENDBRANCH   3  18
TORSDOF 6
ENDMDL
MODEL 3
REMARK VINA RESULT:      -9.0      0.408      1.014
REMARK  Name = 
REMARK  6 active torsions:
REMARK  status: ('A' for Active; 'I' for Inactive)
REMARK    1  A    between atoms: C_2  and  C_3
REMARK    2  A    between atoms: C_3  and  C_4
REMARK    3  A    between atoms: N_15  and  C_16
REMARK    4  A    between atoms: C_16  and  C_17
REMARK    5  A    between atoms: C_16  and  C_22
REMARK    6  A    between atoms: C_17  and  C_18
REMARK                            x       y       z     vdW  Elec       q    Type
REMARK                         _______ _______ _______ _____ _____    ______ ____
ROOT
ATOM      1  O   UNL     1       3.749   3.286  17.866  0.00  0.00    +0.000 OA
ATOM      2  C   UNL     1       4.423   4.127  18.457  0.00  0.00    +0.000 C 
ATOM      3  N   UNL     1       3.874   5.102  19.270  0.00  0.00    +0.000 N 
ATOM      4  H   UNL     1       4.484   5.829  19.620  0.00  0.00    +0.000 HD
ENDROOT
BRANCH   2   5
ATOM      5  C   UNL     1       5.942   4.198  18.308  0.00  0.00    +0.000 C 
BRANCH   5   6
ATOM      6  C   UNL     1       6.357   4.389  16.875  0.00  0.00    +0.000 A 
ATOM      7  C   UNL     1       5.896   3.646  15.854  0.00  0.00    +0.000 A 
ATOM      8  C   UNL     1       6.309   3.916  14.474  0.00  0.00    +0.000 A 
ATOM      9  C   UNL     1       5.863   3.135  13.402  0.00  0.00    +0.000 A 
ATOM     10  C   UNL     1       6.284   3.424  12.101  0.00  0.00    +0.000 A 
ATOM     11  C   UNL     1       7.143   4.499  11.862  0.00  0.00    +0.000 A 
ATOM     12  C   UNL     1       7.585   5.288  12.924  0.00  0.00    +0.000 A 
ATOM     13  C   UNL     1       7.171   4.990  14.224  0.00  0.00    +0.000 A 
ATOM     14  N   UNL     1       7.618   5.769  15.297  0.00  0.00    +0.000 N 
ATOM     15  C   UNL     1       7.280   5.530  16.603  0.00  0.00    +0.000 A 
ATOM     16  O   UNL     1       7.698   6.239  17.513  0.00  0.00    +0.000 OA
ATOM     17  H   UNL     1       8.236   6.551  15.133  0.00  0.00    +0.000 HD
ENDBRANCH   5   6
ENDBRANCH   2   5
BRANCH   3  18
ATOM     18  C   UNL     1       2.430   5.267  19.412  0.00  0.00    +0.000 C 
BRANCH  18  19
ATOM     19  C   UNL     1       2.065   6.747  19.299  0.00  0.00    +0.000 A 
ATOM     20  C   UNL     1       1.573   7.449  20.410  0.00  0.00    +0.000 A 
ATOM     21  C   UNL     1       1.290   8.816  20.322  0.00  0.00    +0.000 A 
ATOM     22  C   UNL     1       1.494   9.500  19.125  0.00  0.00    +0.000 A 
ATOM     23  C   UNL     1       1.980   8.819  18.012  0.00  0.00    +0.000 A 
ATOM     24  C   UNL     1       2.262   7.454  18.098  0.00  0.00    +0.000 A 
ENDBRANCH  18  19
BRANCH  18  25
ATOM     25  C   UNL     1       1.894   4.741  20.748  0.00  0.00    +0.000 C 
BRANCH  25  26
ATOM     26  C   UNL     1       1.818   3.237  20.846  0.00  0.00    +0.000 C 
ATOM     27  F   UNL     1       3.008   2.632  20.994  0.00  0.00    +0.000 F 
ATOM     28  F   UNL     1       1.036   2.882  21.895  0.00  0.00    +0.000 F 
ATOM     29  F   UNL     1       1.236   2.723  19.736  0.00  0.00    +0.000 F 
ENDBRANCH  25  26
ENDBRANCH  18  25
ENDBRANCH   3  18
TORSDOF 6
ENDMDL
MODEL 4
REMARK VINA RESULT:      -8.8      3.646      8.059
REMARK  Name = 
REMARK  6 active torsions:
REMARK  status: ('A' for Active; 'I' for Inactive)
REMARK    1  A    between atoms: C_2  and  C_3
REMARK    2  A    between atoms: C_3  and  C_4
REMARK    3  A    between atoms: N_15  and  C_16
REMARK    4  A    between atoms: C_16  and  C_17
REMARK    5  A    between atoms: C_16  and  C_22
REMARK    6  A    between atoms: C_17  and  C_18
REMARK                            x       y       z     vdW  Elec       q    Type
REMARK                         _______ _______ _______ _____ _____    ______ ____
ROOT
ATOM      1  O   UNL     1       1.776   8.019  19.850  0.00  0.00    +0.000 OA
ATOM      2  C   UNL     1       2.133   8.149  18.681  0.00  0.00    +0.000 C 
ATOM      3  N   UNL     1       2.705   7.126  17.946  0.00  0.00    +0.000 N 
ATOM      4  H   UNL     1       3.081   7.348  17.034  0.00  0.00    +0.000 HD
ENDROOT
BRANCH   2   5
ATOM      5  C   UNL     1       2.015   9.480  17.941  0.00  0.00    +0.000 C 
BRANCH   5   6
ATOM      6  C   UNL     1       0.671  10.121  18.152  0.00  0.00    +0.000 A 
ATOM      7  C   UNL     1      -0.483   9.623  17.673  0.00  0.00    +0.000 A 
ATOM      8  C   UNL     1      -1.765  10.276  17.955  0.00  0.00    +0.000 A 
ATOM      9  C   UNL     1      -2.971   9.790  17.441  0.00  0.00    +0.000 A 
ATOM     10  C   UNL     1      -4.172  10.445  17.731  0.00  0.00    +0.000 A 
ATOM     11  C   UNL     1      -4.175  11.581  18.543  0.00  0.00    +0.000 A 
ATOM     12  C   UNL     1      -2.976  12.068  19.067  0.00  0.00    +0.000 A 
ATOM     13  C   UNL     1      -1.778  11.417  18.767  0.00  0.00    +0.000 A 
ATOM     14  N   UNL     1      -0.571  11.903  19.279  0.00  0.00    +0.000 N 
ATOM     15  C   UNL     1       0.650  11.340  19.012  0.00  0.00    +0.000 A 
ATOM     16  O   UNL     1       1.685  11.803  19.482  0.00  0.00    +0.000 OA
ATOM     17  H   UNL     1      -0.564  12.722  19.870  0.00  0.00    +0.000 HD
ENDBRANCH   5   6
ENDBRANCH   2   5
BRANCH   3  18
ATOM     18  C   UNL     1       3.020   5.830  18.540  0.00  0.00    +0.000 C 
BRANCH  18  19
ATOM     19  C   UNL     1       4.412   5.382  18.095  0.00  0.00    +0.000 A 
ATOM     20  C   UNL     1       4.649   5.000  16.765  0.00  0.00    +0.000 A 
ATOM     21  C   UNL     1       5.934   4.643  16.344  0.00  0.00    +0.000 A 
ATOM     22  C   UNL     1       6.998   4.659  17.243  0.00  0.00    +0.000 A 
ATOM     23  C   UNL     1       6.781   5.034  18.567  0.00  0.00    +0.000 A 
ATOM     24  C   UNL     1       5.499   5.391  18.989  0.00  0.00    +0.000 A 
ENDBRANCH  18  19
BRANCH  18  25
ATOM     25  C   UNL     1       2.019   4.735  18.159  0.00  0.00    +0.000 C 
BRANCH  25  26
ATOM     26  C   UNL     1       1.554   3.879  19.313  0.00  0.00    +0.000 C 
ATOM     27  F   UNL     1       0.635   2.956  18.982  0.00  0.00    +0.000 F 
ATOM     28  F   UNL     1       2.612   3.236  19.866  0.00  0.00    +0.000 F 
ATOM     29  F   UNL     1       1.019   4.655  20.286  0.00  0.00    +0.000 F 
ENDBRANCH  25  26
ENDBRANCH  18  25
ENDBRANCH   3  18
TORSDOF 6
ENDMDL
MODEL 5
REMARK VINA RESULT:      -8.7      4.314      8.262
REMARK  Name = 
REMARK  6 active torsions:
REMARK  status: ('A' for Active; 'I' for Inactive)
REMARK    1  A    between atoms: C_2  and  C_3
REMARK    2  A    between atoms: C_3  and  C_4
REMARK    3  A    between atoms: N_15  and  C_16
REMARK    4  A    between atoms: C_16  and  C_17
REMARK    5  A    between atoms: C_16  and  C_22
REMARK    6  A    between atoms: C_17  and  C_18
REMARK                            x       y       z     vdW  Elec       q    Type
REMARK                         _______ _______ _______ _____ _____    ______ ____
ROOT
ATOM      1  O   UNL     1       2.227   8.971  17.445  0.00  0.00    +0.000 OA
ATOM      2  C   UNL     1       1.959   8.746  18.624  0.00  0.00    +0.000 C 
ATOM      3  N   UNL     1       2.216   7.535  19.240  0.00  0.00    +0.000 N 
ATOM      4  H   UNL     1       1.856   7.390  20.174  0.00  0.00    +0.000 HD
ENDROOT
BRANCH   2   5
ATOM      5  C   UNL     1       1.271   9.783  19.511  0.00  0.00    +0.000 C 
BRANCH   5   6
ATOM      6  C   UNL     1      -0.045  10.227  18.935  0.00  0.00    +0.000 A 
ATOM      7  C   UNL     1      -0.527   9.811  17.751  0.00  0.00    +0.000 A 
ATOM      8  C   UNL     1      -1.840  10.250  17.271  0.00  0.00    +0.000 A 
ATOM      9  C   UNL     1      -2.345   9.852  16.028  0.00  0.00    +0.000 A 
ATOM     10  C   UNL     1      -3.601  10.297  15.605  0.00  0.00    +0.000 A 
ATOM     11  C   UNL     1      -4.362  11.133  16.424  0.00  0.00    +0.000 A 
ATOM     12  C   UNL     1      -3.870  11.528  17.669  0.00  0.00    +0.000 A 
ATOM     13  C   UNL     1      -2.611  11.090  18.083  0.00  0.00    +0.000 A 
ATOM     14  N   UNL     1      -2.105  11.489  19.325  0.00  0.00    +0.000 N 
ATOM     15  C   UNL     1      -0.870  11.126  19.795  0.00  0.00    +0.000 A 
ATOM     16  O   UNL     1      -0.465  11.503  20.891  0.00  0.00    +0.000 OA
ATOM     17  H   UNL     1      -2.651  12.091  19.925  0.00  0.00    +0.000 HD
ENDBRANCH   5   6
ENDBRANCH   2   5
BRANCH   3  18
ATOM     18  C   UNL     1       2.741   6.389  18.503  0.00  0.00    +0.000 C 
BRANCH  18  19
ATOM     19  C   UNL     1       2.045   5.110  18.971  0.00  0.00    +0.000 A 
ATOM     20  C   UNL     1       1.602   4.157  18.042  0.00  0.00    +0.000 A 
ATOM     21  C   UNL     1       1.014   2.962  18.470  0.00  0.00    +0.000 A 
ATOM     22  C   UNL     1       0.859   2.705  19.831  0.00  0.00    +0.000 A 
ATOM     23  C   UNL     1       1.291   3.641  20.767  0.00  0.00    +0.000 A 
ATOM     24  C   UNL     1       1.878   4.833  20.341  0.00  0.00    +0.000 A 
ENDBRANCH  18  19
BRANCH  18  25
ATOM     25  C   UNL     1       4.252   6.203  18.678  0.00  0.00    +0.000 C 
BRANCH  25  26
ATOM     26  C   UNL     1       4.914   5.387  17.594  0.00  0.00    +0.000 C 
ATOM     27  F   UNL     1       6.179   5.749  17.324  0.00  0.00    +0.000 F 
ATOM     28  F   UNL     1       4.919   4.076  17.941  0.00  0.00    +0.000 F 
ATOM     29  F   UNL     1       4.209   5.481  16.440  0.00  0.00    +0.000 F 
ENDBRANCH  25  26
ENDBRANCH  18  25
ENDBRANCH   3  18
TORSDOF 6
ENDMDL
MODEL 6
REMARK VINA RESULT:      -8.7      3.289      7.101
REMARK  Name = 
REMARK  6 active torsions:
REMARK  status: ('A' for Active; 'I' for Inactive)
REMARK    1  A    between atoms: C_2  and  C_3
REMARK    2  A    between atoms: C_3  and  C_4
REMARK    3  A    between atoms: N_15  and  C_16
REMARK    4  A    between atoms: C_16  and  C_17
REMARK    5  A    between atoms: C_16  and  C_22
REMARK    6  A    between atoms: C_17  and  C_18
REMARK                            x       y       z     vdW  Elec       q    Type
REMARK                         _______ _______ _______ _____ _____    ______ ____
ROOT
ATOM      1  O   UNL     1       4.110   2.442  17.419  0.00  0.00    +0.000 OA
ATOM      2  C   UNL     1       3.693   3.546  17.765  0.00  0.00    +0.000 C 
ATOM      3  N   UNL     1       4.302   4.733  17.401  0.00  0.00    +0.000 N 
ATOM      4  H   UNL     1       3.969   5.588  17.826  0.00  0.00    +0.000 HD
ENDROOT
BRANCH   2   5
ATOM      5  C   UNL     1       2.475   3.703  18.674  0.00  0.00    +0.000 C 
BRANCH   5   6
ATOM      6  C   UNL     1       2.247   5.138  19.062  0.00  0.00    +0.000 A 
ATOM      7  C   UNL     1       2.182   6.154  18.183  0.00  0.00    +0.000 A 
ATOM      8  C   UNL     1       1.913   7.524  18.627  0.00  0.00    +0.000 A 
ATOM      9  C   UNL     1       1.870   8.597  17.731  0.00  0.00    +0.000 A 
ATOM     10  C   UNL     1       1.615   9.891  18.196  0.00  0.00    +0.000 A 
ATOM     11  C   UNL     1       1.389  10.117  19.555  0.00  0.00    +0.000 A 
ATOM     12  C   UNL     1       1.421   9.050  20.455  0.00  0.00    +0.000 A 
ATOM     13  C   UNL     1       1.687   7.762  19.988  0.00  0.00    +0.000 A 
ATOM     14  N   UNL     1       1.731   6.688  20.884  0.00  0.00    +0.000 N 
ATOM     15  C   UNL     1       2.011   5.399  20.513  0.00  0.00    +0.000 A 
ATOM     16  O   UNL     1       2.043   4.488  21.334  0.00  0.00    +0.000 OA
ATOM     17  H   UNL     1       1.566   6.842  21.868  0.00  0.00    +0.000 HD
ENDBRANCH   5   6
ENDBRANCH   2   5
BRANCH   3  18
ATOM     18  C   UNL     1       5.555   4.761  16.652  0.00  0.00    +0.000 C 
BRANCH  18  19
ATOM     19  C   UNL     1       6.550   5.693  17.344  0.00  0.00    +0.000 A 
ATOM     20  C   UNL     1       6.763   6.995  16.866  0.00  0.00    +0.000 A 
ATOM     21  C   UNL     1       7.632   7.866  17.530  0.00  0.00    +0.000 A 
ATOM     22  C   UNL     1       8.302   7.449  18.679  0.00  0.00    +0.000 A 
ATOM     23  C   UNL     1       8.104   6.160  19.167  0.00  0.00    +0.000 A 
ATOM     24  C   UNL     1       7.237   5.289  18.505  0.00  0.00    +0.000 A 
ENDBRANCH  18  19
BRANCH  18  25
ATOM     25  C   UNL     1       5.380   5.236  15.205  0.00  0.00    +0.000 C 
BRANCH  25  26
ATOM     26  C   UNL     1       5.933   4.294  14.164  0.00  0.00    +0.000 C 
ATOM     27  F   UNL     1       6.357   3.116  14.653  0.00  0.00    +0.000 F 
ATOM     28  F   UNL     1       4.990   4.041  13.223  0.00  0.00    +0.000 F 
ATOM     29  F   UNL     1       6.979   4.868  13.522  0.00  0.00    +0.000 F 
ENDBRANCH  25  26
ENDBRANCH  18  25
ENDBRANCH   3  18
TORSDOF 6
ENDMDL
MODEL 7
REMARK VINA RESULT:      -8.7      3.117      7.131
REMARK  Name = 
REMARK  6 active torsions:
REMARK  status: ('A' for Active; 'I' for Inactive)
REMARK    1  A    between atoms: C_2  and  C_3
REMARK    2  A    between atoms: C_3  and  C_4
REMARK    3  A    between atoms: N_15  and  C_16
REMARK    4  A    between atoms: C_16  and  C_17
REMARK    5  A    between atoms: C_16  and  C_22
REMARK    6  A    between atoms: C_17  and  C_18
REMARK                            x       y       z     vdW  Elec       q    Type
REMARK                         _______ _______ _______ _____ _____    ______ ____
ROOT
ATOM      1  O   UNL     1       5.401   3.585  19.329  0.00  0.00    +0.000 OA
ATOM      2  C   UNL     1       4.701   3.912  18.373  0.00  0.00    +0.000 C 
ATOM      3  N   UNL     1       5.221   4.269  17.142  0.00  0.00    +0.000 N 
ATOM      4  H   UNL     1       4.586   4.642  16.448  0.00  0.00    +0.000 HD
ENDROOT
BRANCH   2   5
ATOM      5  C   UNL     1       3.179   3.997  18.475  0.00  0.00    +0.000 C 
BRANCH   5   6
ATOM      6  C   UNL     1       2.723   5.357  18.926  0.00  0.00    +0.000 A 
ATOM      7  C   UNL     1       2.604   6.420  18.111  0.00  0.00    +0.000 A 
ATOM      8  C   UNL     1       2.110   7.706  18.610  0.00  0.00    +0.000 A 
ATOM      9  C   UNL     1       2.009   8.830  17.784  0.00  0.00    +0.000 A 
ATOM     10  C   UNL     1       1.536  10.041  18.300  0.00  0.00    +0.000 A 
ATOM     11  C   UNL     1       1.154  10.131  19.640  0.00  0.00    +0.000 A 
ATOM     12  C   UNL     1       1.243   9.012  20.469  0.00  0.00    +0.000 A 
ATOM     13  C   UNL     1       1.726   7.808  19.952  0.00  0.00    +0.000 A 
ATOM     14  N   UNL     1       1.829   6.684  20.778  0.00  0.00    +0.000 N 
ATOM     15  C   UNL     1       2.316   5.473  20.358  0.00  0.00    +0.000 A 
ATOM     16  O   UNL     1       2.392   4.514  21.119  0.00  0.00    +0.000 OA
ATOM     17  H   UNL     1       1.551   6.739  21.748  0.00  0.00    +0.000 HD
ENDBRANCH   5   6
ENDBRANCH   2   5
BRANCH   3  18
ATOM     18  C   UNL     1       6.658   4.377  16.911  0.00  0.00    +0.000 C 
BRANCH  18  19
ATOM     19  C   UNL     1       7.181   5.681  17.516  0.00  0.00    +0.000 A 
ATOM     20  C   UNL     1       7.887   5.674  18.728  0.00  0.00    +0.000 A 
ATOM     21  C   UNL     1       8.413   6.858  19.254  0.00  0.00    +0.000 A 
ATOM     22  C   UNL     1       8.241   8.064  18.578  0.00  0.00    +0.000 A 
ATOM     23  C   UNL     1       7.543   8.090  17.373  0.00  0.00    +0.000 A 
ATOM     24  C   UNL     1       7.017   6.909  16.847  0.00  0.00    +0.000 A 
ENDBRANCH  18  19
BRANCH  18  25
ATOM     25  C   UNL     1       7.032   4.353  15.426  0.00  0.00    +0.000 C 
BRANCH  25  26
ATOM     26  C   UNL     1       5.861   4.468  14.481  0.00  0.00    +0.000 C 
ATOM     27  F   UNL     1       4.881   3.577  14.705  0.00  0.00    +0.000 F 
ATOM     28  F   UNL     1       5.323   5.710  14.560  0.00  0.00    +0.000 F 
ATOM     29  F   UNL     1       6.274   4.305  13.200  0.00  0.00    +0.000 F 
ENDBRANCH  25  26
ENDBRANCH  18  25
ENDBRANCH   3  18
TORSDOF 6
ENDMDL
MODEL 8
REMARK VINA RESULT:      -8.7      3.331      7.176
REMARK  Name = 
REMARK  6 active torsions:
REMARK  status: ('A' for Active; 'I' for Inactive)
REMARK    1  A    between atoms: C_2  and  C_3
REMARK    2  A    between atoms: C_3  and  C_4
REMARK    3  A    between atoms: N_15  and  C_16
REMARK    4  A    between atoms: C_16  and  C_17
REMARK    5  A    between atoms: C_16  and  C_22
REMARK    6  A    between atoms: C_17  and  C_18
REMARK                            x       y       z     vdW  Elec       q    Type
REMARK                         _______ _______ _______ _____ _____    ______ ____
ROOT
ATOM      1  O   UNL     1       4.194   2.447  17.834  0.00  0.00    +0.000 OA
ATOM      2  C   UNL     1       3.616   3.532  17.845  0.00  0.00    +0.000 C 
ATOM      3  N   UNL     1       4.109   4.657  17.208  0.00  0.00    +0.000 N 
ATOM      4  H   UNL     1       3.637   5.538  17.367  0.00  0.00    +0.000 HD
ENDROOT
BRANCH   2   5
ATOM      5  C   UNL     1       2.309   3.748  18.607  0.00  0.00    +0.000 C 
BRANCH   5   6
ATOM      6  C   UNL     1       2.137   5.182  19.028  0.00  0.00    +0.000 A 
ATOM      7  C   UNL     1       2.049   6.212  18.169  0.00  0.00    +0.000 A 
ATOM      8  C   UNL     1       1.836   7.581  18.648  0.00  0.00    +0.000 A 
ATOM      9  C   UNL     1       1.771   8.669  17.771  0.00  0.00    +0.000 A 
ATOM     10  C   UNL     1       1.571   9.961  18.269  0.00  0.00    +0.000 A 
ATOM     11  C   UNL     1       1.425  10.170  19.642  0.00  0.00    +0.000 A 
ATOM     12  C   UNL     1       1.479   9.088  20.523  0.00  0.00    +0.000 A 
ATOM     13  C   UNL     1       1.689   7.802  20.022  0.00  0.00    +0.000 A 
ATOM     14  N   UNL     1       1.756   6.713  20.898  0.00  0.00    +0.000 N 
ATOM     15  C   UNL     1       1.985   5.424  20.493  0.00  0.00    +0.000 A 
ATOM     16  O   UNL     1       2.039   4.499  21.298  0.00  0.00    +0.000 OA
ATOM     17  H   UNL     1       1.647   6.854  21.892  0.00  0.00    +0.000 HD
ENDBRANCH   5   6
ENDBRANCH   2   5
BRANCH   3  18
ATOM     18  C   UNL     1       5.413   4.665  16.551  0.00  0.00    +0.000 C 
BRANCH  18  19
ATOM     19  C   UNL     1       6.368   5.588  17.310  0.00  0.00    +0.000 A 
ATOM     20  C   UNL     1       7.058   5.128  18.441  0.00  0.00    +0.000 A 
ATOM     21  C   UNL     1       7.973   5.953  19.103  0.00  0.00    +0.000 A 
ATOM     22  C   UNL     1       8.210   7.247  18.646  0.00  0.00    +0.000 A 
ATOM     23  C   UNL     1       7.533   7.721  17.525  0.00  0.00    +0.000 A 
ATOM     24  C   UNL     1       6.619   6.899  16.863  0.00  0.00    +0.000 A 
ENDBRANCH  18  19
BRANCH  18  25
ATOM     25  C   UNL     1       5.349   5.135  15.094  0.00  0.00    +0.000 C 
BRANCH  25  26
ATOM     26  C   UNL     1       6.236   4.364  14.147  0.00  0.00    +0.000 C 
ATOM     27  F   UNL     1       7.279   5.066  13.673  0.00  0.00    +0.000 F 
ATOM     28  F   UNL     1       6.721   3.259  14.764  0.00  0.00    +0.000 F 
ATOM     29  F   UNL     1       5.519   3.932  13.081  0.00  0.00    +0.000 F 
ENDBRANCH  25  26
ENDBRANCH  18  25
ENDBRANCH   3  18
TORSDOF 6
ENDMDL
MODEL 9
REMARK VINA RESULT:      -8.6      4.443      6.408
REMARK  Name = 
REMARK  6 active torsions:
REMARK  status: ('A' for Active; 'I' for Inactive)
REMARK    1  A    between atoms: C_2  and  C_3
REMARK    2  A    between atoms: C_3  and  C_4
REMARK    3  A    between atoms: N_15  and  C_16
REMARK    4  A    between atoms: C_16  and  C_17
REMARK    5  A    between atoms: C_16  and  C_22
REMARK    6  A    between atoms: C_17  and  C_18
REMARK                            x       y       z     vdW  Elec       q    Type
REMARK                         _______ _______ _______ _____ _____    ______ ____
ROOT
ATOM      1  O   UNL     1       1.540   8.591  19.849  0.00  0.00    +0.000 OA
ATOM      2  C   UNL     1       1.575   8.960  18.677  0.00  0.00    +0.000 C 
ATOM      3  N   UNL     1       0.615   9.784  18.115  0.00  0.00    +0.000 N 
ATOM      4  H   UNL     1       0.649   9.941  17.116  0.00  0.00    +0.000 HD
ENDROOT
BRANCH   2   5
ATOM      5  C   UNL     1       2.668   8.502  17.714  0.00  0.00    +0.000 C 
BRANCH   5   6
ATOM      6  C   UNL     1       2.906   7.020  17.801  0.00  0.00    +0.000 A 
ATOM      7  C   UNL     1       1.943   6.118  18.060  0.00  0.00    +0.000 A 
ATOM      8  C   UNL     1       2.237   4.682  18.086  0.00  0.00    +0.000 A 
ATOM      9  C   UNL     1       1.255   3.731  18.382  0.00  0.00    +0.000 A 
ATOM     10  C   UNL     1       1.578   2.371  18.401  0.00  0.00    +0.000 A 
ATOM     11  C   UNL     1       2.879   1.954  18.114  0.00  0.00    +0.000 A 
ATOM     12  C   UNL     1       3.863   2.895  17.808  0.00  0.00    +0.000 A 
ATOM     13  C   UNL     1       3.539   4.253  17.801  0.00  0.00    +0.000 A 
ATOM     14  N   UNL     1       4.521   5.205  17.506  0.00  0.00    +0.000 N 
ATOM     15  C   UNL     1       4.294   6.557  17.503  0.00  0.00    +0.000 A 
ATOM     16  O   UNL     1       5.187   7.356  17.242  0.00  0.00    +0.000 OA
ATOM     17  H   UNL     1       5.464   4.912  17.294  0.00  0.00    +0.000 HD
ENDBRANCH   5   6
ENDBRANCH   2   5
BRANCH   3  18
ATOM     18  C   UNL     1      -0.573  10.202  18.853  0.00  0.00    +0.000 C 
BRANCH  18  19
ATOM     19  C   UNL     1      -1.729  10.439  17.880  0.00  0.00    +0.000 A 
ATOM     20  C   UNL     1      -1.803   9.729  16.673  0.00  0.00    +0.000 A 
ATOM     21  C   UNL     1      -2.888   9.905  15.808  0.00  0.00    +0.000 A 
ATOM     22  C   UNL     1      -3.912  10.792  16.136  0.00  0.00    +0.000 A 
ATOM     23  C   UNL     1      -3.854  11.505  17.330  0.00  0.00    +0.000 A 
ATOM     24  C   UNL     1      -2.771  11.331  18.194  0.00  0.00    +0.000 A 
ENDBRANCH  18  19
BRANCH  18  25
ATOM     25  C   UNL     1      -0.358  11.485  19.663  0.00  0.00    +0.000 C 
BRANCH  25  26
ATOM     26  C   UNL     1      -0.677  11.360  21.133  0.00  0.00    +0.000 C 
ATOM     27  F   UNL     1       0.175  12.012  21.941  0.00  0.00    +0.000 F 
ATOM     28  F   UNL     1      -1.925  11.832  21.375  0.00  0.00    +0.000 F 
ATOM     29  F   UNL     1      -0.675  10.057  21.505  0.00  0.00    +0.000 F 
ENDBRANCH  25  26
ENDBRANCH  18  25
ENDBRANCH   3  18
TORSDOF 6
ENDMDL
