MODEL 1
REMARK VINA RESULT:      -8.6      0.000      0.000
REMARK  Name = 
REMARK  5 active torsions:
REMARK  status: ('A' for Active; 'I' for Inactive)
REMARK    1  A    between atoms: C_2  and  C_3
REMARK    2  A    between atoms: C_3  and  N_4
REMARK    3  A    between atoms: C_5  and  C_6
REMARK    4  A    between atoms: N_16  and  C_17
REMARK    5  A    between atoms: C_21  and  N_22
REMARK                            x       y       z     vdW  Elec       q    Type
REMARK                         _______ _______ _______ _____ _____    ______ ____
ROOT
ATOM      1  O   UNL     1       0.977   5.302  20.499  0.00  0.00    +0.000 OA
ATOM      2  C   UNL     1       2.158   5.416  20.189  0.00  0.00    +0.000 C 
ATOM      3  N   UNL     1       2.756   6.560  19.673  0.00  0.00    +0.000 N 
ATOM      4  H   UNL     1       3.760   6.550  19.546  0.00  0.00    +0.000 HD
ENDROOT
BRANCH   3   5
ATOM      5  C   UNL     1       2.112   7.787  19.387  0.00  0.00    +0.000 A 
ATOM      6  C   UNL     1       1.999   8.308  18.102  0.00  0.00    +0.000 A 
ATOM      7  C   UNL     1       1.310   9.496  17.887  0.00  0.00    +0.000 A 
ATOM      8  C   UNL     1       0.709  10.165  18.954  0.00  0.00    +0.000 A 
ATOM      9  C   UNL     1       0.805   9.678  20.261  0.00  0.00    +0.000 A 
ATOM     10  C   UNL     1       1.545   8.496  20.463  0.00  0.00    +0.000 A 
BRANCH   9  11
ATOM     11  N   UNL     1       0.143  10.328  21.343  0.00  0.00    +0.000 N 
ATOM     12  C   UNL     1      -0.120   9.679  22.606  0.00  0.00    +0.000 C 
ATOM     13  C   UNL     1      -1.196  10.527  23.250  0.00  0.00    +0.000 C 
ATOM     14  C   UNL     1      -0.914  11.919  22.724  0.00  0.00    +0.000 C 
ATOM     15  C   UNL     1      -0.302  11.660  21.368  0.00  0.00    +0.000 C 
ATOM     16  O   UNL     1      -0.207  12.530  20.517  0.00  0.00    +0.000 OA
ENDBRANCH   9  11
ENDBRANCH   3   5
BRANCH   2  17
ATOM     17  C   UNL     1       3.152   4.284  20.461  0.00  0.00    +0.000 C 
BRANCH  17  18
ATOM     18  N   UNL     1       3.460   3.511  19.270  0.00  0.00    +0.000 N 
ATOM     19  C   UNL     1       4.327   3.659  18.243  0.00  0.00    +0.000 A 
ATOM     20  N   UNL     1       4.251   2.701  17.371  0.00  0.00    +0.000 NA
ATOM     21  O   UNL     1       3.248   1.818  17.852  0.00  0.00    +0.000 OA
ATOM     22  C   UNL     1       2.806   2.350  19.030  0.00  0.00    +0.000 A 
ATOM     23  O   UNL     1       1.936   1.848  19.729  0.00  0.00    +0.000 OA
BRANCH  19  24
ATOM     24  C   UNL     1       5.326   4.746  18.084  0.00  0.00    +0.000 A 
ATOM     25  C   UNL     1       5.094   5.700  17.078  0.00  0.00    +0.000 A 
ATOM     26  C   UNL     1       5.998   6.745  16.853  0.00  0.00    +0.000 A 
ATOM     27  C   UNL     1       7.146   6.847  17.628  0.00  0.00    +0.000 A 
ATOM     28  C   UNL     1       7.378   5.924  18.645  0.00  0.00    +0.000 A 
ATOM     29  C   UNL     1       6.464   4.894  18.884  0.00  0.00    +0.000 A 
ENDBRANCH  19  24
ENDBRANCH  17  18
ENDBRANCH   2  17
TORSDOF 5
ENDMDL
MODEL 2
REMARK VINA RESULT:      -8.6      0.915      1.125
REMARK  Name = 
REMARK  5 active torsions:
REMARK  status: ('A' for Active; 'I' for Inactive)
REMARK    1  A    between atoms: C_2  and  C_3
REMARK    2  A    between atoms: C_3  and  N_4
REMARK    3  A    between atoms: C_5  and  C_6
REMARK    4  A    between atoms: N_16  and  C_17
REMARK    5  A    between atoms: C_21  and  N_22
REMARK                            x       y       z     vdW  Elec       q    Type
REMARK                         _______ _______ _______ _____ _____    ______ ____
ROOT
ATOM      1  O   UNL     1       0.726   5.489  20.362  0.00  0.00    +0.000 OA
ATOM      2  C   UNL     1       1.942   5.600  20.249  0.00  0.00    +0.000 C 
ATOM      3  N   UNL     1       2.621   6.751  19.863  0.00  0.00    +0.000 N 
ATOM      4  H   UNL     1       3.632   6.735  19.899  0.00  0.00    +0.000 HD
ENDROOT
BRANCH   3   5
ATOM      5  C   UNL     1       2.037   7.988  19.503  0.00  0.00    +0.000 A 
ATOM      6  C   UNL     1       2.158   8.550  18.236  0.00  0.00    +0.000 A 
ATOM      7  C   UNL     1       1.517   9.747  17.937  0.00  0.00    +0.000 A 
ATOM      8  C   UNL     1       0.731  10.384  18.898  0.00  0.00    +0.000 A 
ATOM      9  C   UNL     1       0.588   9.855  20.184  0.00  0.00    +0.000 A 
ATOM     10  C   UNL     1       1.282   8.665  20.480  0.00  0.00    +0.000 A 
BRANCH   9  11
ATOM     11  N   UNL     1      -0.261  10.472  21.149  0.00  0.00    +0.000 N 
ATOM     12  C   UNL     1      -1.397  11.288  20.788  0.00  0.00    +0.000 C 
ATOM     13  C   UNL     1      -1.707  12.079  22.041  0.00  0.00    +0.000 C 
ATOM     14  C   UNL     1      -1.283  11.152  23.161  0.00  0.00    +0.000 C 
ATOM     15  C   UNL     1      -0.158  10.356  22.545  0.00  0.00    +0.000 C 
ATOM     16  O   UNL     1       0.631   9.711  23.217  0.00  0.00    +0.000 OA
ENDBRANCH   9  11
ENDBRANCH   3   5
BRANCH   2  17
ATOM     17  C   UNL     1       2.874   4.455  20.654  0.00  0.00    +0.000 C 
BRANCH  17  18
ATOM     18  N   UNL     1       3.174   3.560  19.549  0.00  0.00    +0.000 N 
ATOM     19  C   UNL     1       4.004   3.615  18.484  0.00  0.00    +0.000 A 
ATOM     20  N   UNL     1       3.935   2.561  17.729  0.00  0.00    +0.000 NA
ATOM     21  O   UNL     1       2.977   1.710  18.341  0.00  0.00    +0.000 OA
ATOM     22  C   UNL     1       2.553   2.359  19.464  0.00  0.00    +0.000 A 
ATOM     23  O   UNL     1       1.721   1.915  20.245  0.00  0.00    +0.000 OA
BRANCH  19  24
ATOM     24  C   UNL     1       4.960   4.706  18.168  0.00  0.00    +0.000 A 
ATOM     25  C   UNL     1       4.616   5.595  17.135  0.00  0.00    +0.000 A 
ATOM     26  C   UNL     1       5.472   6.638  16.765  0.00  0.00    +0.000 A 
ATOM     27  C   UNL     1       6.685   6.805  17.422  0.00  0.00    +0.000 A 
ATOM     28  C   UNL     1       7.029   5.949  18.465  0.00  0.00    +0.000 A 
ATOM     29  C   UNL     1       6.164   4.920  18.849  0.00  0.00    +0.000 A 
ENDBRANCH  19  24
ENDBRANCH  17  18
ENDBRANCH   2  17
TORSDOF 5
ENDMDL
MODEL 3
REMARK VINA RESULT:      -8.4      1.438      1.669
REMARK  Name = 
REMARK  5 active torsions:
REMARK  status: ('A' for Active; 'I' for Inactive)
REMARK    1  A    between atoms: C_2  and  C_3
REMARK    2  A    between atoms: C_3  and  N_4
REMARK    3  A    between atoms: C_5  and  C_6
REMARK    4  A    between atoms: N_16  and  C_17
REMARK    5  A    between atoms: C_21  and  N_22
REMARK                            x       y       z     vdW  Elec       q    Type
REMARK                         _______ _______ _______ _____ _____    ______ ____
ROOT
ATOM      1  O   UNL     1       2.276   6.118  18.172  0.00  0.00    +0.000 OA
ATOM      2  C   UNL     1       2.483   6.185  19.379  0.00  0.00    +0.000 C 
ATOM      3  N   UNL     1       2.179   7.267  20.198  0.00  0.00    +0.000 N 
ATOM      4  H   UNL     1       2.317   7.157  21.194  0.00  0.00    +0.000 HD
ENDROOT
BRANCH   3   5
ATOM      5  C   UNL     1       1.603   8.493  19.788  0.00  0.00    +0.000 A 
ATOM      6  C   UNL     1       1.746   9.012  18.505  0.00  0.00    +0.000 A 
ATOM      7  C   UNL     1       1.112  10.199  18.156  0.00  0.00    +0.000 A 
ATOM      8  C   UNL     1       0.312  10.868  19.082  0.00  0.00    +0.000 A 
ATOM      9  C   UNL     1       0.147  10.383  20.383  0.00  0.00    +0.000 A 
ATOM     10  C   UNL     1       0.833   9.202  20.729  0.00  0.00    +0.000 A 
BRANCH   9  11
ATOM     11  N   UNL     1      -0.717  11.033  21.312  0.00  0.00    +0.000 N 
ATOM     12  C   UNL     1      -1.765  11.940  20.908  0.00  0.00    +0.000 C 
ATOM     13  C   UNL     1      -2.099  12.715  22.165  0.00  0.00    +0.000 C 
ATOM     14  C   UNL     1      -1.816  11.728  23.279  0.00  0.00    +0.000 C 
ATOM     15  C   UNL     1      -0.713  10.869  22.708  0.00  0.00    +0.000 C 
ATOM     16  O   UNL     1      -0.018  10.148  23.406  0.00  0.00    +0.000 OA
ENDBRANCH   9  11
ENDBRANCH   3   5
BRANCH   2  17
ATOM     17  C   UNL     1       3.020   4.976  20.150  0.00  0.00    +0.000 C 
BRANCH  17  18
ATOM     18  N   UNL     1       2.977   3.750  19.369  0.00  0.00    +0.000 N 
ATOM     19  C   UNL     1       3.696   3.262  18.335  0.00  0.00    +0.000 A 
ATOM     20  N   UNL     1       3.288   2.095  17.938  0.00  0.00    +0.000 NA
ATOM     21  O   UNL     1       2.199   1.757  18.785  0.00  0.00    +0.000 OA
ATOM     22  C   UNL     1       2.060   2.797  19.658  0.00  0.00    +0.000 A 
ATOM     23  O   UNL     1       1.213   2.847  20.541  0.00  0.00    +0.000 OA
BRANCH  19  24
ATOM     24  C   UNL     1       4.872   3.905  17.697  0.00  0.00    +0.000 A 
ATOM     25  C   UNL     1       4.856   4.048  16.299  0.00  0.00    +0.000 A 
ATOM     26  C   UNL     1       5.935   4.628  15.621  0.00  0.00    +0.000 A 
ATOM     27  C   UNL     1       7.043   5.070  16.332  0.00  0.00    +0.000 A 
ATOM     28  C   UNL     1       7.063   4.960  17.720  0.00  0.00    +0.000 A 
ATOM     29  C   UNL     1       5.976   4.400  18.399  0.00  0.00    +0.000 A 
ENDBRANCH  19  24
ENDBRANCH  17  18
ENDBRANCH   2  17
TORSDOF 5
ENDMDL
MODEL 4
REMARK VINA RESULT:      -8.4      2.668      3.531
REMARK  Name = 
REMARK  5 active torsions:
REMARK  status: ('A' for Active; 'I' for Inactive)
REMARK    1  A    between atoms: C_2  and  C_3
REMARK    2  A    between atoms: C_3  and  N_4
REMARK    3  A    between atoms: C_5  and  C_6
REMARK    4  A    between atoms: N_16  and  C_17
REMARK    5  A    between atoms: C_21  and  N_22
REMARK                            x       y       z     vdW  Elec       q    Type
REMARK                         _______ _______ _______ _____ _____    ______ ____
ROOT
ATOM      1  O   UNL     1       2.517   8.000  17.622  0.00  0.00    +0.000 OA
ATOM      2  C   UNL     1       2.294   7.751  18.802  0.00  0.00    +0.000 C 
ATOM      3  N   UNL     1       1.545   8.537  19.671  0.00  0.00    +0.000 N 
ATOM      4  H   UNL     1       1.360   8.171  20.596  0.00  0.00    +0.000 HD
ENDROOT
BRANCH   3   5
ATOM      5  C   UNL     1       0.929   9.774  19.364  0.00  0.00    +0.000 A 
ATOM      6  C   UNL     1       1.524  11.006  19.618  0.00  0.00    +0.000 A 
ATOM      7  C   UNL     1       0.883  12.181  19.246  0.00  0.00    +0.000 A 
ATOM      8  C   UNL     1      -0.352  12.136  18.598  0.00  0.00    +0.000 A 
ATOM      9  C   UNL     1      -0.985  10.919  18.329  0.00  0.00    +0.000 A 
ATOM     10  C   UNL     1      -0.339   9.741  18.754  0.00  0.00    +0.000 A 
BRANCH   9  11
ATOM     11  N   UNL     1      -2.217  10.867  17.615  0.00  0.00    +0.000 N 
ATOM     12  C   UNL     1      -2.369  10.171  16.359  0.00  0.00    +0.000 C 
ATOM     13  C   UNL     1      -3.636  10.743  15.760  0.00  0.00    +0.000 C 
ATOM     14  C   UNL     1      -4.474  11.098  16.971  0.00  0.00    +0.000 C 
ATOM     15  C   UNL     1      -3.441  11.426  18.023  0.00  0.00    +0.000 C 
ATOM     16  O   UNL     1      -3.718  12.034  19.045  0.00  0.00    +0.000 OA
ENDBRANCH   9  11
ENDBRANCH   3   5
BRANCH   2  17
ATOM     17  C   UNL     1       2.750   6.429  19.424  0.00  0.00    +0.000 C 
BRANCH  17  18
ATOM     18  N   UNL     1       3.144   5.447  18.427  0.00  0.00    +0.000 N 
ATOM     19  C   UNL     1       4.289   5.184  17.760  0.00  0.00    +0.000 A 
ATOM     20  N   UNL     1       4.179   4.189  16.932  0.00  0.00    +0.000 NA
ATOM     21  O   UNL     1       2.840   3.731  17.054  0.00  0.00    +0.000 OA
ATOM     22  C   UNL     1       2.251   4.524  17.997  0.00  0.00    +0.000 A 
ATOM     23  O   UNL     1       1.088   4.413  18.363  0.00  0.00    +0.000 OA
BRANCH  19  24
ATOM     24  C   UNL     1       5.590   5.877  17.935  0.00  0.00    +0.000 A 
ATOM     25  C   UNL     1       6.472   5.371  18.905  0.00  0.00    +0.000 A 
ATOM     26  C   UNL     1       7.710   5.979  19.142  0.00  0.00    +0.000 A 
ATOM     27  C   UNL     1       8.081   7.103  18.414  0.00  0.00    +0.000 A 
ATOM     28  C   UNL     1       7.230   7.601  17.431  0.00  0.00    +0.000 A 
ATOM     29  C   UNL     1       6.003   6.980  17.179  0.00  0.00    +0.000 A 
ENDBRANCH  19  24
ENDBRANCH  17  18
ENDBRANCH   2  17
TORSDOF 5
ENDMDL
MODEL 5
REMARK VINA RESULT:      -8.1      1.192      1.255
REMARK  Name = 
REMARK  5 active torsions:
REMARK  status: ('A' for Active; 'I' for Inactive)
REMARK    1  A    between atoms: C_2  and  C_3
REMARK    2  A    between atoms: C_3  and  N_4
REMARK    3  A    between atoms: C_5  and  C_6
REMARK    4  A    between atoms: N_16  and  C_17
REMARK    5  A    between atoms: C_21  and  N_22
REMARK                            x       y       z     vdW  Elec       q    Type
REMARK                         _______ _______ _______ _____ _____    ______ ____
ROOT
ATOM      1  O   UNL     1       2.211   5.967  18.178  0.00  0.00    +0.000 OA
ATOM      2  C   UNL     1       2.610   6.091  19.331  0.00  0.00    +0.000 C 
ATOM      3  N   UNL     1       2.425   7.208  20.139  0.00  0.00    +0.000 N 
ATOM      4  H   UNL     1       2.724   7.146  21.103  0.00  0.00    +0.000 HD
ENDROOT
BRANCH   3   5
ATOM      5  C   UNL     1       1.772   8.409  19.773  0.00  0.00    +0.000 A 
ATOM      6  C   UNL     1       1.658   8.845  18.457  0.00  0.00    +0.000 A 
ATOM      7  C   UNL     1       0.961  10.012  18.165  0.00  0.00    +0.000 A 
ATOM      8  C   UNL     1       0.353  10.743  19.185  0.00  0.00    +0.000 A 
ATOM      9  C   UNL     1       0.449  10.342  20.521  0.00  0.00    +0.000 A 
ATOM     10  C   UNL     1       1.198   9.181  20.800  0.00  0.00    +0.000 A 
BRANCH   9  11
ATOM     11  N   UNL     1      -0.220  11.054  21.559  0.00  0.00    +0.000 N 
ATOM     12  C   UNL     1      -0.875  10.399  22.666  0.00  0.00    +0.000 C 
ATOM     13  C   UNL     1      -1.803  11.452  23.234  0.00  0.00    +0.000 C 
ATOM     14  C   UNL     1      -1.083  12.753  22.948  0.00  0.00    +0.000 C 
ATOM     15  C   UNL     1      -0.310  12.451  21.686  0.00  0.00    +0.000 C 
ATOM     16  O   UNL     1       0.164  13.330  20.983  0.00  0.00    +0.000 OA
ENDBRANCH   9  11
ENDBRANCH   3   5
BRANCH   2  17
ATOM     17  C   UNL     1       3.282   4.924  20.058  0.00  0.00    +0.000 C 
BRANCH  17  18
ATOM     18  N   UNL     1       3.248   3.691  19.288  0.00  0.00    +0.000 N 
ATOM     19  C   UNL     1       3.907   3.238  18.198  0.00  0.00    +0.000 A 
ATOM     20  N   UNL     1       3.539   2.045  17.842  0.00  0.00    +0.000 NA
ATOM     21  O   UNL     1       2.548   1.649  18.779  0.00  0.00    +0.000 OA
ATOM     22  C   UNL     1       2.419   2.687  19.657  0.00  0.00    +0.000 A 
ATOM     23  O   UNL     1       1.648   2.693  20.608  0.00  0.00    +0.000 OA
BRANCH  19  24
ATOM     24  C   UNL     1       4.982   3.946  17.461  0.00  0.00    +0.000 A 
ATOM     25  C   UNL     1       4.779   4.195  16.093  0.00  0.00    +0.000 A 
ATOM     26  C   UNL     1       5.754   4.842  15.324  0.00  0.00    +0.000 A 
ATOM     27  C   UNL     1       6.946   5.245  15.913  0.00  0.00    +0.000 A 
ATOM     28  C   UNL     1       7.152   5.030  17.273  0.00  0.00    +0.000 A 
ATOM     29  C   UNL     1       6.169   4.404  18.045  0.00  0.00    +0.000 A 
ENDBRANCH  19  24
ENDBRANCH  17  18
ENDBRANCH   2  17
TORSDOF 5
ENDMDL
MODEL 6
REMARK VINA RESULT:      -8.1      1.957      3.000
REMARK  Name = 
REMARK  5 active torsions:
REMARK  status: ('A' for Active; 'I' for Inactive)
REMARK    1  A    between atoms: C_2  and  C_3
REMARK    2  A    between atoms: C_3  and  N_4
REMARK    3  A    between atoms: C_5  and  C_6
REMARK    4  A    between atoms: N_16  and  C_17
REMARK    5  A    between atoms: C_21  and  N_22
REMARK                            x       y       z     vdW  Elec       q    Type
REMARK                         _______ _______ _______ _____ _____    ______ ____
ROOT
ATOM      1  O   UNL     1       1.988   7.581  18.819  0.00  0.00    +0.000 OA
ATOM      2  C   UNL     1       2.217   7.025  19.888  0.00  0.00    +0.000 C 
ATOM      3  N   UNL     1       1.763   7.442  21.135  0.00  0.00    +0.000 N 
ATOM      4  H   UNL     1       1.946   6.841  21.928  0.00  0.00    +0.000 HD
ENDROOT
BRANCH   3   5
ATOM      5  C   UNL     1       0.984   8.592  21.402  0.00  0.00    +0.000 A 
ATOM      6  C   UNL     1       0.041   8.654  22.424  0.00  0.00    +0.000 A 
ATOM      7  C   UNL     1      -0.655   9.834  22.662  0.00  0.00    +0.000 A 
ATOM      8  C   UNL     1      -0.401  10.970  21.893  0.00  0.00    +0.000 A 
ATOM      9  C   UNL     1       0.534  10.947  20.854  0.00  0.00    +0.000 A 
ATOM     10  C   UNL     1       1.196   9.730  20.601  0.00  0.00    +0.000 A 
BRANCH   9  11
ATOM     11  N   UNL     1       0.838  12.121  20.106  0.00  0.00    +0.000 N 
ATOM     12  C   UNL     1       1.989  12.949  20.376  0.00  0.00    +0.000 C 
ATOM     13  C   UNL     1       1.677  14.265  19.695  0.00  0.00    +0.000 C 
ATOM     14  C   UNL     1       0.821  13.860  18.513  0.00  0.00    +0.000 C 
ATOM     15  C   UNL     1       0.119  12.616  19.004  0.00  0.00    +0.000 C 
ATOM     16  O   UNL     1      -0.869  12.161  18.449  0.00  0.00    +0.000 OA
ENDBRANCH   9  11
ENDBRANCH   3   5
BRANCH   2  17
ATOM     17  C   UNL     1       2.966   5.691  19.933  0.00  0.00    +0.000 C 
BRANCH  17  18
ATOM     18  N   UNL     1       2.471   4.738  18.952  0.00  0.00    +0.000 N 
ATOM     19  C   UNL     1       2.893   4.328  17.736  0.00  0.00    +0.000 A 
ATOM     20  N   UNL     1       2.112   3.440  17.200  0.00  0.00    +0.000 NA
ATOM     21  O   UNL     1       1.071   3.221  18.141  0.00  0.00    +0.000 OA
ATOM     22  C   UNL     1       1.347   4.028  19.207  0.00  0.00    +0.000 A 
ATOM     23  O   UNL     1       0.656   4.098  20.215  0.00  0.00    +0.000 OA
BRANCH  19  24
ATOM     24  C   UNL     1       4.131   4.760  17.040  0.00  0.00    +0.000 A 
ATOM     25  C   UNL     1       4.957   3.760  16.500  0.00  0.00    +0.000 A 
ATOM     26  C   UNL     1       6.150   4.085  15.845  0.00  0.00    +0.000 A 
ATOM     27  C   UNL     1       6.534   5.415  15.724  0.00  0.00    +0.000 A 
ATOM     28  C   UNL     1       5.714   6.419  16.230  0.00  0.00    +0.000 A 
ATOM     29  C   UNL     1       4.511   6.095  16.865  0.00  0.00    +0.000 A 
ENDBRANCH  19  24
ENDBRANCH  17  18
ENDBRANCH   2  17
TORSDOF 5
ENDMDL
MODEL 7
REMARK VINA RESULT:      -8.1      1.249      1.714
REMARK  Name = 
REMARK  5 active torsions:
REMARK  status: ('A' for Active; 'I' for Inactive)
REMARK    1  A    between atoms: C_2  and  C_3
REMARK    2  A    between atoms: C_3  and  N_4
REMARK    3  A    between atoms: C_5  and  C_6
REMARK    4  A    between atoms: N_16  and  C_17
REMARK    5  A    between atoms: C_21  and  N_22
REMARK                            x       y       z     vdW  Elec       q    Type
REMARK                         _______ _______ _______ _____ _____    ______ ____
ROOT
ATOM      1  O   UNL     1       1.811   5.619  18.296  0.00  0.00    +0.000 OA
ATOM      2  C   UNL     1       2.423   5.831  19.338  0.00  0.00    +0.000 C 
ATOM      3  N   UNL     1       2.474   7.043  20.018  0.00  0.00    +0.000 N 
ATOM      4  H   UNL     1       2.939   7.059  20.916  0.00  0.00    +0.000 HD
ENDROOT
BRANCH   3   5
ATOM      5  C   UNL     1       1.858   8.253  19.623  0.00  0.00    +0.000 A 
ATOM      6  C   UNL     1       1.872   8.725  18.314  0.00  0.00    +0.000 A 
ATOM      7  C   UNL     1       1.204   9.899  17.986  0.00  0.00    +0.000 A 
ATOM      8  C   UNL     1       0.496  10.603  18.961  0.00  0.00    +0.000 A 
ATOM      9  C   UNL     1       0.462  10.165  20.288  0.00  0.00    +0.000 A 
ATOM     10  C   UNL     1       1.182   8.998  20.608  0.00  0.00    +0.000 A 
BRANCH   9  11
ATOM     11  N   UNL     1      -0.308  10.850  21.274  0.00  0.00    +0.000 N 
ATOM     12  C   UNL     1      -0.802  12.194  21.091  0.00  0.00    +0.000 C 
ATOM     13  C   UNL     1      -1.137  12.668  22.489  0.00  0.00    +0.000 C 
ATOM     14  C   UNL     1      -1.539  11.397  23.209  0.00  0.00    +0.000 C 
ATOM     15  C   UNL     1      -0.726  10.332  22.512  0.00  0.00    +0.000 C 
ATOM     16  O   UNL     1      -0.554   9.222  22.991  0.00  0.00    +0.000 OA
ENDBRANCH   9  11
ENDBRANCH   3   5
BRANCH   2  17
ATOM     17  C   UNL     1       3.128   4.692  20.079  0.00  0.00    +0.000 C 
BRANCH  17  18
ATOM     18  N   UNL     1       3.270   3.497  19.263  0.00  0.00    +0.000 N 
ATOM     19  C   UNL     1       4.010   3.174  18.179  0.00  0.00    +0.000 A 
ATOM     20  N   UNL     1       3.804   1.960  17.766  0.00  0.00    +0.000 NA
ATOM     21  O   UNL     1       2.844   1.407  18.655  0.00  0.00    +0.000 OA
ATOM     22  C   UNL     1       2.562   2.383  19.566  0.00  0.00    +0.000 A 
ATOM     23  O   UNL     1       1.770   2.256  20.491  0.00  0.00    +0.000 OA
BRANCH  19  24
ATOM     24  C   UNL     1       5.010   4.039  17.505  0.00  0.00    +0.000 A 
ATOM     25  C   UNL     1       6.143   4.422  18.243  0.00  0.00    +0.000 A 
ATOM     26  C   UNL     1       7.122   5.251  17.684  0.00  0.00    +0.000 A 
ATOM     27  C   UNL     1       6.979   5.710  16.381  0.00  0.00    +0.000 A 
ATOM     28  C   UNL     1       5.876   5.319  15.627  0.00  0.00    +0.000 A 
ATOM     29  C   UNL     1       4.909   4.473  16.178  0.00  0.00    +0.000 A 
ENDBRANCH  19  24
ENDBRANCH  17  18
ENDBRANCH   2  17
TORSDOF 5
ENDMDL
MODEL 8
REMARK VINA RESULT:      -8.0      2.206      3.992
REMARK  Name = 
REMARK  5 active torsions:
REMARK  status: ('A' for Active; 'I' for Inactive)
REMARK    1  A    between atoms: C_2  and  C_3
REMARK    2  A    between atoms: C_3  and  N_4
REMARK    3  A    between atoms: C_5  and  C_6
REMARK    4  A    between atoms: N_16  and  C_17
REMARK    5  A    between atoms: C_21  and  N_22
REMARK                            x       y       z     vdW  Elec       q    Type
REMARK                         _______ _______ _______ _____ _____    ______ ____
ROOT
ATOM      1  O   UNL     1       1.640   6.004  17.622  0.00  0.00    +0.000 OA
ATOM      2  C   UNL     1       2.708   6.558  17.862  0.00  0.00    +0.000 C 
ATOM      3  N   UNL     1       2.906   7.576  18.789  0.00  0.00    +0.000 N 
ATOM      4  H   UNL     1       3.855   7.882  18.956  0.00  0.00    +0.000 HD
ENDROOT
BRANCH   3   5
ATOM      5  C   UNL     1       1.914   8.176  19.600  0.00  0.00    +0.000 A 
ATOM      6  C   UNL     1       1.417   7.587  20.759  0.00  0.00    +0.000 A 
ATOM      7  C   UNL     1       0.478   8.256  21.536  0.00  0.00    +0.000 A 
ATOM      8  C   UNL     1       0.041   9.529  21.171  0.00  0.00    +0.000 A 
ATOM      9  C   UNL     1       0.511  10.153  20.012  0.00  0.00    +0.000 A 
ATOM     10  C   UNL     1       1.429   9.440  19.215  0.00  0.00    +0.000 A 
BRANCH   9  11
ATOM     11  N   UNL     1       0.111  11.477  19.669  0.00  0.00    +0.000 N 
ATOM     12  C   UNL     1      -0.826  11.765  18.608  0.00  0.00    +0.000 C 
ATOM     13  C   UNL     1      -0.608  13.231  18.298  0.00  0.00    +0.000 C 
ATOM     14  C   UNL     1      -0.182  13.817  19.628  0.00  0.00    +0.000 C 
ATOM     15  C   UNL     1       0.514  12.662  20.308  0.00  0.00    +0.000 C 
ATOM     16  O   UNL     1       1.247  12.816  21.273  0.00  0.00    +0.000 OA
ENDBRANCH   9  11
ENDBRANCH   3   5
BRANCH   2  17
ATOM     17  C   UNL     1       4.005   6.075  17.209  0.00  0.00    +0.000 C 
BRANCH  17  18
ATOM     18  N   UNL     1       4.810   5.257  18.102  0.00  0.00    +0.000 N 
ATOM     19  C   UNL     1       4.534   4.304  19.019  0.00  0.00    +0.000 A 
ATOM     20  N   UNL     1       5.595   3.838  19.604  0.00  0.00    +0.000 NA
ATOM     21  O   UNL     1       6.691   4.530  19.026  0.00  0.00    +0.000 OA
ATOM     22  C   UNL     1       6.159   5.378  18.097  0.00  0.00    +0.000 A 
ATOM     23  O   UNL     1       6.818   6.136  17.397  0.00  0.00    +0.000 OA
BRANCH  19  24
ATOM     24  C   UNL     1       3.193   3.758  19.345  0.00  0.00    +0.000 A 
ATOM     25  C   UNL     1       2.632   2.832  18.449  0.00  0.00    +0.000 A 
ATOM     26  C   UNL     1       1.364   2.284  18.677  0.00  0.00    +0.000 A 
ATOM     27  C   UNL     1       0.640   2.658  19.802  0.00  0.00    +0.000 A 
ATOM     28  C   UNL     1       1.192   3.555  20.713  0.00  0.00    +0.000 A 
ATOM     29  C   UNL     1       2.468   4.084  20.497  0.00  0.00    +0.000 A 
ENDBRANCH  19  24
ENDBRANCH  17  18
ENDBRANCH   2  17
TORSDOF 5
ENDMDL
MODEL 9
REMARK VINA RESULT:      -8.0      1.103      1.435
REMARK  Name = 
REMARK  5 active torsions:
REMARK  status: ('A' for Active; 'I' for Inactive)
REMARK    1  A    between atoms: C_2  and  C_3
REMARK    2  A    between atoms: C_3  and  N_4
REMARK    3  A    between atoms: C_5  and  C_6
REMARK    4  A    between atoms: N_16  and  C_17
REMARK    5  A    between atoms: C_21  and  N_22
REMARK                            x       y       z     vdW  Elec       q    Type
REMARK                         _______ _______ _______ _____ _____    ______ ____
ROOT
ATOM      1  O   UNL     1       2.020   5.814  18.182  0.00  0.00    +0.000 OA
ATOM      2  C   UNL     1       2.437   5.976  19.324  0.00  0.00    +0.000 C 
ATOM      3  N   UNL     1       2.327   7.144  20.072  0.00  0.00    +0.000 N 
ATOM      4  H   UNL     1       2.633   7.115  21.036  0.00  0.00    +0.000 HD
ENDROOT
BRANCH   3   5
ATOM      5  C   UNL     1       1.743   8.360  19.647  0.00  0.00    +0.000 A 
ATOM      6  C   UNL     1       1.845   8.842  18.346  0.00  0.00    +0.000 A 
ATOM      7  C   UNL     1       1.203  10.022  17.986  0.00  0.00    +0.000 A 
ATOM      8  C   UNL     1       0.437  10.721  18.918  0.00  0.00    +0.000 A 
ATOM      9  C   UNL     1       0.313  10.272  20.237  0.00  0.00    +0.000 A 
ATOM     10  C   UNL     1       1.007   9.099  20.593  0.00  0.00    +0.000 A 
BRANCH   9  11
ATOM     11  N   UNL     1      -0.516  10.952  21.175  0.00  0.00    +0.000 N 
ATOM     12  C   UNL     1      -0.416  10.752  22.602  0.00  0.00    +0.000 C 
ATOM     13  C   UNL     1      -1.724  11.280  23.151  0.00  0.00    +0.000 C 
ATOM     14  C   UNL     1      -2.099  12.382  22.181  0.00  0.00    +0.000 C 
ATOM     15  C   UNL     1      -1.495  11.915  20.878  0.00  0.00    +0.000 C 
ATOM     16  O   UNL     1      -1.825  12.385  19.799  0.00  0.00    +0.000 OA
ENDBRANCH   9  11
ENDBRANCH   3   5
BRANCH   2  17
ATOM     17  C   UNL     1       3.048   4.812  20.108  0.00  0.00    +0.000 C 
BRANCH  17  18
ATOM     18  N   UNL     1       3.195   3.611  19.302  0.00  0.00    +0.000 N 
ATOM     19  C   UNL     1       3.951   3.276  18.233  0.00  0.00    +0.000 A 
ATOM     20  N   UNL     1       3.743   2.061  17.824  0.00  0.00    +0.000 NA
ATOM     21  O   UNL     1       2.765   1.520  18.699  0.00  0.00    +0.000 OA
ATOM     22  C   UNL     1       2.474   2.504  19.600  0.00  0.00    +0.000 A 
ATOM     23  O   UNL     1       1.666   2.388  20.512  0.00  0.00    +0.000 OA
BRANCH  19  24
ATOM     24  C   UNL     1       4.968   4.130  17.570  0.00  0.00    +0.000 A 
ATOM     25  C   UNL     1       6.132   4.437  18.296  0.00  0.00    +0.000 A 
ATOM     26  C   UNL     1       7.130   5.251  17.748  0.00  0.00    +0.000 A 
ATOM     27  C   UNL     1       6.976   5.770  16.468  0.00  0.00    +0.000 A 
ATOM     28  C   UNL     1       5.841   5.454  15.727  0.00  0.00    +0.000 A 
ATOM     29  C   UNL     1       4.854   4.623  16.266  0.00  0.00    +0.000 A 
ENDBRANCH  19  24
ENDBRANCH  17  18
ENDBRANCH   2  17
TORSDOF 5
ENDMDL
