MODEL 1
REMARK VINA RESULT:      -8.9      0.000      0.000
REMARK  Name = 
REMARK  6 active torsions:
REMARK  status: ('A' for Active; 'I' for Inactive)
REMARK    1  A    between atoms: C_1  and  C_2
REMARK    2  A    between atoms: C_4  and  C_5
REMARK    3  A    between atoms: C_8  and  S_9
REMARK    4  A    between atoms: S_9  and  N_12
REMARK    5  A    between atoms: C_16  and  C_17
REMARK    6  A    between atoms: C_17  and  C_18
REMARK                            x       y       z     vdW  Elec       q    Type
REMARK                         _______ _______ _______ _____ _____    ______ ____
ROOT
ATOM      1  S   UNL     1       2.778   5.250  19.859  0.00  0.00    +0.000 S 
ATOM      2  O   UNL     1       4.176   5.297  20.228  0.00  0.00    +0.000 OA
ATOM      3  O   UNL     1       1.803   4.599  20.710  0.00  0.00    +0.000 OA
ENDROOT
BRANCH   1   7
ATOM      4  C   UNL     1       1.319   9.552  19.138  0.00  0.00    +0.000 A 
ATOM      5  C   UNL     1       1.955   8.826  18.115  0.00  0.00    +0.000 A 
ATOM      6  C   UNL     1       2.422   7.523  18.332  0.00  0.00    +0.000 A 
ATOM      7  C   UNL     1       2.258   6.929  19.585  0.00  0.00    +0.000 A 
ATOM      8  C   UNL     1       1.589   7.614  20.601  0.00  0.00    +0.000 A 
ATOM      9  C   UNL     1       1.123   8.919  20.377  0.00  0.00    +0.000 A 
BRANCH   4  13
ATOM     10  C   UNL     1       1.386  14.472  18.616  0.00  0.00    +0.000 C 
ATOM     11  C   UNL     1       1.011  13.044  18.684  0.00  0.00    +0.000 A 
ATOM     12  N   UNL     1       1.778  11.996  18.902  0.00  0.00    +0.000 NA
ATOM     13  C   UNL     1       0.907  10.927  18.882  0.00  0.00    +0.000 A 
ATOM     14  C   UNL     1      -0.367  11.392  18.647  0.00  0.00    +0.000 A 
ATOM     15  O   UNL     1      -0.313  12.748  18.515  0.00  0.00    +0.000 OA
ENDBRANCH   4  13
ENDBRANCH   1   7
BRANCH   1  16
ATOM     16  N   UNL     1       2.683   4.501  18.307  0.00  0.00    +0.000 NA
ATOM     17  C   UNL     1       1.371   3.874  17.978  0.00  0.00    +0.000 C 
ATOM     18  C   UNL     1       1.559   2.400  18.286  0.00  0.00    +0.000 C 
ATOM     19  C   UNL     1       2.976   2.127  17.832  0.00  0.00    +0.000 C 
ATOM     20  C   UNL     1       3.742   3.435  18.080  0.00  0.00    +0.000 C 
BRANCH  20  21
ATOM     21  C   UNL     1       4.619   3.826  16.872  0.00  0.00    +0.000 C 
BRANCH  21  22
ATOM     22  C   UNL     1       5.627   4.920  17.171  0.00  0.00    +0.000 A 
ATOM     23  C   UNL     1       6.767   4.649  17.947  0.00  0.00    +0.000 A 
ATOM     24  C   UNL     1       7.680   5.665  18.247  0.00  0.00    +0.000 A 
ATOM     25  C   UNL     1       7.457   6.949  17.767  0.00  0.00    +0.000 A 
ATOM     26  F   UNL     1       8.327   7.923  18.062  0.00  0.00    +0.000 F 
ATOM     27  C   UNL     1       6.345   7.235  16.988  0.00  0.00    +0.000 A 
ATOM     28  C   UNL     1       5.433   6.222  16.684  0.00  0.00    +0.000 A 
ENDBRANCH  21  22
ENDBRANCH  20  21
ENDBRANCH   1  16
TORSDOF 5
ENDMDL
MODEL 2
REMARK VINA RESULT:      -8.6      0.910      1.439
REMARK  Name = 
REMARK  6 active torsions:
REMARK  status: ('A' for Active; 'I' for Inactive)
REMARK    1  A    between atoms: C_1  and  C_2
REMARK    2  A    between atoms: C_4  and  C_5
REMARK    3  A    between atoms: C_8  and  S_9
REMARK    4  A    between atoms: S_9  and  N_12
REMARK    5  A    between atoms: C_16  and  C_17
REMARK    6  A    between atoms: C_17  and  C_18
REMARK                            x       y       z     vdW  Elec       q    Type
REMARK                         _______ _______ _______ _____ _____    ______ ____
ROOT
ATOM      1  S   UNL     1       2.957   5.096  19.922  0.00  0.00    +0.000 S 
ATOM      2  O   UNL     1       4.381   5.288  20.088  0.00  0.00    +0.000 OA
ATOM      3  O   UNL     1       2.190   4.327  20.880  0.00  0.00    +0.000 OA
ENDROOT
BRANCH   1   7
ATOM      4  C   UNL     1       1.185   9.326  19.576  0.00  0.00    +0.000 A 
ATOM      5  C   UNL     1       1.061   8.589  20.767  0.00  0.00    +0.000 A 
ATOM      6  C   UNL     1       1.578   7.291  20.875  0.00  0.00    +0.000 A 
ATOM      7  C   UNL     1       2.229   6.713  19.783  0.00  0.00    +0.000 A 
ATOM      8  C   UNL     1       2.402   7.445  18.605  0.00  0.00    +0.000 A 
ATOM      9  C   UNL     1       1.882   8.745  18.505  0.00  0.00    +0.000 A 
BRANCH   4  13
ATOM     10  C   UNL     1      -2.014  13.076  20.015  0.00  0.00    +0.000 C 
ATOM     11  C   UNL     1      -0.855  12.211  19.712  0.00  0.00    +0.000 A 
ATOM     12  N   UNL     1      -0.644  10.958  20.061  0.00  0.00    +0.000 NA
ATOM     13  C   UNL     1       0.574  10.649  19.493  0.00  0.00    +0.000 A 
ATOM     14  C   UNL     1       1.048  11.751  18.819  0.00  0.00    +0.000 A 
ATOM     15  O   UNL     1       0.141  12.761  18.954  0.00  0.00    +0.000 OA
ENDBRANCH   4  13
ENDBRANCH   1   7
BRANCH   1  16
ATOM     16  N   UNL     1       2.715   4.372  18.374  0.00  0.00    +0.000 NA
ATOM     17  C   UNL     1       1.353   3.819  18.131  0.00  0.00    +0.000 C 
ATOM     18  C   UNL     1       1.482   2.333  18.414  0.00  0.00    +0.000 C 
ATOM     19  C   UNL     1       2.849   1.991  17.861  0.00  0.00    +0.000 C 
ATOM     20  C   UNL     1       3.698   3.254  18.066  0.00  0.00    +0.000 C 
BRANCH  20  21
ATOM     21  C   UNL     1       4.510   3.612  16.803  0.00  0.00    +0.000 C 
BRANCH  21  22
ATOM     22  C   UNL     1       5.482   4.760  17.000  0.00  0.00    +0.000 A 
ATOM     23  C   UNL     1       6.707   4.554  17.659  0.00  0.00    +0.000 A 
ATOM     24  C   UNL     1       7.589   5.619  17.868  0.00  0.00    +0.000 A 
ATOM     25  C   UNL     1       7.252   6.886  17.413  0.00  0.00    +0.000 A 
ATOM     26  F   UNL     1       8.093   7.907  17.621  0.00  0.00    +0.000 F 
ATOM     27  C   UNL     1       6.054   7.109  16.748  0.00  0.00    +0.000 A 
ATOM     28  C   UNL     1       5.172   6.047  16.535  0.00  0.00    +0.000 A 
ENDBRANCH  21  22
ENDBRANCH  20  21
ENDBRANCH   1  16
TORSDOF 5
ENDMDL
MODEL 3
REMARK VINA RESULT:      -8.5      0.851      1.313
REMARK  Name = 
REMARK  6 active torsions:
REMARK  status: ('A' for Active; 'I' for Inactive)
REMARK    1  A    between atoms: C_1  and  C_2
REMARK    2  A    between atoms: C_4  and  C_5
REMARK    3  A    between atoms: C_8  and  S_9
REMARK    4  A    between atoms: S_9  and  N_12
REMARK    5  A    between atoms: C_16  and  C_17
REMARK    6  A    between atoms: C_17  and  C_18
REMARK                            x       y       z     vdW  Elec       q    Type
REMARK                         _______ _______ _______ _____ _____    ______ ____
ROOT
ATOM      1  S   UNL     1       2.244   5.146  19.847  0.00  0.00    +0.000 S 
ATOM      2  O   UNL     1       3.499   5.029  20.559  0.00  0.00    +0.000 OA
ATOM      3  O   UNL     1       1.017   4.614  20.403  0.00  0.00    +0.000 OA
ENDROOT
BRANCH   1   7
ATOM      4  C   UNL     1       1.745   9.634  18.974  0.00  0.00    +0.000 A 
ATOM      5  C   UNL     1       1.321   9.087  20.198  0.00  0.00    +0.000 A 
ATOM      6  C   UNL     1       1.449   7.718  20.465  0.00  0.00    +0.000 A 
ATOM      7  C   UNL     1       2.006   6.875  19.501  0.00  0.00    +0.000 A 
ATOM      8  C   UNL     1       2.474   7.404  18.296  0.00  0.00    +0.000 A 
ATOM      9  C   UNL     1       2.344   8.777  18.036  0.00  0.00    +0.000 A 
BRANCH   4  13
ATOM     10  C   UNL     1      -0.350  14.108  18.681  0.00  0.00    +0.000 C 
ATOM     11  C   UNL     1       0.562  12.947  18.618  0.00  0.00    +0.000 A 
ATOM     12  N   UNL     1       0.377  11.722  19.067  0.00  0.00    +0.000 NA
ATOM     13  C   UNL     1       1.532  11.055  18.720  0.00  0.00    +0.000 A 
ATOM     14  C   UNL     1       2.376  11.926  18.069  0.00  0.00    +0.000 A 
ATOM     15  O   UNL     1       1.766  13.144  18.000  0.00  0.00    +0.000 OA
ENDBRANCH   4  13
ENDBRANCH   1   7
BRANCH   1  16
ATOM     16  N   UNL     1       2.464   4.415  18.299  0.00  0.00    +0.000 NA
ATOM     17  C   UNL     1       1.423   3.423  17.907  0.00  0.00    +0.000 C 
ATOM     18  C   UNL     1       2.031   2.072  18.239  0.00  0.00    +0.000 C 
ATOM     19  C   UNL     1       3.487   2.244  17.865  0.00  0.00    +0.000 C 
ATOM     20  C   UNL     1       3.807   3.721  18.140  0.00  0.00    +0.000 C 
BRANCH  20  21
ATOM     21  C   UNL     1       4.589   4.367  16.977  0.00  0.00    +0.000 C 
BRANCH  21  22
ATOM     22  C   UNL     1       5.715   5.280  17.424  0.00  0.00    +0.000 A 
ATOM     23  C   UNL     1       6.550   4.914  18.494  0.00  0.00    +0.000 A 
ATOM     24  C   UNL     1       7.568   5.769  18.925  0.00  0.00    +0.000 A 
ATOM     25  C   UNL     1       7.757   6.987  18.284  0.00  0.00    +0.000 A 
ATOM     26  F   UNL     1       8.727   7.809  18.703  0.00  0.00    +0.000 F 
ATOM     27  C   UNL     1       6.953   7.362  17.217  0.00  0.00    +0.000 A 
ATOM     28  C   UNL     1       5.937   6.508  16.782  0.00  0.00    +0.000 A 
ENDBRANCH  21  22
ENDBRANCH  20  21
ENDBRANCH   1  16
TORSDOF 5
ENDMDL
MODEL 4
REMARK VINA RESULT:      -8.5      0.905      1.399
REMARK  Name = 
REMARK  6 active torsions:
REMARK  status: ('A' for Active; 'I' for Inactive)
REMARK    1  A    between atoms: C_1  and  C_2
REMARK    2  A    between atoms: C_4  and  C_5
REMARK    3  A    between atoms: C_8  and  S_9
REMARK    4  A    between atoms: S_9  and  N_12
REMARK    5  A    between atoms: C_16  and  C_17
REMARK    6  A    between atoms: C_17  and  C_18
REMARK                            x       y       z     vdW  Elec       q    Type
REMARK                         _______ _______ _______ _____ _____    ______ ____
ROOT
ATOM      1  S   UNL     1       2.910   5.092  19.990  0.00  0.00    +0.000 S 
ATOM      2  O   UNL     1       4.333   5.214  20.221  0.00  0.00    +0.000 OA
ATOM      3  O   UNL     1       2.070   4.333  20.893  0.00  0.00    +0.000 OA
ENDROOT
BRANCH   1   7
ATOM      4  C   UNL     1       1.124   9.318  19.663  0.00  0.00    +0.000 A 
ATOM      5  C   UNL     1       1.832   8.750  18.588  0.00  0.00    +0.000 A 
ATOM      6  C   UNL     1       2.398   7.472  18.686  0.00  0.00    +0.000 A 
ATOM      7  C   UNL     1       2.262   6.745  19.870  0.00  0.00    +0.000 A 
ATOM      8  C   UNL     1       1.526   7.271  20.934  0.00  0.00    +0.000 A 
ATOM      9  C   UNL     1       0.960   8.552  20.828  0.00  0.00    +0.000 A 
BRANCH   4  13
ATOM     10  C   UNL     1      -1.789  13.304  19.997  0.00  0.00    +0.000 C 
ATOM     11  C   UNL     1      -0.702  12.345  19.712  0.00  0.00    +0.000 A 
ATOM     12  N   UNL     1      -0.573  11.096  20.110  0.00  0.00    +0.000 NA
ATOM     13  C   UNL     1       0.608  10.676  19.534  0.00  0.00    +0.000 A 
ATOM     14  C   UNL     1       1.144  11.712  18.804  0.00  0.00    +0.000 A 
ATOM     15  O   UNL     1       0.314  12.790  18.912  0.00  0.00    +0.000 OA
ENDBRANCH   4  13
ENDBRANCH   1   7
BRANCH   1  16
ATOM     16  N   UNL     1       2.703   4.423  18.413  0.00  0.00    +0.000 NA
ATOM     17  C   UNL     1       1.335   3.916  18.108  0.00  0.00    +0.000 C 
ATOM     18  C   UNL     1       1.415   2.419  18.347  0.00  0.00    +0.000 C 
ATOM     19  C   UNL     1       2.790   2.057  17.829  0.00  0.00    +0.000 C 
ATOM     20  C   UNL     1       3.665   3.290  18.102  0.00  0.00    +0.000 C 
BRANCH  20  21
ATOM     21  C   UNL     1       4.528   3.664  16.879  0.00  0.00    +0.000 C 
BRANCH  21  22
ATOM     22  C   UNL     1       5.498   4.802  17.135  0.00  0.00    +0.000 A 
ATOM     23  C   UNL     1       5.211   6.102  16.684  0.00  0.00    +0.000 A 
ATOM     24  C   UNL     1       6.119   7.144  16.893  0.00  0.00    +0.000 A 
ATOM     25  C   UNL     1       7.311   6.890  17.559  0.00  0.00    +0.000 A 
ATOM     26  F   UNL     1       8.184   7.886  17.753  0.00  0.00    +0.000 F 
ATOM     27  C   UNL     1       7.609   5.617  18.025  0.00  0.00    +0.000 A 
ATOM     28  C   UNL     1       6.702   4.574  17.820  0.00  0.00    +0.000 A 
ENDBRANCH  21  22
ENDBRANCH  20  21
ENDBRANCH   1  16
TORSDOF 5
ENDMDL
MODEL 5
REMARK VINA RESULT:      -8.4      0.660      1.432
REMARK  Name = 
REMARK  6 active torsions:
REMARK  status: ('A' for Active; 'I' for Inactive)
REMARK    1  A    between atoms: C_1  and  C_2
REMARK    2  A    between atoms: C_4  and  C_5
REMARK    3  A    between atoms: C_8  and  S_9
REMARK    4  A    between atoms: S_9  and  N_12
REMARK    5  A    between atoms: C_16  and  C_17
REMARK    6  A    between atoms: C_17  and  C_18
REMARK                            x       y       z     vdW  Elec       q    Type
REMARK                         _______ _______ _______ _____ _____    ______ ____
ROOT
ATOM      1  S   UNL     1       2.187   5.034  19.876  0.00  0.00    +0.000 S 
ATOM      2  O   UNL     1       3.419   4.938  20.628  0.00  0.00    +0.000 OA
ATOM      3  O   UNL     1       0.951   4.484  20.393  0.00  0.00    +0.000 OA
ENDROOT
BRANCH   1   7
ATOM      4  C   UNL     1       1.647   9.511  18.969  0.00  0.00    +0.000 A 
ATOM      5  C   UNL     1       1.293   8.983  20.223  0.00  0.00    +0.000 A 
ATOM      6  C   UNL     1       1.433   7.617  20.502  0.00  0.00    +0.000 A 
ATOM      7  C   UNL     1       1.932   6.759  19.519  0.00  0.00    +0.000 A 
ATOM      8  C   UNL     1       2.332   7.269  18.282  0.00  0.00    +0.000 A 
ATOM      9  C   UNL     1       2.189   8.639  18.010  0.00  0.00    +0.000 A 
BRANCH   4  13
ATOM     10  C   UNL     1       2.408  14.292  17.942  0.00  0.00    +0.000 C 
ATOM     11  C   UNL     1       1.829  12.972  18.267  0.00  0.00    +0.000 A 
ATOM     12  N   UNL     1       2.430  11.802  18.353  0.00  0.00    +0.000 NA
ATOM     13  C   UNL     1       1.423  10.929  18.707  0.00  0.00    +0.000 A 
ATOM     14  C   UNL     1       0.242  11.626  18.817  0.00  0.00    +0.000 A 
ATOM     15  O   UNL     1       0.489  12.938  18.535  0.00  0.00    +0.000 OA
ENDBRANCH   4  13
ENDBRANCH   1   7
BRANCH   1  16
ATOM     16  N   UNL     1       2.467   4.305  18.337  0.00  0.00    +0.000 NA
ATOM     17  C   UNL     1       1.490   3.252  17.940  0.00  0.00    +0.000 C 
ATOM     18  C   UNL     1       2.169   1.941  18.291  0.00  0.00    +0.000 C 
ATOM     19  C   UNL     1       3.618   2.192  17.933  0.00  0.00    +0.000 C 
ATOM     20  C   UNL     1       3.849   3.687  18.200  0.00  0.00    +0.000 C 
BRANCH  20  21
ATOM     21  C   UNL     1       4.608   4.367  17.041  0.00  0.00    +0.000 C 
BRANCH  21  22
ATOM     22  C   UNL     1       5.707   5.310  17.494  0.00  0.00    +0.000 A 
ATOM     23  C   UNL     1       5.907   6.541  16.845  0.00  0.00    +0.000 A 
ATOM     24  C   UNL     1       6.939   7.395  17.243  0.00  0.00    +0.000 A 
ATOM     25  C   UNL     1       7.768   7.024  18.294  0.00  0.00    +0.000 A 
ATOM     26  F   UNL     1       8.761   7.839  18.670  0.00  0.00    +0.000 F 
ATOM     27  C   UNL     1       7.580   5.820  18.958  0.00  0.00    +0.000 A 
ATOM     28  C   UNL     1       6.548   4.965  18.564  0.00  0.00    +0.000 A 
ENDBRANCH  21  22
ENDBRANCH  20  21
ENDBRANCH   1  16
TORSDOF 5
ENDMDL
MODEL 6
REMARK VINA RESULT:      -8.4      0.806      1.535
REMARK  Name = 
REMARK  6 active torsions:
REMARK  status: ('A' for Active; 'I' for Inactive)
REMARK    1  A    between atoms: C_1  and  C_2
REMARK    2  A    between atoms: C_4  and  C_5
REMARK    3  A    between atoms: C_8  and  S_9
REMARK    4  A    between atoms: S_9  and  N_12
REMARK    5  A    between atoms: C_16  and  C_17
REMARK    6  A    between atoms: C_17  and  C_18
REMARK                            x       y       z     vdW  Elec       q    Type
REMARK                         _______ _______ _______ _____ _____    ______ ____
ROOT
ATOM      1  S   UNL     1       2.857   4.986  19.990  0.00  0.00    +0.000 S 
ATOM      2  O   UNL     1       4.273   5.146  20.238  0.00  0.00    +0.000 OA
ATOM      3  O   UNL     1       2.034   4.166  20.855  0.00  0.00    +0.000 OA
ENDROOT
BRANCH   1   7
ATOM      4  C   UNL     1       1.154   9.256  19.837  0.00  0.00    +0.000 A 
ATOM      5  C   UNL     1       1.011   8.465  20.990  0.00  0.00    +0.000 A 
ATOM      6  C   UNL     1       1.507   7.155  21.039  0.00  0.00    +0.000 A 
ATOM      7  C   UNL     1       2.155   6.620  19.924  0.00  0.00    +0.000 A 
ATOM      8  C   UNL     1       2.347   7.403  18.784  0.00  0.00    +0.000 A 
ATOM      9  C   UNL     1       1.848   8.715  18.742  0.00  0.00    +0.000 A 
BRANCH   4  13
ATOM     10  C   UNL     1      -0.255  13.761  18.350  0.00  0.00    +0.000 C 
ATOM     11  C   UNL     1      -0.001  12.517  19.106  0.00  0.00    +0.000 A 
ATOM     12  N   UNL     1       0.565  11.400  18.697  0.00  0.00    +0.000 NA
ATOM     13  C   UNL     1       0.564  10.591  19.813  0.00  0.00    +0.000 A 
ATOM     14  C   UNL     1      -0.014  11.271  20.860  0.00  0.00    +0.000 A 
ATOM     15  O   UNL     1      -0.383  12.507  20.418  0.00  0.00    +0.000 OA
ENDBRANCH   4  13
ENDBRANCH   1   7
BRANCH   1  16
ATOM     16  N   UNL     1       2.685   4.370  18.386  0.00  0.00    +0.000 NA
ATOM     17  C   UNL     1       1.376   3.722  18.087  0.00  0.00    +0.000 C 
ATOM     18  C   UNL     1       1.634   2.236  18.252  0.00  0.00    +0.000 C 
ATOM     19  C   UNL     1       3.027   2.058  17.688  0.00  0.00    +0.000 C 
ATOM     20  C   UNL     1       3.762   3.370  18.001  0.00  0.00    +0.000 C 
BRANCH  20  21
ATOM     21  C   UNL     1       4.544   3.897  16.779  0.00  0.00    +0.000 C 
BRANCH  21  22
ATOM     22  C   UNL     1       5.545   4.987  17.112  0.00  0.00    +0.000 A 
ATOM     23  C   UNL     1       5.314   6.316  16.715  0.00  0.00    +0.000 A 
ATOM     24  C   UNL     1       6.251   7.315  16.996  0.00  0.00    +0.000 A 
ATOM     25  C   UNL     1       7.416   6.988  17.678  0.00  0.00    +0.000 A 
ATOM     26  F   UNL     1       8.317   7.944  17.940  0.00  0.00    +0.000 F 
ATOM     27  C   UNL     1       7.658   5.686  18.091  0.00  0.00    +0.000 A 
ATOM     28  C   UNL     1       6.722   4.686  17.815  0.00  0.00    +0.000 A 
ENDBRANCH  21  22
ENDBRANCH  20  21
ENDBRANCH   1  16
TORSDOF 5
ENDMDL
MODEL 7
REMARK VINA RESULT:      -7.9      1.116      1.724
REMARK  Name = 
REMARK  6 active torsions:
REMARK  status: ('A' for Active; 'I' for Inactive)
REMARK    1  A    between atoms: C_1  and  C_2
REMARK    2  A    between atoms: C_4  and  C_5
REMARK    3  A    between atoms: C_8  and  S_9
REMARK    4  A    between atoms: S_9  and  N_12
REMARK    5  A    between atoms: C_16  and  C_17
REMARK    6  A    between atoms: C_17  and  C_18
REMARK                            x       y       z     vdW  Elec       q    Type
REMARK                         _______ _______ _______ _____ _____    ______ ____
ROOT
ATOM      1  S   UNL     1       2.085   4.534  20.075  0.00  0.00    +0.000 S 
ATOM      2  O   UNL     1       3.333   4.341  20.781  0.00  0.00    +0.000 OA
ATOM      3  O   UNL     1       0.869   3.883  20.515  0.00  0.00    +0.000 OA
ENDROOT
BRANCH   1   7
ATOM      4  C   UNL     1       1.453   9.088  19.927  0.00  0.00    +0.000 A 
ATOM      5  C   UNL     1       1.053   8.342  21.050  0.00  0.00    +0.000 A 
ATOM      6  C   UNL     1       1.222   6.951  21.095  0.00  0.00    +0.000 A 
ATOM      7  C   UNL     1       1.795   6.288  20.008  0.00  0.00    +0.000 A 
ATOM      8  C   UNL     1       2.240   7.015  18.902  0.00  0.00    +0.000 A 
ATOM      9  C   UNL     1       2.069   8.408  18.863  0.00  0.00    +0.000 A 
BRANCH   4  13
ATOM     10  C   UNL     1       0.725  13.770  21.351  0.00  0.00    +0.000 C 
ATOM     11  C   UNL     1       0.888  12.514  20.591  0.00  0.00    +0.000 A 
ATOM     12  N   UNL     1       1.219  11.317  21.030  0.00  0.00    +0.000 NA
ATOM     13  C   UNL     1       1.199  10.524  19.902  0.00  0.00    +0.000 A 
ATOM     14  C   UNL     1       0.852  11.296  18.817  0.00  0.00    +0.000 A 
ATOM     15  O   UNL     1       0.653  12.576  19.246  0.00  0.00    +0.000 OA
ENDBRANCH   4  13
ENDBRANCH   1   7
BRANCH   1  16
ATOM     16  N   UNL     1       2.349   4.070  18.433  0.00  0.00    +0.000 NA
ATOM     17  C   UNL     1       1.497   2.951  17.940  0.00  0.00    +0.000 C 
ATOM     18  C   UNL     1       2.374   1.717  18.060  0.00  0.00    +0.000 C 
ATOM     19  C   UNL     1       3.744   2.223  17.665  0.00  0.00    +0.000 C 
ATOM     20  C   UNL     1       3.788   3.686  18.134  0.00  0.00    +0.000 C 
BRANCH  20  21
ATOM     21  C   UNL     1       4.359   4.621  17.047  0.00  0.00    +0.000 C 
BRANCH  21  22
ATOM     22  C   UNL     1       5.535   5.459  17.512  0.00  0.00    +0.000 A 
ATOM     23  C   UNL     1       5.864   6.658  16.856  0.00  0.00    +0.000 A 
ATOM     24  C   UNL     1       6.966   7.414  17.266  0.00  0.00    +0.000 A 
ATOM     25  C   UNL     1       7.736   6.976  18.335  0.00  0.00    +0.000 A 
ATOM     26  F   UNL     1       8.797   7.696  18.722  0.00  0.00    +0.000 F 
ATOM     27  C   UNL     1       7.422   5.802  19.006  0.00  0.00    +0.000 A 
ATOM     28  C   UNL     1       6.320   5.046  18.601  0.00  0.00    +0.000 A 
ENDBRANCH  21  22
ENDBRANCH  20  21
ENDBRANCH   1  16
TORSDOF 5
ENDMDL
MODEL 8
REMARK VINA RESULT:      -7.9      1.070      1.470
REMARK  Name = 
REMARK  6 active torsions:
REMARK  status: ('A' for Active; 'I' for Inactive)
REMARK    1  A    between atoms: C_1  and  C_2
REMARK    2  A    between atoms: C_4  and  C_5
REMARK    3  A    between atoms: C_8  and  S_9
REMARK    4  A    between atoms: S_9  and  N_12
REMARK    5  A    between atoms: C_16  and  C_17
REMARK    6  A    between atoms: C_17  and  C_18
REMARK                            x       y       z     vdW  Elec       q    Type
REMARK                         _______ _______ _______ _____ _____    ______ ____
ROOT
ATOM      1  S   UNL     1       2.035   4.634  20.079  0.00  0.00    +0.000 S 
ATOM      2  O   UNL     1       3.302   4.494  20.762  0.00  0.00    +0.000 OA
ATOM      3  O   UNL     1       0.858   3.922  20.533  0.00  0.00    +0.000 OA
ENDROOT
BRANCH   1   7
ATOM      4  C   UNL     1       1.185   9.153  19.981  0.00  0.00    +0.000 A 
ATOM      5  C   UNL     1       0.857   8.384  21.110  0.00  0.00    +0.000 A 
ATOM      6  C   UNL     1       1.092   7.003  21.142  0.00  0.00    +0.000 A 
ATOM      7  C   UNL     1       1.661   6.373  20.033  0.00  0.00    +0.000 A 
ATOM      8  C   UNL     1       2.035   7.126  18.917  0.00  0.00    +0.000 A 
ATOM      9  C   UNL     1       1.798   8.509  18.893  0.00  0.00    +0.000 A 
BRANCH   4  13
ATOM     10  C   UNL     1      -0.140  13.677  18.476  0.00  0.00    +0.000 C 
ATOM     11  C   UNL     1       0.291  12.495  19.250  0.00  0.00    +0.000 A 
ATOM     12  N   UNL     1       0.400  11.242  18.858  0.00  0.00    +0.000 NA
ATOM     13  C   UNL     1       0.863  10.576  19.973  0.00  0.00    +0.000 A 
ATOM     14  C   UNL     1       1.011  11.476  21.004  0.00  0.00    +0.000 A 
ATOM     15  O   UNL     1       0.645  12.710  20.553  0.00  0.00    +0.000 OA
ENDBRANCH   4  13
ENDBRANCH   1   7
BRANCH   1  16
ATOM     16  N   UNL     1       2.292   4.197  18.429  0.00  0.00    +0.000 NA
ATOM     17  C   UNL     1       1.449   3.075  17.925  0.00  0.00    +0.000 C 
ATOM     18  C   UNL     1       2.339   1.849  18.021  0.00  0.00    +0.000 C 
ATOM     19  C   UNL     1       3.701   2.376  17.625  0.00  0.00    +0.000 C 
ATOM     20  C   UNL     1       3.733   3.831  18.115  0.00  0.00    +0.000 C 
BRANCH  20  21
ATOM     21  C   UNL     1       4.287   4.788  17.038  0.00  0.00    +0.000 C 
BRANCH  21  22
ATOM     22  C   UNL     1       5.515   5.564  17.477  0.00  0.00    +0.000 A 
ATOM     23  C   UNL     1       6.307   5.106  18.544  0.00  0.00    +0.000 A 
ATOM     24  C   UNL     1       7.421   5.836  18.968  0.00  0.00    +0.000 A 
ATOM     25  C   UNL     1       7.748   7.021  18.321  0.00  0.00    +0.000 A 
ATOM     26  F   UNL     1       8.810   7.725  18.732  0.00  0.00    +0.000 F 
ATOM     27  C   UNL     1       6.988   7.485  17.256  0.00  0.00    +0.000 A 
ATOM     28  C   UNL     1       5.876   6.755  16.829  0.00  0.00    +0.000 A 
ENDBRANCH  21  22
ENDBRANCH  20  21
ENDBRANCH   1  16
TORSDOF 5
ENDMDL
MODEL 9
REMARK VINA RESULT:      -7.8      2.952      4.610
REMARK  Name = 
REMARK  6 active torsions:
REMARK  status: ('A' for Active; 'I' for Inactive)
REMARK    1  A    between atoms: C_1  and  C_2
REMARK    2  A    between atoms: C_4  and  C_5
REMARK    3  A    between atoms: C_8  and  S_9
REMARK    4  A    between atoms: S_9  and  N_12
REMARK    5  A    between atoms: C_16  and  C_17
REMARK    6  A    between atoms: C_17  and  C_18
REMARK                            x       y       z     vdW  Elec       q    Type
REMARK                         _______ _______ _______ _____ _____    ______ ____
ROOT
ATOM      1  S   UNL     1       6.097   5.393  18.500  0.00  0.00    +0.000 S 
ATOM      2  O   UNL     1       7.172   6.238  18.027  0.00  0.00    +0.000 OA
ATOM      3  O   UNL     1       6.191   4.710  19.774  0.00  0.00    +0.000 OA
ENDROOT
BRANCH   1   7
ATOM      4  C   UNL     1       2.339   8.044  18.537  0.00  0.00    +0.000 A 
ATOM      5  C   UNL     1       2.520   7.039  19.503  0.00  0.00    +0.000 A 
ATOM      6  C   UNL     1       3.652   6.212  19.488  0.00  0.00    +0.000 A 
ATOM      7  C   UNL     1       4.619   6.383  18.496  0.00  0.00    +0.000 A 
ATOM      8  C   UNL     1       4.481   7.404  17.553  0.00  0.00    +0.000 A 
ATOM      9  C   UNL     1       3.346   8.230  17.575  0.00  0.00    +0.000 A 
BRANCH   4  13
ATOM     10  C   UNL     1      -1.826  10.322  17.141  0.00  0.00    +0.000 C 
ATOM     11  C   UNL     1      -0.662   9.794  17.883  0.00  0.00    +0.000 A 
ATOM     12  N   UNL     1       0.276   8.965  17.472  0.00  0.00    +0.000 NA
ATOM     13  C   UNL     1       1.115   8.837  18.559  0.00  0.00    +0.000 A 
ATOM     14  C   UNL     1       0.632   9.607  19.592  0.00  0.00    +0.000 A 
ATOM     15  O   UNL     1      -0.509  10.225  19.171  0.00  0.00    +0.000 OA
ENDBRANCH   4  13
ENDBRANCH   1   7
BRANCH   1  16
ATOM     16  N   UNL     1       5.823   4.189  17.293  0.00  0.00    +0.000 NA
ATOM     17  C   UNL     1       6.820   4.155  16.186  0.00  0.00    +0.000 C 
ATOM     18  C   UNL     1       6.169   4.932  15.056  0.00  0.00    +0.000 C 
ATOM     19  C   UNL     1       4.714   4.528  15.148  0.00  0.00    +0.000 C 
ATOM     20  C   UNL     1       4.454   4.283  16.642  0.00  0.00    +0.000 C 
BRANCH  20  21
ATOM     21  C   UNL     1       3.675   2.972  16.883  0.00  0.00    +0.000 C 
BRANCH  21  22
ATOM     22  C   UNL     1       2.933   2.931  18.205  0.00  0.00    +0.000 A 
ATOM     23  C   UNL     1       1.589   3.335  18.284  0.00  0.00    +0.000 A 
ATOM     24  C   UNL     1       0.914   3.326  19.509  0.00  0.00    +0.000 A 
ATOM     25  C   UNL     1       1.579   2.907  20.653  0.00  0.00    +0.000 A 
ATOM     26  F   UNL     1       0.936   2.906  21.827  0.00  0.00    +0.000 F 
ATOM     27  C   UNL     1       2.902   2.490  20.596  0.00  0.00    +0.000 A 
ATOM     28  C   UNL     1       3.578   2.496  19.374  0.00  0.00    +0.000 A 
ENDBRANCH  21  22
ENDBRANCH  20  21
ENDBRANCH   1  16
TORSDOF 5
ENDMDL
