MODEL 1
REMARK VINA RESULT:      -9.5      0.000      0.000
REMARK  Name = 
REMARK  8 active torsions:
REMARK  status: ('A' for Active; 'I' for Inactive)
REMARK    1  A    between atoms: C_1  and  N_2
REMARK    2  A    between atoms: N_2  and  C_3
REMARK    3  A    between atoms: C_7  and  C_8
REMARK    4  A    between atoms: N_14  and  C_15
REMARK    5  A    between atoms: C_19  and  C_20
REMARK    6  A    between atoms: C_20  and  C_21
REMARK    7  A    between atoms: N_22  and  C_23
REMARK    8  A    between atoms: N_27  and  C_28
REMARK                            x       y       z     vdW  Elec       q    Type
REMARK                         _______ _______ _______ _____ _____    ______ ____
ROOT
ATOM      1  C   UNL     1       0.250  11.445  19.268  0.00  0.00    +0.000 A 
ATOM      2  C   UNL     1       1.015  10.564  18.502  0.00  0.00    +0.000 A 
ATOM      3  C   UNL     1       1.364   9.344  19.052  0.00  0.00    +0.000 A 
ATOM      4  C   UNL     1       1.026   8.966  20.344  0.00  0.00    +0.000 A 
ATOM      5  C   UNL     1       0.305   9.831  21.155  0.00  0.00    +0.000 A 
ATOM      6  C   UNL     1      -0.072  11.073  20.594  0.00  0.00    +0.000 A 
ATOM      7  C   UNL     1       1.580   7.608  20.620  0.00  0.00    +0.000 C 
ATOM      8  N   UNL     1       2.268   7.259  19.384  0.00  0.00    +0.000 N 
ATOM      9  C   UNL     1       2.148   8.273  18.433  0.00  0.00    +0.000 C 
ATOM     10  O   UNL     1       2.571   8.364  17.295  0.00  0.00    +0.000 OA
ENDROOT
BRANCH   8  11
ATOM     11  C   UNL     1       3.009   6.056  19.244  0.00  0.00    +0.000 A 
ATOM     12  C   UNL     1       2.699   4.908  19.984  0.00  0.00    +0.000 A 
ATOM     13  C   UNL     1       3.406   3.717  19.801  0.00  0.00    +0.000 A 
ATOM     14  C   UNL     1       4.437   3.650  18.868  0.00  0.00    +0.000 A 
ATOM     15  C   UNL     1       4.784   4.785  18.131  0.00  0.00    +0.000 A 
ATOM     16  C   UNL     1       4.072   5.980  18.332  0.00  0.00    +0.000 A 
BRANCH  15  17
ATOM     17  C   UNL     1       5.911   4.778  17.136  0.00  0.00    +0.000 C 
ATOM     18  C   UNL     1       7.318   4.772  17.715  0.00  0.00    +0.000 C 
ATOM     19  N   UNL     1       5.601   4.745  15.868  0.00  0.00    +0.000 NA
BRANCH  19  20
ATOM     20  C   UNL     1       6.575   4.894  14.936  0.00  0.00    +0.000 A 
ATOM     21  N   UNL     1       7.679   5.619  14.959  0.00  0.00    +0.000 NA
ATOM     22  N   UNL     1       8.318   5.517  13.749  0.00  0.00    +0.000 NA
ATOM     23  C   UNL     1       7.568   4.771  12.978  0.00  0.00    +0.000 A 
ATOM     24  N   UNL     1       6.466   4.368  13.669  0.00  0.00    +0.000 N 
ATOM     25  C   UNL     1       5.401   3.572  13.128  0.00  0.00    +0.000 C 
ENDBRANCH  19  20
ENDBRANCH  15  17
ENDBRANCH   8  11
BRANCH   5  26
ATOM     26  C   UNL     1      -0.058   9.507  22.579  0.00  0.00    +0.000 C 
ATOM     27  F   UNL     1      -0.753  10.499  23.203  0.00  0.00    +0.000 F 
ATOM     28  F   UNL     1      -0.833   8.394  22.678  0.00  0.00    +0.000 F 
ATOM     29  F   UNL     1       1.035   9.278  23.356  0.00  0.00    +0.000 F 
ENDBRANCH   5  26
BRANCH   1  31
ATOM     30  C   UNL     1       0.945  13.709  18.585  0.00  0.00    +0.000 C 
ATOM     31  N   UNL     1      -0.097  12.727  18.836  0.00  0.00    +0.000 N 
ATOM     32  H   UNL     1      -0.828  12.722  18.129  0.00  0.00    +0.000 HD
ENDBRANCH   1  31
TORSDOF 5
ENDMDL
MODEL 2
REMARK VINA RESULT:      -9.0      3.156      8.694
REMARK  Name = 
REMARK  8 active torsions:
REMARK  status: ('A' for Active; 'I' for Inactive)
REMARK    1  A    between atoms: C_1  and  N_2
REMARK    2  A    between atoms: N_2  and  C_3
REMARK    3  A    between atoms: C_7  and  C_8
REMARK    4  A    between atoms: N_14  and  C_15
REMARK    5  A    between atoms: C_19  and  C_20
REMARK    6  A    between atoms: C_20  and  C_21
REMARK    7  A    between atoms: N_22  and  C_23
REMARK    8  A    between atoms: N_27  and  C_28
REMARK                            x       y       z     vdW  Elec       q    Type
REMARK                         _______ _______ _______ _____ _____    ______ ____
ROOT
ATOM      1  C   UNL     1       4.241   4.236  17.630  0.00  0.00    +0.000 A 
ATOM      2  C   UNL     1       3.847   5.574  17.571  0.00  0.00    +0.000 A 
ATOM      3  C   UNL     1       3.103   6.089  18.617  0.00  0.00    +0.000 A 
ATOM      4  C   UNL     1       2.693   5.332  19.705  0.00  0.00    +0.000 A 
ATOM      5  C   UNL     1       3.024   3.986  19.780  0.00  0.00    +0.000 A 
ATOM      6  C   UNL     1       3.800   3.456  18.725  0.00  0.00    +0.000 A 
ATOM      7  C   UNL     1       1.891   6.190  20.627  0.00  0.00    +0.000 C 
ATOM      8  N   UNL     1       1.873   7.486  19.962  0.00  0.00    +0.000 N 
ATOM      9  C   UNL     1       2.594   7.454  18.767  0.00  0.00    +0.000 C 
ATOM     10  O   UNL     1       2.814   8.315  17.936  0.00  0.00    +0.000 OA
ENDROOT
BRANCH   8  11
ATOM     11  C   UNL     1       1.141   8.590  20.475  0.00  0.00    +0.000 A 
ATOM     12  C   UNL     1       1.308   9.037  21.791  0.00  0.00    +0.000 A 
ATOM     13  C   UNL     1       0.617  10.154  22.268  0.00  0.00    +0.000 A 
ATOM     14  C   UNL     1      -0.252  10.851  21.432  0.00  0.00    +0.000 A 
ATOM     15  C   UNL     1      -0.455  10.414  20.121  0.00  0.00    +0.000 A 
ATOM     16  C   UNL     1       0.237   9.283  19.656  0.00  0.00    +0.000 A 
BRANCH  15  17
ATOM     17  C   UNL     1      -1.409  11.107  19.186  0.00  0.00    +0.000 C 
ATOM     18  C   UNL     1      -1.110  12.569  18.887  0.00  0.00    +0.000 C 
ATOM     19  N   UNL     1      -2.387  10.403  18.685  0.00  0.00    +0.000 NA
BRANCH  19  20
ATOM     20  C   UNL     1      -3.357  11.021  17.966  0.00  0.00    +0.000 A 
ATOM     21  N   UNL     1      -4.427  11.684  18.364  0.00  0.00    +0.000 NA
ATOM     22  N   UNL     1      -5.163  12.063  17.269  0.00  0.00    +0.000 NA
ATOM     23  C   UNL     1      -4.560  11.579  16.213  0.00  0.00    +0.000 A 
ATOM     24  N   UNL     1      -3.435  10.913  16.596  0.00  0.00    +0.000 N 
ATOM     25  C   UNL     1      -2.548  10.217  15.708  0.00  0.00    +0.000 C 
ENDBRANCH  19  20
ENDBRANCH  15  17
ENDBRANCH   8  11
BRANCH   5  26
ATOM     26  C   UNL     1       2.576   3.095  20.907  0.00  0.00    +0.000 C 
ATOM     27  F   UNL     1       2.442   3.747  22.096  0.00  0.00    +0.000 F 
ATOM     28  F   UNL     1       1.370   2.516  20.665  0.00  0.00    +0.000 F 
ATOM     29  F   UNL     1       3.445   2.075  21.142  0.00  0.00    +0.000 F 
ENDBRANCH   5  26
BRANCH   1  31
ATOM     30  C   UNL     1       5.672   4.392  15.629  0.00  0.00    +0.000 C 
ATOM     31  N   UNL     1       4.933   3.599  16.597  0.00  0.00    +0.000 N 
ATOM     32  H   UNL     1       5.432   2.769  16.908  0.00  0.00    +0.000 HD
ENDBRANCH   1  31
TORSDOF 5
ENDMDL
MODEL 3
REMARK VINA RESULT:      -8.8      0.995      1.345
REMARK  Name = 
REMARK  8 active torsions:
REMARK  status: ('A' for Active; 'I' for Inactive)
REMARK    1  A    between atoms: C_1  and  N_2
REMARK    2  A    between atoms: N_2  and  C_3
REMARK    3  A    between atoms: C_7  and  C_8
REMARK    4  A    between atoms: N_14  and  C_15
REMARK    5  A    between atoms: C_19  and  C_20
REMARK    6  A    between atoms: C_20  and  C_21
REMARK    7  A    between atoms: N_22  and  C_23
REMARK    8  A    between atoms: N_27  and  C_28
REMARK                            x       y       z     vdW  Elec       q    Type
REMARK                         _______ _______ _______ _____ _____    ______ ____
ROOT
ATOM      1  C   UNL     1       0.055  12.208  20.090  0.00  0.00    +0.000 A 
ATOM      2  C   UNL     1       0.761  11.482  19.129  0.00  0.00    +0.000 A 
ATOM      3  C   UNL     1       1.057  10.157  19.389  0.00  0.00    +0.000 A 
ATOM      4  C   UNL     1       0.723   9.520  20.576  0.00  0.00    +0.000 A 
ATOM      5  C   UNL     1       0.060  10.218  21.576  0.00  0.00    +0.000 A 
ATOM      6  C   UNL     1      -0.262  11.569  21.312  0.00  0.00    +0.000 A 
ATOM      7  C   UNL     1       1.212   8.110  20.533  0.00  0.00    +0.000 C 
ATOM      8  N   UNL     1       1.859   8.010  19.232  0.00  0.00    +0.000 N 
ATOM      9  C   UNL     1       1.774   9.213  18.529  0.00  0.00    +0.000 C 
ATOM     10  O   UNL     1       2.182   9.532  17.427  0.00  0.00    +0.000 OA
ENDROOT
BRANCH   8  11
ATOM     11  C   UNL     1       2.536   6.835  18.812  0.00  0.00    +0.000 A 
ATOM     12  C   UNL     1       2.281   5.588  19.397  0.00  0.00    +0.000 A 
ATOM     13  C   UNL     1       2.919   4.432  18.941  0.00  0.00    +0.000 A 
ATOM     14  C   UNL     1       3.823   4.500  17.884  0.00  0.00    +0.000 A 
ATOM     15  C   UNL     1       4.113   5.733  17.296  0.00  0.00    +0.000 A 
ATOM     16  C   UNL     1       3.474   6.890  17.770  0.00  0.00    +0.000 A 
BRANCH  15  17
ATOM     17  C   UNL     1       5.107   5.869  16.174  0.00  0.00    +0.000 C 
ATOM     18  C   UNL     1       5.114   7.202  15.442  0.00  0.00    +0.000 C 
ATOM     19  N   UNL     1       5.899   4.858  15.940  0.00  0.00    +0.000 NA
BRANCH  19  20
ATOM     20  C   UNL     1       6.700   4.874  14.846  0.00  0.00    +0.000 A 
ATOM     21  N   UNL     1       7.815   5.541  14.610  0.00  0.00    +0.000 NA
ATOM     22  N   UNL     1       8.229   5.299  13.324  0.00  0.00    +0.000 NA
ATOM     23  C   UNL     1       7.330   4.527  12.768  0.00  0.00    +0.000 A 
ATOM     24  N   UNL     1       6.352   4.243  13.673  0.00  0.00    +0.000 N 
ATOM     25  C   UNL     1       5.182   3.458  13.401  0.00  0.00    +0.000 C 
ENDBRANCH  19  20
ENDBRANCH  15  17
ENDBRANCH   8  11
BRANCH   5  26
ATOM     26  C   UNL     1      -0.294   9.606  22.905  0.00  0.00    +0.000 C 
ATOM     27  F   UNL     1      -0.937   8.410  22.798  0.00  0.00    +0.000 F 
ATOM     28  F   UNL     1       0.801   9.370  23.677  0.00  0.00    +0.000 F 
ATOM     29  F   UNL     1      -1.114  10.402  23.644  0.00  0.00    +0.000 F 
ENDBRANCH   5  26
BRANCH   1  31
ATOM     30  C   UNL     1      -0.107  14.209  18.659  0.00  0.00    +0.000 C 
ATOM     31  N   UNL     1      -0.234  13.568  19.958  0.00  0.00    +0.000 N 
ATOM     32  H   UNL     1      -1.068  13.847  20.468  0.00  0.00    +0.000 HD
ENDBRANCH   1  31
TORSDOF 5
ENDMDL
MODEL 4
REMARK VINA RESULT:      -8.8      3.304      8.757
REMARK  Name = 
REMARK  8 active torsions:
REMARK  status: ('A' for Active; 'I' for Inactive)
REMARK    1  A    between atoms: C_1  and  N_2
REMARK    2  A    between atoms: N_2  and  C_3
REMARK    3  A    between atoms: C_7  and  C_8
REMARK    4  A    between atoms: N_14  and  C_15
REMARK    5  A    between atoms: C_19  and  C_20
REMARK    6  A    between atoms: C_20  and  C_21
REMARK    7  A    between atoms: N_22  and  C_23
REMARK    8  A    between atoms: N_27  and  C_28
REMARK                            x       y       z     vdW  Elec       q    Type
REMARK                         _______ _______ _______ _____ _____    ______ ____
ROOT
ATOM      1  C   UNL     1       4.829   4.452  16.734  0.00  0.00    +0.000 A 
ATOM      2  C   UNL     1       4.431   5.780  16.891  0.00  0.00    +0.000 A 
ATOM      3  C   UNL     1       3.598   6.099  17.947  0.00  0.00    +0.000 A 
ATOM      4  C   UNL     1       3.103   5.157  18.838  0.00  0.00    +0.000 A 
ATOM      5  C   UNL     1       3.436   3.818  18.690  0.00  0.00    +0.000 A 
ATOM      6  C   UNL     1       4.303   3.486  17.623  0.00  0.00    +0.000 A 
ATOM      7  C   UNL     1       2.220   5.837  19.832  0.00  0.00    +0.000 C 
ATOM      8  N   UNL     1       2.249   7.234  19.420  0.00  0.00    +0.000 N 
ATOM      9  C   UNL     1       3.069   7.417  18.304  0.00  0.00    +0.000 C 
ATOM     10  O   UNL     1       3.352   8.416  17.669  0.00  0.00    +0.000 OA
ENDROOT
BRANCH   8  11
ATOM     11  C   UNL     1       1.469   8.230  20.064  0.00  0.00    +0.000 A 
ATOM     12  C   UNL     1       1.601   8.499  21.433  0.00  0.00    +0.000 A 
ATOM     13  C   UNL     1       0.862   9.514  22.044  0.00  0.00    +0.000 A 
ATOM     14  C   UNL     1      -0.023  10.286  21.295  0.00  0.00    +0.000 A 
ATOM     15  C   UNL     1      -0.192  10.025  19.933  0.00  0.00    +0.000 A 
ATOM     16  C   UNL     1       0.549   8.995  19.332  0.00  0.00    +0.000 A 
BRANCH  15  17
ATOM     17  C   UNL     1      -1.160  10.805  19.085  0.00  0.00    +0.000 C 
ATOM     18  C   UNL     1      -0.755  12.231  18.746  0.00  0.00    +0.000 C 
ATOM     19  N   UNL     1      -2.242  10.195  18.683  0.00  0.00    +0.000 NA
BRANCH  19  20
ATOM     20  C   UNL     1      -3.212  10.901  18.051  0.00  0.00    +0.000 A 
ATOM     21  N   UNL     1      -4.193  11.637  18.542  0.00  0.00    +0.000 NA
ATOM     22  N   UNL     1      -4.979  12.094  17.513  0.00  0.00    +0.000 NA
ATOM     23  C   UNL     1      -4.500  11.586  16.407  0.00  0.00    +0.000 A 
ATOM     24  N   UNL     1      -3.405  10.827  16.691  0.00  0.00    +0.000 N 
ATOM     25  C   UNL     1      -2.647  10.082  15.726  0.00  0.00    +0.000 C 
ENDBRANCH  19  20
ENDBRANCH  15  17
ENDBRANCH   8  11
BRANCH   5  26
ATOM     26  C   UNL     1       2.901   2.737  19.590  0.00  0.00    +0.000 C 
ATOM     27  F   UNL     1       3.405   1.502  19.315  0.00  0.00    +0.000 F 
ATOM     28  F   UNL     1       3.180   2.967  20.901  0.00  0.00    +0.000 F 
ATOM     29  F   UNL     1       1.549   2.612  19.507  0.00  0.00    +0.000 F 
ENDBRANCH   5  26
BRANCH   1  31
ATOM     30  C   UNL     1       6.123   4.973  14.701  0.00  0.00    +0.000 C 
ATOM     31  N   UNL     1       5.610   4.011  15.663  0.00  0.00    +0.000 N 
ATOM     32  H   UNL     1       6.290   3.305  15.934  0.00  0.00    +0.000 HD
ENDBRANCH   1  31
TORSDOF 5
ENDMDL
MODEL 5
REMARK VINA RESULT:      -8.7      3.178      8.899
REMARK  Name = 
REMARK  8 active torsions:
REMARK  status: ('A' for Active; 'I' for Inactive)
REMARK    1  A    between atoms: C_1  and  N_2
REMARK    2  A    between atoms: N_2  and  C_3
REMARK    3  A    between atoms: C_7  and  C_8
REMARK    4  A    between atoms: N_14  and  C_15
REMARK    5  A    between atoms: C_19  and  C_20
REMARK    6  A    between atoms: C_20  and  C_21
REMARK    7  A    between atoms: N_22  and  C_23
REMARK    8  A    between atoms: N_27  and  C_28
REMARK                            x       y       z     vdW  Elec       q    Type
REMARK                         _______ _______ _______ _____ _____    ______ ____
ROOT
ATOM      1  C   UNL     1       4.326   4.113  17.913  0.00  0.00    +0.000 A 
ATOM      2  C   UNL     1       3.934   5.443  17.759  0.00  0.00    +0.000 A 
ATOM      3  C   UNL     1       3.141   6.015  18.736  0.00  0.00    +0.000 A 
ATOM      4  C   UNL     1       2.681   5.321  19.846  0.00  0.00    +0.000 A 
ATOM      5  C   UNL     1       3.009   3.983  20.014  0.00  0.00    +0.000 A 
ATOM      6  C   UNL     1       3.834   3.395  19.029  0.00  0.00    +0.000 A 
ATOM      7  C   UNL     1       1.836   6.228  20.678  0.00  0.00    +0.000 C 
ATOM      8  N   UNL     1       1.849   7.484  19.940  0.00  0.00    +0.000 N 
ATOM      9  C   UNL     1       2.625   7.385  18.784  0.00  0.00    +0.000 C 
ATOM     10  O   UNL     1       2.883   8.198  17.916  0.00  0.00    +0.000 OA
ENDROOT
BRANCH   8  11
ATOM     11  C   UNL     1       1.093   8.612  20.353  0.00  0.00    +0.000 A 
ATOM     12  C   UNL     1       1.217   9.152  21.639  0.00  0.00    +0.000 A 
ATOM     13  C   UNL     1       0.504  10.292  22.017  0.00  0.00    +0.000 A 
ATOM     14  C   UNL     1      -0.348  10.919  21.110  0.00  0.00    +0.000 A 
ATOM     15  C   UNL     1      -0.508  10.390  19.827  0.00  0.00    +0.000 A 
ATOM     16  C   UNL     1       0.207   9.237  19.463  0.00  0.00    +0.000 A 
BRANCH  15  17
ATOM     17  C   UNL     1      -1.440  11.007  18.820  0.00  0.00    +0.000 C 
ATOM     18  C   UNL     1      -1.075  12.401  18.334  0.00  0.00    +0.000 C 
ATOM     19  N   UNL     1      -2.460  10.296  18.421  0.00  0.00    +0.000 NA
BRANCH  19  20
ATOM     20  C   UNL     1      -3.408  10.865  17.637  0.00  0.00    +0.000 A 
ATOM     21  N   UNL     1      -3.517  10.913  16.322  0.00  0.00    +0.000 NA
ATOM     22  N   UNL     1      -4.607  11.674  15.981  0.00  0.00    +0.000 NA
ATOM     23  C   UNL     1      -5.123  12.129  17.095  0.00  0.00    +0.000 A 
ATOM     24  N   UNL     1      -4.405  11.661  18.153  0.00  0.00    +0.000 N 
ATOM     25  C   UNL     1      -4.657  11.989  19.528  0.00  0.00    +0.000 C 
ENDBRANCH  19  20
ENDBRANCH  15  17
ENDBRANCH   8  11
BRANCH   5  26
ATOM     26  C   UNL     1       2.509   3.156  21.168  0.00  0.00    +0.000 C 
ATOM     27  F   UNL     1       3.347   2.138  21.511  0.00  0.00    +0.000 F 
ATOM     28  F   UNL     1       2.340   3.891  22.300  0.00  0.00    +0.000 F 
ATOM     29  F   UNL     1       1.306   2.575  20.910  0.00  0.00    +0.000 F 
ENDBRANCH   5  26
BRANCH   1  31
ATOM     30  C   UNL     1       6.081   4.120  16.181  0.00  0.00    +0.000 C 
ATOM     31  N   UNL     1       5.066   3.420  16.952  0.00  0.00    +0.000 N 
ATOM     32  H   UNL     1       5.360   2.499  17.268  0.00  0.00    +0.000 HD
ENDBRANCH   1  31
TORSDOF 5
ENDMDL
MODEL 6
REMARK VINA RESULT:      -8.6      1.451      2.379
REMARK  Name = 
REMARK  8 active torsions:
REMARK  status: ('A' for Active; 'I' for Inactive)
REMARK    1  A    between atoms: C_1  and  N_2
REMARK    2  A    between atoms: N_2  and  C_3
REMARK    3  A    between atoms: C_7  and  C_8
REMARK    4  A    between atoms: N_14  and  C_15
REMARK    5  A    between atoms: C_19  and  C_20
REMARK    6  A    between atoms: C_20  and  C_21
REMARK    7  A    between atoms: N_22  and  C_23
REMARK    8  A    between atoms: N_27  and  C_28
REMARK                            x       y       z     vdW  Elec       q    Type
REMARK                         _______ _______ _______ _____ _____    ______ ____
ROOT
ATOM      1  C   UNL     1      -0.284  13.179  19.114  0.00  0.00    +0.000 A 
ATOM      2  C   UNL     1       0.400  12.128  18.502  0.00  0.00    +0.000 A 
ATOM      3  C   UNL     1       0.560  10.947  19.204  0.00  0.00    +0.000 A 
ATOM      4  C   UNL     1       0.109  10.767  20.505  0.00  0.00    +0.000 A 
ATOM      5  C   UNL     1      -0.536  11.803  21.166  0.00  0.00    +0.000 A 
ATOM      6  C   UNL     1      -0.720  13.007  20.449  0.00  0.00    +0.000 A 
ATOM      7  C   UNL     1       0.469   9.393  20.964  0.00  0.00    +0.000 C 
ATOM      8  N   UNL     1       1.169   8.820  19.821  0.00  0.00    +0.000 N 
ATOM      9  C   UNL     1       1.230   9.724  18.759  0.00  0.00    +0.000 C 
ATOM     10  O   UNL     1       1.720   9.629  17.649  0.00  0.00    +0.000 OA
ENDROOT
BRANCH   8  11
ATOM     11  C   UNL     1       1.756   7.528  19.864  0.00  0.00    +0.000 A 
ATOM     12  C   UNL     1       1.543   6.657  20.940  0.00  0.00    +0.000 A 
ATOM     13  C   UNL     1       2.087   5.370  20.946  0.00  0.00    +0.000 A 
ATOM     14  C   UNL     1       2.852   4.927  19.869  0.00  0.00    +0.000 A 
ATOM     15  C   UNL     1       3.099   5.782  18.792  0.00  0.00    +0.000 A 
ATOM     16  C   UNL     1       2.555   7.077  18.803  0.00  0.00    +0.000 A 
BRANCH  15  17
ATOM     17  C   UNL     1       3.946   5.367  17.621  0.00  0.00    +0.000 C 
ATOM     18  C   UNL     1       3.674   3.982  17.054  0.00  0.00    +0.000 C 
ATOM     19  N   UNL     1       4.816   6.227  17.165  0.00  0.00    +0.000 NA
BRANCH  19  20
ATOM     20  C   UNL     1       5.705   5.843  16.217  0.00  0.00    +0.000 A 
ATOM     21  N   UNL     1       5.627   5.893  14.899  0.00  0.00    +0.000 NA
ATOM     22  N   UNL     1       6.743   5.311  14.353  0.00  0.00    +0.000 NA
ATOM     23  C   UNL     1       7.469   4.862  15.346  0.00  0.00    +0.000 A 
ATOM     24  N   UNL     1       6.859   5.160  16.526  0.00  0.00    +0.000 N 
ATOM     25  C   UNL     1       7.347   4.784  17.823  0.00  0.00    +0.000 C 
ENDBRANCH  19  20
ENDBRANCH  15  17
ENDBRANCH   8  11
BRANCH   5  26
ATOM     26  C   UNL     1      -1.011  11.694  22.590  0.00  0.00    +0.000 C 
ATOM     27  F   UNL     1      -0.846  12.841  23.307  0.00  0.00    +0.000 F 
ATOM     28  F   UNL     1      -2.334  11.391  22.676  0.00  0.00    +0.000 F 
ATOM     29  F   UNL     1      -0.355  10.726  23.286  0.00  0.00    +0.000 F 
ENDBRANCH   5  26
BRANCH   1  31
ATOM     30  C   UNL     1      -0.245  15.635  19.318  0.00  0.00    +0.000 C 
ATOM     31  N   UNL     1      -0.440  14.434  18.522  0.00  0.00    +0.000 N 
ATOM     32  H   UNL     1      -0.024  14.489  17.596  0.00  0.00    +0.000 HD
ENDBRANCH   1  31
TORSDOF 5
ENDMDL
MODEL 7
REMARK VINA RESULT:      -8.6      2.729      8.473
REMARK  Name = 
REMARK  8 active torsions:
REMARK  status: ('A' for Active; 'I' for Inactive)
REMARK    1  A    between atoms: C_1  and  N_2
REMARK    2  A    between atoms: N_2  and  C_3
REMARK    3  A    between atoms: C_7  and  C_8
REMARK    4  A    between atoms: N_14  and  C_15
REMARK    5  A    between atoms: C_19  and  C_20
REMARK    6  A    between atoms: C_20  and  C_21
REMARK    7  A    between atoms: N_22  and  C_23
REMARK    8  A    between atoms: N_27  and  C_28
REMARK                            x       y       z     vdW  Elec       q    Type
REMARK                         _______ _______ _______ _____ _____    ______ ____
ROOT
ATOM      1  C   UNL     1       4.108   4.189  17.901  0.00  0.00    +0.000 A 
ATOM      2  C   UNL     1       3.761   5.534  17.764  0.00  0.00    +0.000 A 
ATOM      3  C   UNL     1       3.004   6.125  18.759  0.00  0.00    +0.000 A 
ATOM      4  C   UNL     1       2.537   5.437  19.871  0.00  0.00    +0.000 A 
ATOM      5  C   UNL     1       2.822   4.087  20.023  0.00  0.00    +0.000 A 
ATOM      6  C   UNL     1       3.610   3.479  19.018  0.00  0.00    +0.000 A 
ATOM      7  C   UNL     1       1.738   6.365  20.724  0.00  0.00    +0.000 C 
ATOM      8  N   UNL     1       1.783   7.626  19.996  0.00  0.00    +0.000 N 
ATOM      9  C   UNL     1       2.537   7.511  18.826  0.00  0.00    +0.000 C 
ATOM     10  O   UNL     1       2.809   8.322  17.961  0.00  0.00    +0.000 OA
ENDROOT
BRANCH   8  11
ATOM     11  C   UNL     1       1.074   8.777  20.431  0.00  0.00    +0.000 A 
ATOM     12  C   UNL     1       0.191   8.732  21.517  0.00  0.00    +0.000 A 
ATOM     13  C   UNL     1      -0.464   9.882  21.965  0.00  0.00    +0.000 A 
ATOM     14  C   UNL     1      -0.243  11.105  21.335  0.00  0.00    +0.000 A 
ATOM     15  C   UNL     1       0.616  11.175  20.236  0.00  0.00    +0.000 A 
ATOM     16  C   UNL     1       1.260  10.010  19.788  0.00  0.00    +0.000 A 
BRANCH  15  17
ATOM     17  C   UNL     1       0.863  12.463  19.498  0.00  0.00    +0.000 C 
ATOM     18  C   UNL     1      -0.172  12.846  18.451  0.00  0.00    +0.000 C 
ATOM     19  N   UNL     1       1.916  13.160  19.830  0.00  0.00    +0.000 NA
BRANCH  19  20
ATOM     20  C   UNL     1       2.263  14.242  19.090  0.00  0.00    +0.000 A 
ATOM     21  N   UNL     1       3.038  14.337  18.024  0.00  0.00    +0.000 NA
ATOM     22  N   UNL     1       3.162  15.657  17.668  0.00  0.00    +0.000 NA
ATOM     23  C   UNL     1       2.504  16.360  18.553  0.00  0.00    +0.000 A 
ATOM     24  N   UNL     1       1.935  15.525  19.467  0.00  0.00    +0.000 N 
ATOM     25  C   UNL     1       1.174  15.947  20.607  0.00  0.00    +0.000 C 
ENDBRANCH  19  20
ENDBRANCH  15  17
ENDBRANCH   8  11
BRANCH   5  26
ATOM     26  C   UNL     1       2.312   3.268  21.178  0.00  0.00    +0.000 C 
ATOM     27  F   UNL     1       2.356   3.925  22.371  0.00  0.00    +0.000 F 
ATOM     28  F   UNL     1       1.017   2.886  21.014  0.00  0.00    +0.000 F 
ATOM     29  F   UNL     1       3.025   2.123  21.360  0.00  0.00    +0.000 F 
ENDBRANCH   5  26
BRANCH   1  31
ATOM     30  C   UNL     1       5.308   4.174  15.747  0.00  0.00    +0.000 C 
ATOM     31  N   UNL     1       4.808   3.479  16.922  0.00  0.00    +0.000 N 
ATOM     32  H   UNL     1       5.471   2.815  17.314  0.00  0.00    +0.000 HD
ENDBRANCH   1  31
TORSDOF 5
ENDMDL
MODEL 8
REMARK VINA RESULT:      -8.6      3.901      9.126
REMARK  Name = 
REMARK  8 active torsions:
REMARK  status: ('A' for Active; 'I' for Inactive)
REMARK    1  A    between atoms: C_1  and  N_2
REMARK    2  A    between atoms: N_2  and  C_3
REMARK    3  A    between atoms: C_7  and  C_8
REMARK    4  A    between atoms: N_14  and  C_15
REMARK    5  A    between atoms: C_19  and  C_20
REMARK    6  A    between atoms: C_20  and  C_21
REMARK    7  A    between atoms: N_22  and  C_23
REMARK    8  A    between atoms: N_27  and  C_28
REMARK                            x       y       z     vdW  Elec       q    Type
REMARK                         _______ _______ _______ _____ _____    ______ ____
ROOT
ATOM      1  C   UNL     1       3.901   3.314  17.909  0.00  0.00    +0.000 A 
ATOM      2  C   UNL     1       2.997   3.808  18.851  0.00  0.00    +0.000 A 
ATOM      3  C   UNL     1       2.770   5.171  18.896  0.00  0.00    +0.000 A 
ATOM      4  C   UNL     1       3.425   6.080  18.078  0.00  0.00    +0.000 A 
ATOM      5  C   UNL     1       4.365   5.635  17.158  0.00  0.00    +0.000 A 
ATOM      6  C   UNL     1       4.590   4.241  17.093  0.00  0.00    +0.000 A 
ATOM      7  C   UNL     1       2.962   7.461  18.407  0.00  0.00    +0.000 C 
ATOM      8  N   UNL     1       2.004   7.255  19.484  0.00  0.00    +0.000 N 
ATOM      9  C   UNL     1       1.867   5.900  19.790  0.00  0.00    +0.000 C 
ATOM     10  O   UNL     1       1.178   5.326  20.612  0.00  0.00    +0.000 OA
ENDROOT
BRANCH   8  11
ATOM     11  C   UNL     1       1.372   8.337  20.152  0.00  0.00    +0.000 A 
ATOM     12  C   UNL     1       1.698   8.682  21.470  0.00  0.00    +0.000 A 
ATOM     13  C   UNL     1       1.103   9.779  22.098  0.00  0.00    +0.000 A 
ATOM     14  C   UNL     1       0.171  10.558  21.415  0.00  0.00    +0.000 A 
ATOM     15  C   UNL     1      -0.189  10.224  20.107  0.00  0.00    +0.000 A 
ATOM     16  C   UNL     1       0.408   9.113  19.490  0.00  0.00    +0.000 A 
BRANCH  15  17
ATOM     17  C   UNL     1      -1.214  11.010  19.337  0.00  0.00    +0.000 C 
ATOM     18  C   UNL     1      -1.101  12.525  19.421  0.00  0.00    +0.000 C 
ATOM     19  N   UNL     1      -2.091  10.342  18.637  0.00  0.00    +0.000 NA
BRANCH  19  20
ATOM     20  C   UNL     1      -3.125  10.999  18.055  0.00  0.00    +0.000 A 
ATOM     21  N   UNL     1      -4.118  11.683  18.595  0.00  0.00    +0.000 NA
ATOM     22  N   UNL     1      -4.973  12.102  17.607  0.00  0.00    +0.000 NA
ATOM     23  C   UNL     1      -4.522  11.623  16.476  0.00  0.00    +0.000 A 
ATOM     24  N   UNL     1      -3.378  10.919  16.705  0.00  0.00    +0.000 N 
ATOM     25  C   UNL     1      -2.629  10.217  15.702  0.00  0.00    +0.000 C 
ENDBRANCH  19  20
ENDBRANCH  15  17
ENDBRANCH   8  11
BRANCH   5  26
ATOM     26  C   UNL     1       5.145   6.566  16.270  0.00  0.00    +0.000 C 
ATOM     27  F   UNL     1       5.980   5.922  15.407  0.00  0.00    +0.000 F 
ATOM     28  F   UNL     1       4.341   7.343  15.496  0.00  0.00    +0.000 F 
ATOM     29  F   UNL     1       5.932   7.422  16.976  0.00  0.00    +0.000 F 
ENDBRANCH   5  26
BRANCH   1  31
ATOM     30  C   UNL     1       3.733   1.022  18.801  0.00  0.00    +0.000 C 
ATOM     31  N   UNL     1       4.255   1.965  17.826  0.00  0.00    +0.000 N 
ATOM     32  H   UNL     1       4.244   1.611  16.873  0.00  0.00    +0.000 HD
ENDBRANCH   1  31
TORSDOF 5
ENDMDL
MODEL 9
REMARK VINA RESULT:      -8.5      2.765      8.740
REMARK  Name = 
REMARK  8 active torsions:
REMARK  status: ('A' for Active; 'I' for Inactive)
REMARK    1  A    between atoms: C_1  and  N_2
REMARK    2  A    between atoms: N_2  and  C_3
REMARK    3  A    between atoms: C_7  and  C_8
REMARK    4  A    between atoms: N_14  and  C_15
REMARK    5  A    between atoms: C_19  and  C_20
REMARK    6  A    between atoms: C_20  and  C_21
REMARK    7  A    between atoms: N_22  and  C_23
REMARK    8  A    between atoms: N_27  and  C_28
REMARK                            x       y       z     vdW  Elec       q    Type
REMARK                         _______ _______ _______ _____ _____    ______ ____
ROOT
ATOM      1  C   UNL     1       3.722   4.643  17.731  0.00  0.00    +0.000 A 
ATOM      2  C   UNL     1       3.369   5.993  17.743  0.00  0.00    +0.000 A 
ATOM      3  C   UNL     1       2.669   6.482  18.831  0.00  0.00    +0.000 A 
ATOM      4  C   UNL     1       2.264   5.688  19.895  0.00  0.00    +0.000 A 
ATOM      5  C   UNL     1       2.555   4.331  19.901  0.00  0.00    +0.000 A 
ATOM      6  C   UNL     1       3.286   3.827  18.801  0.00  0.00    +0.000 A 
ATOM      7  C   UNL     1       1.513   6.527  20.876  0.00  0.00    +0.000 C 
ATOM      8  N   UNL     1       1.519   7.853  20.271  0.00  0.00    +0.000 N 
ATOM      9  C   UNL     1       2.207   7.853  19.056  0.00  0.00    +0.000 C 
ATOM     10  O   UNL     1       2.432   8.745  18.259  0.00  0.00    +0.000 OA
ENDROOT
BRANCH   8  11
ATOM     11  C   UNL     1       0.835   8.953  20.853  0.00  0.00    +0.000 A 
ATOM     12  C   UNL     1       0.262   8.874  22.128  0.00  0.00    +0.000 A 
ATOM     13  C   UNL     1      -0.366   9.979  22.708  0.00  0.00    +0.000 A 
ATOM     14  C   UNL     1      -0.427  11.190  22.023  0.00  0.00    +0.000 A 
ATOM     15  C   UNL     1       0.117  11.292  20.740  0.00  0.00    +0.000 A 
ATOM     16  C   UNL     1       0.736  10.171  20.163  0.00  0.00    +0.000 A 
BRANCH  15  17
ATOM     17  C   UNL     1       0.047  12.565  19.943  0.00  0.00    +0.000 C 
ATOM     18  C   UNL     1      -0.479  12.439  18.521  0.00  0.00    +0.000 C 
ATOM     19  N   UNL     1       0.408  13.672  20.533  0.00  0.00    +0.000 NA
BRANCH  19  20
ATOM     20  C   UNL     1       0.511  14.815  19.810  0.00  0.00    +0.000 A 
ATOM     21  N   UNL     1      -0.419  15.668  19.420  0.00  0.00    +0.000 NA
ATOM     22  N   UNL     1       0.153  16.638  18.635  0.00  0.00    +0.000 NA
ATOM     23  C   UNL     1       1.420  16.336  18.509  0.00  0.00    +0.000 A 
ATOM     24  N   UNL     1       1.689  15.202  19.214  0.00  0.00    +0.000 N 
ATOM     25  C   UNL     1       2.968  14.552  19.270  0.00  0.00    +0.000 C 
ENDBRANCH  19  20
ENDBRANCH  15  17
ENDBRANCH   8  11
BRANCH   5  26
ATOM     26  C   UNL     1       2.109   3.403  20.998  0.00  0.00    +0.000 C 
ATOM     27  F   UNL     1       2.419   3.850  22.248  0.00  0.00    +0.000 F 
ATOM     28  F   UNL     1       0.763   3.208  20.999  0.00  0.00    +0.000 F 
ATOM     29  F   UNL     1       2.671   2.169  20.897  0.00  0.00    +0.000 F 
ENDBRANCH   5  26
BRANCH   1  31
ATOM     30  C   UNL     1       5.663   4.526  16.215  0.00  0.00    +0.000 C 
ATOM     31  N   UNL     1       4.367   4.033  16.652  0.00  0.00    +0.000 N 
ATOM     32  H   UNL     1       4.305   3.018  16.677  0.00  0.00    +0.000 HD
ENDBRANCH   1  31
TORSDOF 5
ENDMDL
