MODEL 1
REMARK VINA RESULT:      -8.6      0.000      0.000
REMARK  Name = 
REMARK  6 active torsions:
REMARK  status: ('A' for Active; 'I' for Inactive)
REMARK    1  A    between atoms: C_2  and  C_3
REMARK    2  A    between atoms: C_3  and  N_4
REMARK    3  A    between atoms: C_5  and  C_7
REMARK    4  A    between atoms: N_16  and  C_17
REMARK    5  A    between atoms: C_20  and  S_21
REMARK    6  A    between atoms: S_21  and  N_24
REMARK                            x       y       z     vdW  Elec       q    Type
REMARK                         _______ _______ _______ _____ _____    ______ ____
ROOT
ATOM      1  O   UNL     1       7.477   8.748  17.281  0.00  0.00    +0.000 OA
ATOM      2  C   UNL     1       8.132   8.193  18.163  0.00  0.00    +0.000 C 
ATOM      3  N   UNL     1       8.968   8.815  19.083  0.00  0.00    +0.000 N 
ATOM      4  H   UNL     1       9.455   8.217  19.745  0.00  0.00    +0.000 HD
ENDROOT
BRANCH   3   5
ATOM      5  C   UNL     1       9.255  10.203  19.129  0.00  0.00    +0.000 A 
ATOM      6  C   UNL     1       9.499  10.952  17.974  0.00  0.00    +0.000 A 
ATOM      7  C   UNL     1       9.853  12.301  18.045  0.00  0.00    +0.000 A 
ATOM      8  C   UNL     1       9.930  12.940  19.280  0.00  0.00    +0.000 A 
ATOM      9  C   UNL     1       9.675  12.218  20.450  0.00  0.00    +0.000 A 
ATOM     10  C   UNL     1       9.321  10.856  20.371  0.00  0.00    +0.000 A 
BRANCH   8  11
ATOM     11  S   UNL     1      10.505  14.632  19.329  0.00  0.00    +0.000 S 
ATOM     12  O   UNL     1      10.625  15.008  20.722  0.00  0.00    +0.000 OA
ATOM     13  O   UNL     1      11.640  14.723  18.433  0.00  0.00    +0.000 OA
BRANCH  11  14
ATOM     14  N   UNL     1       9.245  15.529  18.651  0.00  0.00    +0.000 NA
ATOM     15  C   UNL     1       9.541  16.507  17.595  0.00  0.00    +0.000 C 
ATOM     16  C   UNL     1       9.282  17.846  18.255  0.00  0.00    +0.000 C 
ATOM     17  C   UNL     1       8.120  17.574  19.196  0.00  0.00    +0.000 C 
ATOM     18  C   UNL     1       8.194  16.085  19.529  0.00  0.00    +0.000 C 
ENDBRANCH  11  14
ENDBRANCH   8  11
ENDBRANCH   3   5
BRANCH   2  19
ATOM     19  C   UNL     1       8.003   6.682  18.334  0.00  0.00    +0.000 C 
BRANCH  19  20
ATOM     20  N   UNL     1       6.630   6.259  18.148  0.00  0.00    +0.000 N 
ATOM     21  C   UNL     1       6.059   5.350  19.002  0.00  0.00    +0.000 C 
ATOM     22  O   UNL     1       6.659   4.879  19.962  0.00  0.00    +0.000 OA
ATOM     23  H   UNL     1       6.111   6.658  17.375  0.00  0.00    +0.000 HD
BRANCH  21  24
ATOM     24  C   UNL     1       4.665   4.914  18.700  0.00  0.00    +0.000 A 
ATOM     25  C   UNL     1       3.730   5.765  18.073  0.00  0.00    +0.000 A 
ATOM     26  C   UNL     1       2.421   5.324  17.835  0.00  0.00    +0.000 A 
ATOM     27  C   UNL     1       2.088   4.046  18.233  0.00  0.00    +0.000 A 
ATOM     28  C   UNL     1       3.001   3.217  18.840  0.00  0.00    +0.000 A 
ATOM     29  C   UNL     1       4.296   3.617  19.088  0.00  0.00    +0.000 A 
ATOM     30  O   UNL     1       2.470   2.005  19.157  0.00  0.00    +0.000 OA
ATOM     31  C   UNL     1       1.107   2.183  18.720  0.00  0.00    +0.000 C 
ATOM     32  O   UNL     1       0.868   3.463  18.098  0.00  0.00    +0.000 OA
ENDBRANCH  21  24
ENDBRANCH  19  20
ENDBRANCH   2  19
TORSDOF 6
ENDMDL
MODEL 2
REMARK VINA RESULT:      -8.5      0.708      1.224
REMARK  Name = 
REMARK  6 active torsions:
REMARK  status: ('A' for Active; 'I' for Inactive)
REMARK    1  A    between atoms: C_2  and  C_3
REMARK    2  A    between atoms: C_3  and  N_4
REMARK    3  A    between atoms: C_5  and  C_7
REMARK    4  A    between atoms: N_16  and  C_17
REMARK    5  A    between atoms: C_20  and  S_21
REMARK    6  A    between atoms: S_21  and  N_24
REMARK                            x       y       z     vdW  Elec       q    Type
REMARK                         _______ _______ _______ _____ _____    ______ ____
ROOT
ATOM      1  O   UNL     1       7.356   8.965  17.461  0.00  0.00    +0.000 OA
ATOM      2  C   UNL     1       8.131   8.372  18.211  0.00  0.00    +0.000 C 
ATOM      3  N   UNL     1       9.078   8.954  19.045  0.00  0.00    +0.000 N 
ATOM      4  H   UNL     1       9.658   8.328  19.597  0.00  0.00    +0.000 HD
ENDROOT
BRANCH   3   5
ATOM      5  C   UNL     1       9.354  10.342  19.135  0.00  0.00    +0.000 A 
ATOM      6  C   UNL     1       9.148  11.069  20.311  0.00  0.00    +0.000 A 
ATOM      7  C   UNL     1       9.355  12.449  20.358  0.00  0.00    +0.000 A 
ATOM      8  C   UNL     1       9.814  13.126  19.231  0.00  0.00    +0.000 A 
ATOM      9  C   UNL     1      10.043  12.421  18.045  0.00  0.00    +0.000 A 
ATOM     10  C   UNL     1       9.829  11.029  18.004  0.00  0.00    +0.000 A 
BRANCH   8  11
ATOM     11  S   UNL     1       9.947  14.907  19.304  0.00  0.00    +0.000 S 
ATOM     12  O   UNL     1       9.636  15.310  20.659  0.00  0.00    +0.000 OA
ATOM     13  O   UNL     1      11.212  15.265  18.693  0.00  0.00    +0.000 OA
BRANCH  11  14
ATOM     14  N   UNL     1       8.715  15.467  18.294  0.00  0.00    +0.000 NA
ATOM     15  C   UNL     1       8.420  16.906  18.243  0.00  0.00    +0.000 C 
ATOM     16  C   UNL     1       7.060  17.023  18.899  0.00  0.00    +0.000 C 
ATOM     17  C   UNL     1       6.343  15.747  18.491  0.00  0.00    +0.000 C 
ATOM     18  C   UNL     1       7.441  14.721  18.219  0.00  0.00    +0.000 C 
ENDBRANCH  11  14
ENDBRANCH   8  11
ENDBRANCH   3   5
BRANCH   2  19
ATOM     19  C   UNL     1       8.043   6.851  18.306  0.00  0.00    +0.000 C 
BRANCH  19  20
ATOM     20  N   UNL     1       6.675   6.404  18.135  0.00  0.00    +0.000 N 
ATOM     21  C   UNL     1       6.140   5.464  18.978  0.00  0.00    +0.000 C 
ATOM     22  O   UNL     1       6.767   4.984  19.916  0.00  0.00    +0.000 OA
ATOM     23  H   UNL     1       6.134   6.810  17.381  0.00  0.00    +0.000 HD
BRANCH  21  24
ATOM     24  C   UNL     1       4.749   5.007  18.692  0.00  0.00    +0.000 A 
ATOM     25  C   UNL     1       3.784   5.853  18.105  0.00  0.00    +0.000 A 
ATOM     26  C   UNL     1       2.481   5.390  17.881  0.00  0.00    +0.000 A 
ATOM     27  C   UNL     1       2.182   4.096  18.252  0.00  0.00    +0.000 A 
ATOM     28  C   UNL     1       3.124   3.272  18.821  0.00  0.00    +0.000 A 
ATOM     29  C   UNL     1       4.414   3.693  19.055  0.00  0.00    +0.000 A 
ATOM     30  O   UNL     1       2.625   2.042  19.117  0.00  0.00    +0.000 OA
ATOM     31  C   UNL     1       1.249   2.201  18.711  0.00  0.00    +0.000 C 
ATOM     32  O   UNL     1       0.972   3.491  18.126  0.00  0.00    +0.000 OA
ENDBRANCH  21  24
ENDBRANCH  19  20
ENDBRANCH   2  19
TORSDOF 6
ENDMDL
MODEL 3
REMARK VINA RESULT:      -8.4      1.245      1.507
REMARK  Name = 
REMARK  6 active torsions:
REMARK  status: ('A' for Active; 'I' for Inactive)
REMARK    1  A    between atoms: C_2  and  C_3
REMARK    2  A    between atoms: C_3  and  N_4
REMARK    3  A    between atoms: C_5  and  C_7
REMARK    4  A    between atoms: N_16  and  C_17
REMARK    5  A    between atoms: C_20  and  S_21
REMARK    6  A    between atoms: S_21  and  N_24
REMARK                            x       y       z     vdW  Elec       q    Type
REMARK                         _______ _______ _______ _____ _____    ______ ____
ROOT
ATOM      1  O   UNL     1       7.445   8.414  17.322  0.00  0.00    +0.000 OA
ATOM      2  C   UNL     1       8.116   7.943  18.240  0.00  0.00    +0.000 C 
ATOM      3  N   UNL     1       8.924   8.654  19.119  0.00  0.00    +0.000 N 
ATOM      4  H   UNL     1       9.430   8.119  19.820  0.00  0.00    +0.000 HD
ENDROOT
BRANCH   3   5
ATOM      5  C   UNL     1       9.161  10.052  19.073  0.00  0.00    +0.000 A 
ATOM      6  C   UNL     1       9.315  10.742  17.868  0.00  0.00    +0.000 A 
ATOM      7  C   UNL     1       9.621  12.104  17.846  0.00  0.00    +0.000 A 
ATOM      8  C   UNL     1       9.739  12.814  19.038  0.00  0.00    +0.000 A 
ATOM      9  C   UNL     1       9.575  12.151  20.258  0.00  0.00    +0.000 A 
ATOM     10  C   UNL     1       9.269  10.775  20.272  0.00  0.00    +0.000 A 
BRANCH   8  11
ATOM     11  S   UNL     1      10.251  14.526  18.963  0.00  0.00    +0.000 S 
ATOM     12  O   UNL     1      11.005  14.805  20.167  0.00  0.00    +0.000 OA
ATOM     13  O   UNL     1      10.834  14.739  17.654  0.00  0.00    +0.000 OA
BRANCH  11  14
ATOM     14  N   UNL     1       8.811  15.404  19.031  0.00  0.00    +0.000 NA
ATOM     15  C   UNL     1       8.181  15.659  20.334  0.00  0.00    +0.000 C 
ATOM     16  C   UNL     1       6.919  14.822  20.299  0.00  0.00    +0.000 C 
ATOM     17  C   UNL     1       6.480  14.876  18.845  0.00  0.00    +0.000 C 
ATOM     18  C   UNL     1       7.750  15.138  18.037  0.00  0.00    +0.000 C 
ENDBRANCH  11  14
ENDBRANCH   8  11
ENDBRANCH   3   5
BRANCH   2  19
ATOM     19  C   UNL     1       8.041   6.442  18.511  0.00  0.00    +0.000 C 
BRANCH  19  20
ATOM     20  N   UNL     1       6.681   6.041  18.808  0.00  0.00    +0.000 N 
ATOM     21  C   UNL     1       6.065   5.067  18.064  0.00  0.00    +0.000 C 
ATOM     22  O   UNL     1       6.629   4.478  17.149  0.00  0.00    +0.000 OA
ATOM     23  H   UNL     1       6.209   6.499  19.578  0.00  0.00    +0.000 HD
BRANCH  21  24
ATOM     24  C   UNL     1       4.641   4.762  18.389  0.00  0.00    +0.000 A 
ATOM     25  C   UNL     1       3.567   5.327  17.670  0.00  0.00    +0.000 A 
ATOM     26  C   UNL     1       2.244   5.035  18.029  0.00  0.00    +0.000 A 
ATOM     27  C   UNL     1       2.037   4.188  19.096  0.00  0.00    +0.000 A 
ATOM     28  C   UNL     1       3.084   3.634  19.794  0.00  0.00    +0.000 A 
ATOM     29  C   UNL     1       4.396   3.899  19.468  0.00  0.00    +0.000 A 
ATOM     30  O   UNL     1       2.664   2.834  20.811  0.00  0.00    +0.000 OA
ATOM     31  C   UNL     1       1.233   2.983  20.701  0.00  0.00    +0.000 C 
ATOM     32  O   UNL     1       0.828   3.811  19.591  0.00  0.00    +0.000 OA
ENDBRANCH  21  24
ENDBRANCH  19  20
ENDBRANCH   2  19
TORSDOF 6
ENDMDL
MODEL 4
REMARK VINA RESULT:      -8.4      0.739      1.145
REMARK  Name = 
REMARK  6 active torsions:
REMARK  status: ('A' for Active; 'I' for Inactive)
REMARK    1  A    between atoms: C_2  and  C_3
REMARK    2  A    between atoms: C_3  and  N_4
REMARK    3  A    between atoms: C_5  and  C_7
REMARK    4  A    between atoms: N_16  and  C_17
REMARK    5  A    between atoms: C_20  and  S_21
REMARK    6  A    between atoms: S_21  and  N_24
REMARK                            x       y       z     vdW  Elec       q    Type
REMARK                         _______ _______ _______ _____ _____    ______ ____
ROOT
ATOM      1  O   UNL     1       7.237   9.104  17.462  0.00  0.00    +0.000 OA
ATOM      2  C   UNL     1       8.031   8.450  18.136  0.00  0.00    +0.000 C 
ATOM      3  N   UNL     1       9.012   8.958  18.979  0.00  0.00    +0.000 N 
ATOM      4  H   UNL     1       9.603   8.286  19.461  0.00  0.00    +0.000 HD
ENDROOT
BRANCH   3   5
ATOM      5  C   UNL     1       9.305  10.333  19.167  0.00  0.00    +0.000 A 
ATOM      6  C   UNL     1       9.646  11.174  18.104  0.00  0.00    +0.000 A 
ATOM      7  C   UNL     1      10.003  12.507  18.319  0.00  0.00    +0.000 A 
ATOM      8  C   UNL     1       9.986  13.037  19.606  0.00  0.00    +0.000 A 
ATOM      9  C   UNL     1       9.633  12.221  20.687  0.00  0.00    +0.000 A 
ATOM     10  C   UNL     1       9.277  10.876  20.462  0.00  0.00    +0.000 A 
BRANCH   8  11
ATOM     11  S   UNL     1      10.568  14.710  19.846  0.00  0.00    +0.000 S 
ATOM     12  O   UNL     1      10.818  14.883  21.262  0.00  0.00    +0.000 OA
ATOM     13  O   UNL     1      11.615  14.941  18.872  0.00  0.00    +0.000 OA
BRANCH  11  14
ATOM     14  N   UNL     1       9.254  15.682  19.424  0.00  0.00    +0.000 NA
ATOM     15  C   UNL     1       8.012  15.599  20.207  0.00  0.00    +0.000 C 
ATOM     16  C   UNL     1       7.023  14.959  19.256  0.00  0.00    +0.000 C 
ATOM     17  C   UNL     1       7.419  15.499  17.892  0.00  0.00    +0.000 C 
ATOM     18  C   UNL     1       8.902  15.850  17.998  0.00  0.00    +0.000 C 
ENDBRANCH  11  14
ENDBRANCH   8  11
ENDBRANCH   3   5
BRANCH   2  19
ATOM     19  C   UNL     1       7.931   6.926  18.117  0.00  0.00    +0.000 C 
BRANCH  19  20
ATOM     20  N   UNL     1       6.545   6.503  18.098  0.00  0.00    +0.000 N 
ATOM     21  C   UNL     1       6.209   5.208  18.400  0.00  0.00    +0.000 C 
ATOM     22  O   UNL     1       7.040   4.367  18.721  0.00  0.00    +0.000 OA
ATOM     23  H   UNL     1       5.842   7.192  17.859  0.00  0.00    +0.000 HD
BRANCH  21  24
ATOM     24  C   UNL     1       4.769   4.836  18.289  0.00  0.00    +0.000 A 
ATOM     25  C   UNL     1       3.778   5.765  17.905  0.00  0.00    +0.000 A 
ATOM     26  C   UNL     1       2.432   5.378  17.842  0.00  0.00    +0.000 A 
ATOM     27  C   UNL     1       2.119   4.076  18.167  0.00  0.00    +0.000 A 
ATOM     28  C   UNL     1       3.085   3.171  18.537  0.00  0.00    +0.000 A 
ATOM     29  C   UNL     1       4.417   3.515  18.608  0.00  0.00    +0.000 A 
ATOM     30  O   UNL     1       2.566   1.945  18.820  0.00  0.00    +0.000 OA
ATOM     31  C   UNL     1       1.158   2.195  18.630  0.00  0.00    +0.000 C 
ATOM     32  O   UNL     1       0.872   3.536  18.178  0.00  0.00    +0.000 OA
ENDBRANCH  21  24
ENDBRANCH  19  20
ENDBRANCH   2  19
TORSDOF 6
ENDMDL
MODEL 5
REMARK VINA RESULT:      -8.4      8.301     12.062
REMARK  Name = 
REMARK  6 active torsions:
REMARK  status: ('A' for Active; 'I' for Inactive)
REMARK    1  A    between atoms: C_2  and  C_3
REMARK    2  A    between atoms: C_3  and  N_4
REMARK    3  A    between atoms: C_5  and  C_7
REMARK    4  A    between atoms: N_16  and  C_17
REMARK    5  A    between atoms: C_20  and  S_21
REMARK    6  A    between atoms: S_21  and  N_24
REMARK                            x       y       z     vdW  Elec       q    Type
REMARK                         _______ _______ _______ _____ _____    ______ ____
ROOT
ATOM      1  O   UNL     1      -1.486   9.681  17.369  0.00  0.00    +0.000 OA
ATOM      2  C   UNL     1      -0.959  10.620  17.965  0.00  0.00    +0.000 C 
ATOM      3  N   UNL     1       0.227  10.577  18.687  0.00  0.00    +0.000 N 
ATOM      4  H   UNL     1       0.528  11.437  19.138  0.00  0.00    +0.000 HD
ENDROOT
BRANCH   3   5
ATOM      5  C   UNL     1       1.014   9.418  18.911  0.00  0.00    +0.000 A 
ATOM      6  C   UNL     1       1.780   8.831  17.900  0.00  0.00    +0.000 A 
ATOM      7  C   UNL     1       2.488   7.648  18.121  0.00  0.00    +0.000 A 
ATOM      8  C   UNL     1       2.475   7.049  19.377  0.00  0.00    +0.000 A 
ATOM      9  C   UNL     1       1.729   7.623  20.411  0.00  0.00    +0.000 A 
ATOM     10  C   UNL     1       1.014   8.816  20.180  0.00  0.00    +0.000 A 
BRANCH   8  11
ATOM     11  S   UNL     1       3.296   5.473  19.578  0.00  0.00    +0.000 S 
ATOM     12  O   UNL     1       4.718   5.705  19.439  0.00  0.00    +0.000 OA
ATOM     13  O   UNL     1       2.755   4.860  20.775  0.00  0.00    +0.000 OA
BRANCH  11  14
ATOM     14  N   UNL     1       2.783   4.555  18.258  0.00  0.00    +0.000 NA
ATOM     15  C   UNL     1       1.375   4.140  18.168  0.00  0.00    +0.000 C 
ATOM     16  C   UNL     1       1.423   2.641  18.374  0.00  0.00    +0.000 C 
ATOM     17  C   UNL     1       2.728   2.219  17.721  0.00  0.00    +0.000 C 
ATOM     18  C   UNL     1       3.633   3.450  17.766  0.00  0.00    +0.000 C 
ENDBRANCH  11  14
ENDBRANCH   8  11
ENDBRANCH   3   5
BRANCH   2  19
ATOM     19  C   UNL     1      -1.610  11.999  17.884  0.00  0.00    +0.000 C 
BRANCH  19  20
ATOM     20  N   UNL     1      -2.344  12.292  19.098  0.00  0.00    +0.000 N 
ATOM     21  C   UNL     1      -3.710  12.161  19.134  0.00  0.00    +0.000 C 
ATOM     22  O   UNL     1      -4.362  11.771  18.172  0.00  0.00    +0.000 OA
ATOM     23  H   UNL     1      -1.819  12.590  19.911  0.00  0.00    +0.000 HD
BRANCH  21  24
ATOM     24  C   UNL     1      -4.397  12.548  20.399  0.00  0.00    +0.000 A 
ATOM     25  C   UNL     1      -3.734  13.241  21.435  0.00  0.00    +0.000 A 
ATOM     26  C   UNL     1      -4.412  13.560  22.620  0.00  0.00    +0.000 A 
ATOM     27  C   UNL     1      -5.731  13.175  22.732  0.00  0.00    +0.000 A 
ATOM     28  C   UNL     1      -6.377  12.504  21.721  0.00  0.00    +0.000 A 
ATOM     29  C   UNL     1      -5.742  12.175  20.544  0.00  0.00    +0.000 A 
ATOM     30  O   UNL     1      -7.668  12.213  22.035  0.00  0.00    +0.000 OA
ATOM     31  C   UNL     1      -7.748  12.738  23.377  0.00  0.00    +0.000 C 
ATOM     32  O   UNL     1      -6.532  13.384  23.810  0.00  0.00    +0.000 OA
ENDBRANCH  21  24
ENDBRANCH  19  20
ENDBRANCH   2  19
TORSDOF 6
ENDMDL
MODEL 6
REMARK VINA RESULT:      -8.4      7.241     10.314
REMARK  Name = 
REMARK  6 active torsions:
REMARK  status: ('A' for Active; 'I' for Inactive)
REMARK    1  A    between atoms: C_2  and  C_3
REMARK    2  A    between atoms: C_3  and  N_4
REMARK    3  A    between atoms: C_5  and  C_7
REMARK    4  A    between atoms: N_16  and  C_17
REMARK    5  A    between atoms: C_20  and  S_21
REMARK    6  A    between atoms: S_21  and  N_24
REMARK                            x       y       z     vdW  Elec       q    Type
REMARK                         _______ _______ _______ _____ _____    ______ ____
ROOT
ATOM      1  O   UNL     1       1.517   9.137  19.629  0.00  0.00    +0.000 OA
ATOM      2  C   UNL     1       1.382   8.229  20.448  0.00  0.00    +0.000 C 
ATOM      3  N   UNL     1       1.973   6.972  20.389  0.00  0.00    +0.000 N 
ATOM      4  H   UNL     1       1.752   6.320  21.138  0.00  0.00    +0.000 HD
ENDROOT
BRANCH   3   5
ATOM      5  C   UNL     1       2.796   6.497  19.336  0.00  0.00    +0.000 A 
ATOM      6  C   UNL     1       3.325   5.203  19.330  0.00  0.00    +0.000 A 
ATOM      7  C   UNL     1       4.193   4.779  18.322  0.00  0.00    +0.000 A 
ATOM      8  C   UNL     1       4.518   5.635  17.273  0.00  0.00    +0.000 A 
ATOM      9  C   UNL     1       3.991   6.930  17.247  0.00  0.00    +0.000 A 
ATOM     10  C   UNL     1       3.117   7.352  18.269  0.00  0.00    +0.000 A 
BRANCH   8  11
ATOM     11  S   UNL     1       5.727   5.091  16.073  0.00  0.00    +0.000 S 
ATOM     12  O   UNL     1       5.653   3.647  16.008  0.00  0.00    +0.000 OA
ATOM     13  O   UNL     1       5.544   5.901  14.886  0.00  0.00    +0.000 OA
BRANCH  11  14
ATOM     14  N   UNL     1       7.216   5.509  16.751  0.00  0.00    +0.000 NA
ATOM     15  C   UNL     1       7.757   4.707  17.858  0.00  0.00    +0.000 C 
ATOM     16  C   UNL     1       7.678   5.635  19.053  0.00  0.00    +0.000 C 
ATOM     17  C   UNL     1       7.948   7.012  18.470  0.00  0.00    +0.000 C 
ATOM     18  C   UNL     1       7.527   6.932  17.003  0.00  0.00    +0.000 C 
ENDBRANCH  11  14
ENDBRANCH   8  11
ENDBRANCH   3   5
BRANCH   2  19
ATOM     19  C   UNL     1       0.536   8.481  21.693  0.00  0.00    +0.000 C 
BRANCH  19  20
ATOM     20  N   UNL     1      -0.343   9.616  21.495  0.00  0.00    +0.000 N 
ATOM     21  C   UNL     1      -0.643  10.454  22.539  0.00  0.00    +0.000 C 
ATOM     22  O   UNL     1      -0.172  10.307  23.661  0.00  0.00    +0.000 OA
ATOM     23  H   UNL     1      -0.721   9.767  20.567  0.00  0.00    +0.000 HD
BRANCH  21  24
ATOM     24  C   UNL     1      -1.610  11.557  22.269  0.00  0.00    +0.000 A 
ATOM     25  C   UNL     1      -1.660  12.229  21.028  0.00  0.00    +0.000 A 
ATOM     26  C   UNL     1      -2.566  13.279  20.829  0.00  0.00    +0.000 A 
ATOM     27  C   UNL     1      -3.393  13.626  21.876  0.00  0.00    +0.000 A 
ATOM     28  C   UNL     1      -3.347  12.968  23.082  0.00  0.00    +0.000 A 
ATOM     29  C   UNL     1      -2.470  11.931  23.313  0.00  0.00    +0.000 A 
ATOM     30  O   UNL     1      -4.239  13.468  23.979  0.00  0.00    +0.000 OA
ATOM     31  C   UNL     1      -4.821  14.544  23.214  0.00  0.00    +0.000 C 
ATOM     32  O   UNL     1      -4.314  14.625  21.865  0.00  0.00    +0.000 OA
ENDBRANCH  21  24
ENDBRANCH  19  20
ENDBRANCH   2  19
TORSDOF 6
ENDMDL
MODEL 7
REMARK VINA RESULT:      -8.3      1.616      2.123
REMARK  Name = 
REMARK  6 active torsions:
REMARK  status: ('A' for Active; 'I' for Inactive)
REMARK    1  A    between atoms: C_2  and  C_3
REMARK    2  A    between atoms: C_3  and  N_4
REMARK    3  A    between atoms: C_5  and  C_7
REMARK    4  A    between atoms: N_16  and  C_17
REMARK    5  A    between atoms: C_20  and  S_21
REMARK    6  A    between atoms: S_21  and  N_24
REMARK                            x       y       z     vdW  Elec       q    Type
REMARK                         _______ _______ _______ _____ _____    ______ ____
ROOT
ATOM      1  O   UNL     1       7.389   8.540  17.397  0.00  0.00    +0.000 OA
ATOM      2  C   UNL     1       8.132   8.040  18.241  0.00  0.00    +0.000 C 
ATOM      3  N   UNL     1       8.978   8.726  19.104  0.00  0.00    +0.000 N 
ATOM      4  H   UNL     1       9.544   8.169  19.739  0.00  0.00    +0.000 HD
ENDROOT
BRANCH   3   5
ATOM      5  C   UNL     1       9.174  10.130  19.122  0.00  0.00    +0.000 A 
ATOM      6  C   UNL     1       9.251  10.857  20.313  0.00  0.00    +0.000 A 
ATOM      7  C   UNL     1       9.369  12.248  20.308  0.00  0.00    +0.000 A 
ATOM      8  C   UNL     1       9.453  12.939  19.102  0.00  0.00    +0.000 A 
ATOM      9  C   UNL     1       9.394  12.235  17.895  0.00  0.00    +0.000 A 
ATOM     10  C   UNL     1       9.271  10.831  17.908  0.00  0.00    +0.000 A 
BRANCH   8  11
ATOM     11  S   UNL     1       9.481  14.726  19.145  0.00  0.00    +0.000 S 
ATOM     12  O   UNL     1       8.333  15.195  18.396  0.00  0.00    +0.000 OA
ATOM     13  O   UNL     1       9.678  15.117  20.526  0.00  0.00    +0.000 OA
BRANCH  11  14
ATOM     14  N   UNL     1      10.873  15.151  18.289  0.00  0.00    +0.000 NA
ATOM     15  C   UNL     1      12.117  15.426  19.023  0.00  0.00    +0.000 C 
ATOM     16  C   UNL     1      12.326  16.915  18.840  0.00  0.00    +0.000 C 
ATOM     17  C   UNL     1      11.799  17.193  17.441  0.00  0.00    +0.000 C 
ATOM     18  C   UNL     1      10.771  16.098  17.159  0.00  0.00    +0.000 C 
ENDBRANCH  11  14
ENDBRANCH   8  11
ENDBRANCH   3   5
BRANCH   2  19
ATOM     19  C   UNL     1       8.115   6.525  18.430  0.00  0.00    +0.000 C 
BRANCH  19  20
ATOM     20  N   UNL     1       6.763   6.049  18.643  0.00  0.00    +0.000 N 
ATOM     21  C   UNL     1       6.291   4.964  17.949  0.00  0.00    +0.000 C 
ATOM     22  O   UNL     1       6.980   4.337  17.153  0.00  0.00    +0.000 OA
ATOM     23  H   UNL     1       6.188   6.540  19.317  0.00  0.00    +0.000 HD
BRANCH  21  24
ATOM     24  C   UNL     1       4.867   4.581  18.174  0.00  0.00    +0.000 A 
ATOM     25  C   UNL     1       4.061   4.041  17.148  0.00  0.00    +0.000 A 
ATOM     26  C   UNL     1       2.719   3.723  17.397  0.00  0.00    +0.000 A 
ATOM     27  C   UNL     1       2.224   3.955  18.662  0.00  0.00    +0.000 A 
ATOM     28  C   UNL     1       3.011   4.476  19.662  0.00  0.00    +0.000 A 
ATOM     29  C   UNL     1       4.333   4.800  19.453  0.00  0.00    +0.000 A 
ATOM     30  O   UNL     1       2.330   4.632  20.829  0.00  0.00    +0.000 OA
ATOM     31  C   UNL     1       1.013   4.190  20.438  0.00  0.00    +0.000 C 
ATOM     32  O   UNL     1       0.950   3.723  19.074  0.00  0.00    +0.000 OA
ENDBRANCH  21  24
ENDBRANCH  19  20
ENDBRANCH   2  19
TORSDOF 6
ENDMDL
MODEL 8
REMARK VINA RESULT:      -8.3      6.225      7.872
REMARK  Name = 
REMARK  6 active torsions:
REMARK  status: ('A' for Active; 'I' for Inactive)
REMARK    1  A    between atoms: C_2  and  C_3
REMARK    2  A    between atoms: C_3  and  N_4
REMARK    3  A    between atoms: C_5  and  C_7
REMARK    4  A    between atoms: N_16  and  C_17
REMARK    5  A    between atoms: C_20  and  S_21
REMARK    6  A    between atoms: S_21  and  N_24
REMARK                            x       y       z     vdW  Elec       q    Type
REMARK                         _______ _______ _______ _____ _____    ______ ____
ROOT
ATOM      1  O   UNL     1       0.959   4.859  20.703  0.00  0.00    +0.000 OA
ATOM      2  C   UNL     1       2.097   5.143  20.332  0.00  0.00    +0.000 C 
ATOM      3  N   UNL     1       2.601   6.422  20.124  0.00  0.00    +0.000 N 
ATOM      4  H   UNL     1       3.562   6.495  19.801  0.00  0.00    +0.000 HD
ENDROOT
BRANCH   3   5
ATOM      5  C   UNL     1       1.865   7.628  20.251  0.00  0.00    +0.000 A 
ATOM      6  C   UNL     1       1.625   8.473  19.164  0.00  0.00    +0.000 A 
ATOM      7  C   UNL     1       0.963   9.691  19.325  0.00  0.00    +0.000 A 
ATOM      8  C   UNL     1       0.490  10.071  20.578  0.00  0.00    +0.000 A 
ATOM      9  C   UNL     1       0.703   9.237  21.681  0.00  0.00    +0.000 A 
ATOM     10  C   UNL     1       1.375   8.009  21.511  0.00  0.00    +0.000 A 
BRANCH   8  11
ATOM     11  S   UNL     1      -0.242  11.692  20.758  0.00  0.00    +0.000 S 
ATOM     12  O   UNL     1      -1.656  11.563  20.470  0.00  0.00    +0.000 OA
ATOM     13  O   UNL     1       0.214  12.228  22.024  0.00  0.00    +0.000 OA
BRANCH  11  14
ATOM     14  N   UNL     1       0.459  12.614  19.530  0.00  0.00    +0.000 NA
ATOM     15  C   UNL     1       1.682  13.381  19.810  0.00  0.00    +0.000 C 
ATOM     16  C   UNL     1       1.227  14.825  19.754  0.00  0.00    +0.000 C 
ATOM     17  C   UNL     1       0.156  14.833  18.676  0.00  0.00    +0.000 C 
ATOM     18  C   UNL     1      -0.405  13.413  18.636  0.00  0.00    +0.000 C 
ENDBRANCH  11  14
ENDBRANCH   8  11
ENDBRANCH   3   5
BRANCH   2  19
ATOM     19  C   UNL     1       3.105   4.016  20.119  0.00  0.00    +0.000 C 
BRANCH  19  20
ATOM     20  N   UNL     1       4.110   4.402  19.150  0.00  0.00    +0.000 N 
ATOM     21  C   UNL     1       3.915   4.164  17.813  0.00  0.00    +0.000 C 
ATOM     22  O   UNL     1       2.892   3.650  17.375  0.00  0.00    +0.000 OA
ATOM     23  H   UNL     1       4.950   4.852  19.492  0.00  0.00    +0.000 HD
BRANCH  21  24
ATOM     24  C   UNL     1       5.027   4.528  16.888  0.00  0.00    +0.000 A 
ATOM     25  C   UNL     1       6.030   5.455  17.244  0.00  0.00    +0.000 A 
ATOM     26  C   UNL     1       7.041   5.788  16.332  0.00  0.00    +0.000 A 
ATOM     27  C   UNL     1       7.016   5.186  15.092  0.00  0.00    +0.000 A 
ATOM     28  C   UNL     1       6.041   4.281  14.748  0.00  0.00    +0.000 A 
ATOM     29  C   UNL     1       5.034   3.929  15.619  0.00  0.00    +0.000 A 
ATOM     30  O   UNL     1       6.195   3.810  13.481  0.00  0.00    +0.000 OA
ATOM     31  C   UNL     1       7.353   4.557  13.052  0.00  0.00    +0.000 C 
ATOM     32  O   UNL     1       7.901   5.403  14.084  0.00  0.00    +0.000 OA
ENDBRANCH  21  24
ENDBRANCH  19  20
ENDBRANCH   2  19
TORSDOF 6
ENDMDL
MODEL 9
REMARK VINA RESULT:      -8.2      1.726      2.287
REMARK  Name = 
REMARK  6 active torsions:
REMARK  status: ('A' for Active; 'I' for Inactive)
REMARK    1  A    between atoms: C_2  and  C_3
REMARK    2  A    between atoms: C_3  and  N_4
REMARK    3  A    between atoms: C_5  and  C_7
REMARK    4  A    between atoms: N_16  and  C_17
REMARK    5  A    between atoms: C_20  and  S_21
REMARK    6  A    between atoms: S_21  and  N_24
REMARK                            x       y       z     vdW  Elec       q    Type
REMARK                         _______ _______ _______ _____ _____    ______ ____
ROOT
ATOM      1  O   UNL     1       8.581   7.299  18.947  0.00  0.00    +0.000 OA
ATOM      2  C   UNL     1       7.989   7.650  17.926  0.00  0.00    +0.000 C 
ATOM      3  N   UNL     1       7.905   8.944  17.426  0.00  0.00    +0.000 N 
ATOM      4  H   UNL     1       7.366   9.078  16.575  0.00  0.00    +0.000 HD
ENDROOT
BRANCH   3   5
ATOM      5  C   UNL     1       8.444  10.102  18.043  0.00  0.00    +0.000 A 
ATOM      6  C   UNL     1       9.174  10.042  19.233  0.00  0.00    +0.000 A 
ATOM      7  C   UNL     1       9.632  11.200  19.863  0.00  0.00    +0.000 A 
ATOM      8  C   UNL     1       9.402  12.447  19.288  0.00  0.00    +0.000 A 
ATOM      9  C   UNL     1       8.687  12.535  18.089  0.00  0.00    +0.000 A 
ATOM     10  C   UNL     1       8.225  11.362  17.460  0.00  0.00    +0.000 A 
BRANCH   8  11
ATOM     11  S   UNL     1       9.901  13.907  20.192  0.00  0.00    +0.000 S 
ATOM     12  O   UNL     1       8.811  14.858  20.113  0.00  0.00    +0.000 OA
ATOM     13  O   UNL     1      10.409  13.462  21.474  0.00  0.00    +0.000 OA
BRANCH  11  14
ATOM     14  N   UNL     1      11.202  14.527  19.313  0.00  0.00    +0.000 NA
ATOM     15  C   UNL     1      10.967  15.592  18.327  0.00  0.00    +0.000 C 
ATOM     16  C   UNL     1      11.218  14.917  16.995  0.00  0.00    +0.000 C 
ATOM     17  C   UNL     1      12.333  13.927  17.287  0.00  0.00    +0.000 C 
ATOM     18  C   UNL     1      12.222  13.602  18.775  0.00  0.00    +0.000 C 
ENDBRANCH  11  14
ENDBRANCH   8  11
ENDBRANCH   3   5
BRANCH   2  19
ATOM     19  C   UNL     1       7.314   6.585  17.065  0.00  0.00    +0.000 C 
BRANCH  19  20
ATOM     20  N   UNL     1       6.019   6.231  17.608  0.00  0.00    +0.000 N 
ATOM     21  C   UNL     1       5.831   5.021  18.226  0.00  0.00    +0.000 C 
ATOM     22  O   UNL     1       6.735   4.207  18.373  0.00  0.00    +0.000 OA
ATOM     23  H   UNL     1       5.267   6.904  17.518  0.00  0.00    +0.000 HD
BRANCH  21  24
ATOM     24  C   UNL     1       4.451   4.705  18.696  0.00  0.00    +0.000 A 
ATOM     25  C   UNL     1       3.794   5.476  19.678  0.00  0.00    +0.000 A 
ATOM     26  C   UNL     1       2.508   5.124  20.110  0.00  0.00    +0.000 A 
ATOM     27  C   UNL     1       1.920   4.012  19.548  0.00  0.00    +0.000 A 
ATOM     28  C   UNL     1       2.559   3.263  18.588  0.00  0.00    +0.000 A 
ATOM     29  C   UNL     1       3.822   3.580  18.139  0.00  0.00    +0.000 A 
ATOM     30  O   UNL     1       1.809   2.208  18.170  0.00  0.00    +0.000 OA
ATOM     31  C   UNL     1       0.644   2.351  19.009  0.00  0.00    +0.000 C 
ATOM     32  O   UNL     1       0.692   3.517  19.858  0.00  0.00    +0.000 OA
ENDBRANCH  21  24
ENDBRANCH  19  20
ENDBRANCH   2  19
TORSDOF 6
ENDMDL
