MODEL 1
REMARK VINA RESULT:      -9.8      0.000      0.000
REMARK  Name = 
REMARK  6 active torsions:
REMARK  status: ('A' for Active; 'I' for Inactive)
REMARK    1  A    between atoms: C_1  and  C_2
REMARK    2  A    between atoms: C_5  and  C_6
REMARK    3  A    between atoms: C_9  and  C_10
REMARK    4  A    between atoms: N_14  and  C_15
REMARK    5  A    between atoms: C_15  and  C_16
REMARK    6  A    between atoms: C_16  and  C_17
REMARK                            x       y       z     vdW  Elec       q    Type
REMARK                         _______ _______ _______ _____ _____    ______ ____
ROOT
ATOM      1  C   UNL     1       7.471   5.486  18.672  0.00  0.00    +0.000 C 
ATOM      2  C   UNL     1       7.880   4.563  17.530  0.00  0.00    +0.000 C 
ATOM      3  C   UNL     1       6.673   4.592  16.623  0.00  0.00    +0.000 C 
ATOM      4  O   UNL     1       6.694   4.271  15.451  0.00  0.00    +0.000 OA
ATOM      5  N   UNL     1       5.575   4.954  17.393  0.00  0.00    +0.000 N 
ATOM      6  C   UNL     1       5.960   5.306  18.741  0.00  0.00    +0.000 C 
ENDROOT
BRANCH   1  10
ATOM      7  C   UNL     1       8.456   8.893  18.298  0.00  0.00    +0.000 A 
ATOM      8  N   UNL     1       7.693   8.760  17.199  0.00  0.00    +0.000 NA
ATOM      9  O   UNL     1       7.283   7.432  17.235  0.00  0.00    +0.000 OA
ATOM     10  C   UNL     1       7.841   6.891  18.352  0.00  0.00    +0.000 A 
ATOM     11  N   UNL     1       8.583   7.733  19.026  0.00  0.00    +0.000 NA
BRANCH   7  16
ATOM     12  C   UNL     1      11.011  13.810  19.898  0.00  0.00    +0.000 C 
ATOM     13  C   UNL     1      10.338  12.534  19.501  0.00  0.00    +0.000 A 
ATOM     14  C   UNL     1      10.028  11.554  20.447  0.00  0.00    +0.000 A 
ATOM     15  C   UNL     1       9.406  10.366  20.054  0.00  0.00    +0.000 A 
ATOM     16  C   UNL     1       9.088  10.138  18.708  0.00  0.00    +0.000 A 
ATOM     17  C   UNL     1       9.393  11.123  17.759  0.00  0.00    +0.000 A 
ATOM     18  C   UNL     1      10.006  12.304  18.164  0.00  0.00    +0.000 A 
ATOM     19  F   UNL     1      10.278  13.240  17.241  0.00  0.00    +0.000 F 
ENDBRANCH   7  16
ENDBRANCH   1  10
BRANCH   5  20
ATOM     20  C   UNL     1       4.198   5.108  16.933  0.00  0.00    +0.000 C 
BRANCH  20  21
ATOM     21  C   UNL     1       3.274   5.808  17.931  0.00  0.00    +0.000 C 
BRANCH  21  22
ATOM     22  C   UNL     1       2.381   4.838  18.661  0.00  0.00    +0.000 A 
ATOM     23  C   UNL     1       1.835   3.737  17.988  0.00  0.00    +0.000 A 
ATOM     24  C   UNL     1       1.007   2.839  18.661  0.00  0.00    +0.000 A 
ATOM     25  C   UNL     1       0.718   3.036  20.011  0.00  0.00    +0.000 A 
ATOM     26  C   UNL     1       1.254   4.131  20.686  0.00  0.00    +0.000 A 
ATOM     27  C   UNL     1       2.080   5.031  20.015  0.00  0.00    +0.000 A 
ENDBRANCH  21  22
ENDBRANCH  20  21
ENDBRANCH   5  20
TORSDOF 5
ENDMDL
MODEL 2
REMARK VINA RESULT:      -9.7      1.207      1.617
REMARK  Name = 
REMARK  6 active torsions:
REMARK  status: ('A' for Active; 'I' for Inactive)
REMARK    1  A    between atoms: C_1  and  C_2
REMARK    2  A    between atoms: C_5  and  C_6
REMARK    3  A    between atoms: C_9  and  C_10
REMARK    4  A    between atoms: N_14  and  C_15
REMARK    5  A    between atoms: C_15  and  C_16
REMARK    6  A    between atoms: C_16  and  C_17
REMARK                            x       y       z     vdW  Elec       q    Type
REMARK                         _______ _______ _______ _____ _____    ______ ____
ROOT
ATOM      1  C   UNL     1       7.472   5.436  18.656  0.00  0.00    +0.000 C 
ATOM      2  C   UNL     1       7.821   4.511  17.495  0.00  0.00    +0.000 C 
ATOM      3  C   UNL     1       6.530   4.450  16.713  0.00  0.00    +0.000 C 
ATOM      4  O   UNL     1       6.454   4.103  15.550  0.00  0.00    +0.000 OA
ATOM      5  N   UNL     1       5.494   4.766  17.583  0.00  0.00    +0.000 N 
ATOM      6  C   UNL     1       5.989   5.171  18.879  0.00  0.00    +0.000 C 
ENDROOT
BRANCH   1  10
ATOM      7  C   UNL     1       8.222   8.881  18.122  0.00  0.00    +0.000 A 
ATOM      8  N   UNL     1       7.338   8.689  17.128  0.00  0.00    +0.000 NA
ATOM      9  O   UNL     1       7.006   7.343  17.230  0.00  0.00    +0.000 OA
ATOM     10  C   UNL     1       7.726   6.851  18.276  0.00  0.00    +0.000 A 
ATOM     11  N   UNL     1       8.498   7.743  18.843  0.00  0.00    +0.000 NA
BRANCH   7  16
ATOM     12  C   UNL     1      10.602  13.973  19.414  0.00  0.00    +0.000 C 
ATOM     13  C   UNL     1       9.987  12.656  19.059  0.00  0.00    +0.000 A 
ATOM     14  C   UNL     1       9.190  12.513  17.920  0.00  0.00    +0.000 A 
ATOM     15  C   UNL     1       8.619  11.276  17.611  0.00  0.00    +0.000 A 
ATOM     16  C   UNL     1       8.832  10.164  18.437  0.00  0.00    +0.000 A 
ATOM     17  C   UNL     1       9.636  10.305  19.576  0.00  0.00    +0.000 A 
ATOM     18  C   UNL     1      10.204  11.540  19.870  0.00  0.00    +0.000 A 
ATOM     19  F   UNL     1      10.982  11.651  20.959  0.00  0.00    +0.000 F 
ENDBRANCH   7  16
ENDBRANCH   1  10
BRANCH   5  20
ATOM     20  C   UNL     1       4.072   4.830  17.260  0.00  0.00    +0.000 C 
BRANCH  20  21
ATOM     21  C   UNL     1       3.327   3.504  17.428  0.00  0.00    +0.000 C 
BRANCH  21  22
ATOM     22  C   UNL     1       2.681   3.379  18.784  0.00  0.00    +0.000 A 
ATOM     23  C   UNL     1       3.356   2.739  19.832  0.00  0.00    +0.000 A 
ATOM     24  C   UNL     1       2.758   2.622  21.086  0.00  0.00    +0.000 A 
ATOM     25  C   UNL     1       1.483   3.142  21.302  0.00  0.00    +0.000 A 
ATOM     26  C   UNL     1       0.803   3.776  20.263  0.00  0.00    +0.000 A 
ATOM     27  C   UNL     1       1.398   3.893  19.007  0.00  0.00    +0.000 A 
ENDBRANCH  21  22
ENDBRANCH  20  21
ENDBRANCH   5  20
TORSDOF 5
ENDMDL
MODEL 3
REMARK VINA RESULT:      -9.7      0.902      1.586
REMARK  Name = 
REMARK  6 active torsions:
REMARK  status: ('A' for Active; 'I' for Inactive)
REMARK    1  A    between atoms: C_1  and  C_2
REMARK    2  A    between atoms: C_5  and  C_6
REMARK    3  A    between atoms: C_9  and  C_10
REMARK    4  A    between atoms: N_14  and  C_15
REMARK    5  A    between atoms: C_15  and  C_16
REMARK    6  A    between atoms: C_16  and  C_17
REMARK                            x       y       z     vdW  Elec       q    Type
REMARK                         _______ _______ _______ _____ _____    ______ ____
ROOT
ATOM      1  C   UNL     1       7.413   5.535  18.723  0.00  0.00    +0.000 C 
ATOM      2  C   UNL     1       7.831   4.589  17.603  0.00  0.00    +0.000 C 
ATOM      3  C   UNL     1       6.643   4.622  16.672  0.00  0.00    +0.000 C 
ATOM      4  O   UNL     1       6.681   4.282  15.505  0.00  0.00    +0.000 OA
ATOM      5  N   UNL     1       5.535   5.010  17.415  0.00  0.00    +0.000 N 
ATOM      6  C   UNL     1       5.899   5.377  18.764  0.00  0.00    +0.000 C 
ENDROOT
BRANCH   1  10
ATOM      7  C   UNL     1       8.488   8.910  18.310  0.00  0.00    +0.000 A 
ATOM      8  N   UNL     1       7.650   8.813  17.263  0.00  0.00    +0.000 NA
ATOM      9  O   UNL     1       7.197   7.500  17.316  0.00  0.00    +0.000 OA
ATOM     10  C   UNL     1       7.810   6.929  18.390  0.00  0.00    +0.000 A 
ATOM     11  N   UNL     1       8.623   7.739  19.019  0.00  0.00    +0.000 NA
BRANCH   7  16
ATOM     12  C   UNL     1      11.210  13.766  19.818  0.00  0.00    +0.000 C 
ATOM     13  C   UNL     1      10.517  12.504  19.411  0.00  0.00    +0.000 A 
ATOM     14  C   UNL     1      10.407  12.139  18.067  0.00  0.00    +0.000 A 
ATOM     15  C   UNL     1       9.750  10.960  17.708  0.00  0.00    +0.000 A 
ATOM     16  C   UNL     1       9.188  10.129  18.687  0.00  0.00    +0.000 A 
ATOM     17  C   UNL     1       9.302  10.491  20.035  0.00  0.00    +0.000 A 
ATOM     18  C   UNL     1       9.965  11.664  20.381  0.00  0.00    +0.000 A 
ATOM     19  F   UNL     1      10.075  11.986  21.680  0.00  0.00    +0.000 F 
ENDBRANCH   7  16
ENDBRANCH   1  10
BRANCH   5  20
ATOM     20  C   UNL     1       4.170   5.176  16.925  0.00  0.00    +0.000 C 
BRANCH  20  21
ATOM     21  C   UNL     1       3.216   5.832  17.926  0.00  0.00    +0.000 C 
BRANCH  21  22
ATOM     22  C   UNL     1       2.344   4.824  18.629  0.00  0.00    +0.000 A 
ATOM     23  C   UNL     1       1.989   5.010  19.972  0.00  0.00    +0.000 A 
ATOM     24  C   UNL     1       1.183   4.076  20.623  0.00  0.00    +0.000 A 
ATOM     25  C   UNL     1       0.727   2.951  19.938  0.00  0.00    +0.000 A 
ATOM     26  C   UNL     1       1.079   2.757  18.603  0.00  0.00    +0.000 A 
ATOM     27  C   UNL     1       1.886   3.687  17.950  0.00  0.00    +0.000 A 
ENDBRANCH  21  22
ENDBRANCH  20  21
ENDBRANCH   5  20
TORSDOF 5
ENDMDL
MODEL 4
REMARK VINA RESULT:      -9.5      0.582      1.044
REMARK  Name = 
REMARK  6 active torsions:
REMARK  status: ('A' for Active; 'I' for Inactive)
REMARK    1  A    between atoms: C_1  and  C_2
REMARK    2  A    between atoms: C_5  and  C_6
REMARK    3  A    between atoms: C_9  and  C_10
REMARK    4  A    between atoms: N_14  and  C_15
REMARK    5  A    between atoms: C_15  and  C_16
REMARK    6  A    between atoms: C_16  and  C_17
REMARK                            x       y       z     vdW  Elec       q    Type
REMARK                         _______ _______ _______ _____ _____    ______ ____
ROOT
ATOM      1  C   UNL     1       7.489   5.455  18.637  0.00  0.00    +0.000 C 
ATOM      2  C   UNL     1       7.790   4.553  17.446  0.00  0.00    +0.000 C 
ATOM      3  C   UNL     1       6.514   4.619  16.641  0.00  0.00    +0.000 C 
ATOM      4  O   UNL     1       6.435   4.324  15.464  0.00  0.00    +0.000 OA
ATOM      5  N   UNL     1       5.488   4.977  17.506  0.00  0.00    +0.000 N 
ATOM      6  C   UNL     1       5.987   5.294  18.825  0.00  0.00    +0.000 C 
ENDROOT
BRANCH   1  10
ATOM      7  C   UNL     1       8.427   8.876  18.271  0.00  0.00    +0.000 A 
ATOM      8  N   UNL     1       7.759   8.704  17.117  0.00  0.00    +0.000 NA
ATOM      9  O   UNL     1       7.376   7.368  17.148  0.00  0.00    +0.000 OA
ATOM     10  C   UNL     1       7.854   6.862  18.318  0.00  0.00    +0.000 A 
ATOM     11  N   UNL     1       8.519   7.735  19.032  0.00  0.00    +0.000 NA
BRANCH   7  16
ATOM     12  C   UNL     1      10.729  13.890  19.953  0.00  0.00    +0.000 C 
ATOM     13  C   UNL     1      10.125  12.586  19.536  0.00  0.00    +0.000 A 
ATOM     14  C   UNL     1      10.075  11.498  20.411  0.00  0.00    +0.000 A 
ATOM     15  C   UNL     1       9.513  10.287  19.999  0.00  0.00    +0.000 A 
ATOM     16  C   UNL     1       8.996  10.144  18.704  0.00  0.00    +0.000 A 
ATOM     17  C   UNL     1       9.040  11.236  17.828  0.00  0.00    +0.000 A 
ATOM     18  C   UNL     1       9.596  12.439  18.251  0.00  0.00    +0.000 A 
ATOM     19  F   UNL     1       9.617  13.477  17.401  0.00  0.00    +0.000 F 
ENDBRANCH   7  16
ENDBRANCH   1  10
BRANCH   5  20
ATOM     20  C   UNL     1       4.081   5.160  17.163  0.00  0.00    +0.000 C 
BRANCH  20  21
ATOM     21  C   UNL     1       3.244   3.880  17.230  0.00  0.00    +0.000 C 
BRANCH  21  22
ATOM     22  C   UNL     1       2.529   3.735  18.548  0.00  0.00    +0.000 A 
ATOM     23  C   UNL     1       2.153   4.870  19.278  0.00  0.00    +0.000 A 
ATOM     24  C   UNL     1       1.492   4.736  20.499  0.00  0.00    +0.000 A 
ATOM     25  C   UNL     1       1.203   3.467  20.999  0.00  0.00    +0.000 A 
ATOM     26  C   UNL     1       1.578   2.333  20.282  0.00  0.00    +0.000 A 
ATOM     27  C   UNL     1       2.241   2.464  19.062  0.00  0.00    +0.000 A 
ENDBRANCH  21  22
ENDBRANCH  20  21
ENDBRANCH   5  20
TORSDOF 5
ENDMDL
MODEL 5
REMARK VINA RESULT:      -9.3      3.408      8.060
REMARK  Name = 
REMARK  6 active torsions:
REMARK  status: ('A' for Active; 'I' for Inactive)
REMARK    1  A    between atoms: C_1  and  C_2
REMARK    2  A    between atoms: C_5  and  C_6
REMARK    3  A    between atoms: C_9  and  C_10
REMARK    4  A    between atoms: N_14  and  C_15
REMARK    5  A    between atoms: C_15  and  C_16
REMARK    6  A    between atoms: C_16  and  C_17
REMARK                            x       y       z     vdW  Elec       q    Type
REMARK                         _______ _______ _______ _____ _____    ______ ____
ROOT
ATOM      1  C   UNL     1       6.214   5.655  16.811  0.00  0.00    +0.000 C 
ATOM      2  C   UNL     1       6.886   4.687  17.778  0.00  0.00    +0.000 C 
ATOM      3  C   UNL     1       7.572   5.609  18.757  0.00  0.00    +0.000 C 
ATOM      4  O   UNL     1       7.939   5.274  19.867  0.00  0.00    +0.000 OA
ATOM      5  N   UNL     1       7.770   6.828  18.121  0.00  0.00    +0.000 N 
ATOM      6  C   UNL     1       7.149   6.857  16.816  0.00  0.00    +0.000 C 
ENDROOT
BRANCH   1  10
ATOM      7  C   UNL     1       3.127   6.865  18.124  0.00  0.00    +0.000 A 
ATOM      8  N   UNL     1       2.850   5.550  18.079  0.00  0.00    +0.000 NA
ATOM      9  O   UNL     1       3.999   4.984  17.538  0.00  0.00    +0.000 OA
ATOM     10  C   UNL     1       4.858   6.014  17.306  0.00  0.00    +0.000 A 
ATOM     11  N   UNL     1       4.369   7.185  17.627  0.00  0.00    +0.000 NA
BRANCH   7  16
ATOM     12  C   UNL     1      -0.499  10.819  20.240  0.00  0.00    +0.000 C 
ATOM     13  C   UNL     1       0.449   9.807  19.678  0.00  0.00    +0.000 A 
ATOM     14  C   UNL     1       0.784   9.805  18.322  0.00  0.00    +0.000 A 
ATOM     15  C   UNL     1       1.666   8.846  17.816  0.00  0.00    +0.000 A 
ATOM     16  C   UNL     1       2.223   7.873  18.656  0.00  0.00    +0.000 A 
ATOM     17  C   UNL     1       1.892   7.879  20.018  0.00  0.00    +0.000 A 
ATOM     18  C   UNL     1       1.018   8.842  20.512  0.00  0.00    +0.000 A 
ATOM     19  F   UNL     1       0.725   8.837  21.822  0.00  0.00    +0.000 F 
ENDBRANCH   7  16
ENDBRANCH   1  10
BRANCH   5  20
ATOM     20  C   UNL     1       8.400   8.017  18.688  0.00  0.00    +0.000 C 
BRANCH  20  21
ATOM     21  C   UNL     1       8.237   9.281  17.841  0.00  0.00    +0.000 C 
BRANCH  21  22
ATOM     22  C   UNL     1       8.911  10.476  18.464  0.00  0.00    +0.000 A 
ATOM     23  C   UNL     1       8.904  11.714  17.807  0.00  0.00    +0.000 A 
ATOM     24  C   UNL     1       9.529  12.820  18.381  0.00  0.00    +0.000 A 
ATOM     25  C   UNL     1      10.167  12.697  19.615  0.00  0.00    +0.000 A 
ATOM     26  C   UNL     1      10.182  11.469  20.273  0.00  0.00    +0.000 A 
ATOM     27  C   UNL     1       9.559  10.360  19.700  0.00  0.00    +0.000 A 
ENDBRANCH  21  22
ENDBRANCH  20  21
ENDBRANCH   5  20
TORSDOF 5
ENDMDL
MODEL 6
REMARK VINA RESULT:      -9.3      1.607      2.307
REMARK  Name = 
REMARK  6 active torsions:
REMARK  status: ('A' for Active; 'I' for Inactive)
REMARK    1  A    between atoms: C_1  and  C_2
REMARK    2  A    between atoms: C_5  and  C_6
REMARK    3  A    between atoms: C_9  and  C_10
REMARK    4  A    between atoms: N_14  and  C_15
REMARK    5  A    between atoms: C_15  and  C_16
REMARK    6  A    between atoms: C_16  and  C_17
REMARK                            x       y       z     vdW  Elec       q    Type
REMARK                         _______ _______ _______ _____ _____    ______ ____
ROOT
ATOM      1  C   UNL     1       7.447   5.449  18.532  0.00  0.00    +0.000 C 
ATOM      2  C   UNL     1       7.423   4.662  17.227  0.00  0.00    +0.000 C 
ATOM      3  C   UNL     1       6.004   4.850  16.745  0.00  0.00    +0.000 C 
ATOM      4  O   UNL     1       5.646   4.678  15.595  0.00  0.00    +0.000 OA
ATOM      5  N   UNL     1       5.220   5.152  17.850  0.00  0.00    +0.000 N 
ATOM      6  C   UNL     1       6.018   5.318  19.043  0.00  0.00    +0.000 C 
ENDROOT
BRANCH   1  10
ATOM      7  C   UNL     1       8.420   8.871  18.289  0.00  0.00    +0.000 A 
ATOM      8  N   UNL     1       7.617   8.791  17.213  0.00  0.00    +0.000 NA
ATOM      9  O   UNL     1       7.208   7.462  17.199  0.00  0.00    +0.000 OA
ATOM     10  C   UNL     1       7.806   6.868  18.268  0.00  0.00    +0.000 A 
ATOM     11  N   UNL     1       8.572   7.677  18.955  0.00  0.00    +0.000 NA
BRANCH   7  16
ATOM     12  C   UNL     1      11.035  13.704  20.040  0.00  0.00    +0.000 C 
ATOM     13  C   UNL     1      10.345  12.451  19.603  0.00  0.00    +0.000 A 
ATOM     14  C   UNL     1       9.938  11.487  20.529  0.00  0.00    +0.000 A 
ATOM     15  C   UNL     1       9.302  10.320  20.099  0.00  0.00    +0.000 A 
ATOM     16  C   UNL     1       9.067  10.095  18.736  0.00  0.00    +0.000 A 
ATOM     17  C   UNL     1       9.470  11.063  17.807  0.00  0.00    +0.000 A 
ATOM     18  C   UNL     1      10.096  12.224  18.247  0.00  0.00    +0.000 A 
ATOM     19  F   UNL     1      10.463  13.145  17.341  0.00  0.00    +0.000 F 
ENDBRANCH   7  16
ENDBRANCH   1  10
BRANCH   5  20
ATOM     20  C   UNL     1       3.784   5.414  17.856  0.00  0.00    +0.000 C 
BRANCH  20  21
ATOM     21  C   UNL     1       3.226   5.842  19.216  0.00  0.00    +0.000 C 
BRANCH  21  22
ATOM     22  C   UNL     1       2.494   7.157  19.144  0.00  0.00    +0.000 A 
ATOM     23  C   UNL     1       2.478   7.894  17.952  0.00  0.00    +0.000 A 
ATOM     24  C   UNL     1       1.802   9.112  17.886  0.00  0.00    +0.000 A 
ATOM     25  C   UNL     1       1.140   9.604  19.010  0.00  0.00    +0.000 A 
ATOM     26  C   UNL     1       1.156   8.880  20.201  0.00  0.00    +0.000 A 
ATOM     27  C   UNL     1       1.832   7.662  20.271  0.00  0.00    +0.000 A 
ENDBRANCH  21  22
ENDBRANCH  20  21
ENDBRANCH   5  20
TORSDOF 5
ENDMDL
MODEL 7
REMARK VINA RESULT:      -9.1      1.811      2.645
REMARK  Name = 
REMARK  6 active torsions:
REMARK  status: ('A' for Active; 'I' for Inactive)
REMARK    1  A    between atoms: C_1  and  C_2
REMARK    2  A    between atoms: C_5  and  C_6
REMARK    3  A    between atoms: C_9  and  C_10
REMARK    4  A    between atoms: N_14  and  C_15
REMARK    5  A    between atoms: C_15  and  C_16
REMARK    6  A    between atoms: C_16  and  C_17
REMARK                            x       y       z     vdW  Elec       q    Type
REMARK                         _______ _______ _______ _____ _____    ______ ____
ROOT
ATOM      1  C   UNL     1       7.606   5.470  18.644  0.00  0.00    +0.000 C 
ATOM      2  C   UNL     1       7.473   4.637  17.374  0.00  0.00    +0.000 C 
ATOM      3  C   UNL     1       6.006   4.763  17.039  0.00  0.00    +0.000 C 
ATOM      4  O   UNL     1       5.536   4.540  15.941  0.00  0.00    +0.000 OA
ATOM      5  N   UNL     1       5.332   5.079  18.212  0.00  0.00    +0.000 N 
ATOM      6  C   UNL     1       6.245   5.312  19.308  0.00  0.00    +0.000 C 
ENDROOT
BRANCH   1  10
ATOM      7  C   UNL     1       8.379   8.924  18.205  0.00  0.00    +0.000 A 
ATOM      8  N   UNL     1       7.604   8.729  17.123  0.00  0.00    +0.000 NA
ATOM      9  O   UNL     1       7.274   7.380  17.185  0.00  0.00    +0.000 OA
ATOM     10  C   UNL     1       7.886   6.889  18.298  0.00  0.00    +0.000 A 
ATOM     11  N   UNL     1       8.588   7.784  18.946  0.00  0.00    +0.000 NA
BRANCH   7  16
ATOM     12  C   UNL     1      10.565  14.032  19.749  0.00  0.00    +0.000 C 
ATOM     13  C   UNL     1      10.005  12.710  19.329  0.00  0.00    +0.000 A 
ATOM     14  C   UNL     1       9.513  12.509  18.037  0.00  0.00    +0.000 A 
ATOM     15  C   UNL     1       8.988  11.268  17.668  0.00  0.00    +0.000 A 
ATOM     16  C   UNL     1       8.942  10.210  18.585  0.00  0.00    +0.000 A 
ATOM     17  C   UNL     1       9.441  10.408  19.880  0.00  0.00    +0.000 A 
ATOM     18  C   UNL     1       9.967  11.646  20.234  0.00  0.00    +0.000 A 
ATOM     19  F   UNL     1      10.452  11.812  21.475  0.00  0.00    +0.000 F 
ENDBRANCH   7  16
ENDBRANCH   1  10
BRANCH   5  20
ATOM     20  C   UNL     1       3.896   5.296  18.362  0.00  0.00    +0.000 C 
BRANCH  20  21
ATOM     21  C   UNL     1       3.356   6.501  17.589  0.00  0.00    +0.000 C 
BRANCH  21  22
ATOM     22  C   UNL     1       2.549   7.426  18.463  0.00  0.00    +0.000 A 
ATOM     23  C   UNL     1       2.295   7.092  19.800  0.00  0.00    +0.000 A 
ATOM     24  C   UNL     1       1.548   7.947  20.610  0.00  0.00    +0.000 A 
ATOM     25  C   UNL     1       1.048   9.140  20.090  0.00  0.00    +0.000 A 
ATOM     26  C   UNL     1       1.293   9.477  18.760  0.00  0.00    +0.000 A 
ATOM     27  C   UNL     1       2.038   8.624  17.947  0.00  0.00    +0.000 A 
ENDBRANCH  21  22
ENDBRANCH  20  21
ENDBRANCH   5  20
TORSDOF 5
ENDMDL
MODEL 8
REMARK VINA RESULT:      -9.1      1.677      2.366
REMARK  Name = 
REMARK  6 active torsions:
REMARK  status: ('A' for Active; 'I' for Inactive)
REMARK    1  A    between atoms: C_1  and  C_2
REMARK    2  A    between atoms: C_5  and  C_6
REMARK    3  A    between atoms: C_9  and  C_10
REMARK    4  A    between atoms: N_14  and  C_15
REMARK    5  A    between atoms: C_15  and  C_16
REMARK    6  A    between atoms: C_16  and  C_17
REMARK                            x       y       z     vdW  Elec       q    Type
REMARK                         _______ _______ _______ _____ _____    ______ ____
ROOT
ATOM      1  C   UNL     1       7.390   5.531  18.507  0.00  0.00    +0.000 C 
ATOM      2  C   UNL     1       7.318   4.764  17.192  0.00  0.00    +0.000 C 
ATOM      3  C   UNL     1       5.898   5.004  16.738  0.00  0.00    +0.000 C 
ATOM      4  O   UNL     1       5.515   4.860  15.592  0.00  0.00    +0.000 OA
ATOM      5  N   UNL     1       5.143   5.315  17.861  0.00  0.00    +0.000 N 
ATOM      6  C   UNL     1       5.967   5.438  19.042  0.00  0.00    +0.000 C 
ENDROOT
BRANCH   1  10
ATOM      7  C   UNL     1       8.460   8.926  18.297  0.00  0.00    +0.000 A 
ATOM      8  N   UNL     1       7.657   8.878  17.219  0.00  0.00    +0.000 NA
ATOM      9  O   UNL     1       7.210   7.562  17.193  0.00  0.00    +0.000 OA
ATOM     10  C   UNL     1       7.790   6.941  18.256  0.00  0.00    +0.000 A 
ATOM     11  N   UNL     1       8.578   7.722  18.952  0.00  0.00    +0.000 NA
BRANCH   7  16
ATOM     12  C   UNL     1      11.211  13.664  20.099  0.00  0.00    +0.000 C 
ATOM     13  C   UNL     1      10.485  12.436  19.648  0.00  0.00    +0.000 A 
ATOM     14  C   UNL     1       9.971  11.519  20.569  0.00  0.00    +0.000 A 
ATOM     15  C   UNL     1       9.303  10.375  20.126  0.00  0.00    +0.000 A 
ATOM     16  C   UNL     1       9.141  10.127  18.756  0.00  0.00    +0.000 A 
ATOM     17  C   UNL     1       9.652  11.048  17.832  0.00  0.00    +0.000 A 
ATOM     18  C   UNL     1      10.310  12.187  18.284  0.00  0.00    +0.000 A 
ATOM     19  F   UNL     1      10.779  13.064  17.383  0.00  0.00    +0.000 F 
ENDBRANCH   7  16
ENDBRANCH   1  10
BRANCH   5  20
ATOM     20  C   UNL     1       3.716   5.622  17.896  0.00  0.00    +0.000 C 
BRANCH  20  21
ATOM     21  C   UNL     1       3.365   7.040  17.439  0.00  0.00    +0.000 C 
BRANCH  21  22
ATOM     22  C   UNL     1       2.502   7.765  18.439  0.00  0.00    +0.000 A 
ATOM     23  C   UNL     1       2.334   7.251  19.731  0.00  0.00    +0.000 A 
ATOM     24  C   UNL     1       1.534   7.921  20.657  0.00  0.00    +0.000 A 
ATOM     25  C   UNL     1       0.896   9.107  20.297  0.00  0.00    +0.000 A 
ATOM     26  C   UNL     1       1.055   9.622  19.012  0.00  0.00    +0.000 A 
ATOM     27  C   UNL     1       1.852   8.954  18.084  0.00  0.00    +0.000 A 
ENDBRANCH  21  22
ENDBRANCH  20  21
ENDBRANCH   5  20
TORSDOF 5
ENDMDL
MODEL 9
REMARK VINA RESULT:      -9.0      3.234      7.866
REMARK  Name = 
REMARK  6 active torsions:
REMARK  status: ('A' for Active; 'I' for Inactive)
REMARK    1  A    between atoms: C_1  and  C_2
REMARK    2  A    between atoms: C_5  and  C_6
REMARK    3  A    between atoms: C_9  and  C_10
REMARK    4  A    between atoms: N_14  and  C_15
REMARK    5  A    between atoms: C_15  and  C_16
REMARK    6  A    between atoms: C_16  and  C_17
REMARK                            x       y       z     vdW  Elec       q    Type
REMARK                         _______ _______ _______ _____ _____    ______ ____
ROOT
ATOM      1  C   UNL     1       5.915   5.631  16.679  0.00  0.00    +0.000 C 
ATOM      2  C   UNL     1       6.641   4.607  17.543  0.00  0.00    +0.000 C 
ATOM      3  C   UNL     1       7.422   5.469  18.506  0.00  0.00    +0.000 C 
ATOM      4  O   UNL     1       7.869   5.075  19.566  0.00  0.00    +0.000 OA
ATOM      5  N   UNL     1       7.595   6.713  17.913  0.00  0.00    +0.000 N 
ATOM      6  C   UNL     1       6.873   6.815  16.665  0.00  0.00    +0.000 C 
ENDROOT
BRANCH   1  10
ATOM      7  C   UNL     1       2.975   6.818  18.312  0.00  0.00    +0.000 A 
ATOM      8  N   UNL     1       2.636   5.526  18.153  0.00  0.00    +0.000 NA
ATOM      9  O   UNL     1       3.721   4.975  17.482  0.00  0.00    +0.000 OA
ATOM     10  C   UNL     1       4.610   5.989  17.298  0.00  0.00    +0.000 A 
ATOM     11  N   UNL     1       4.196   7.139  17.767  0.00  0.00    +0.000 NA
BRANCH   7  16
ATOM     12  C   UNL     1      -0.237  10.745  21.054  0.00  0.00    +0.000 C 
ATOM     13  C   UNL     1       0.586   9.711  20.353  0.00  0.00    +0.000 A 
ATOM     14  C   UNL     1       0.964   8.529  20.995  0.00  0.00    +0.000 A 
ATOM     15  C   UNL     1       1.740   7.580  20.324  0.00  0.00    +0.000 A 
ATOM     16  C   UNL     1       2.153   7.799  19.003  0.00  0.00    +0.000 A 
ATOM     17  C   UNL     1       1.769   8.982  18.356  0.00  0.00    +0.000 A 
ATOM     18  C   UNL     1       0.992   9.917  19.032  0.00  0.00    +0.000 A 
ATOM     19  F   UNL     1       0.624  11.037  18.390  0.00  0.00    +0.000 F 
ENDBRANCH   7  16
ENDBRANCH   1  10
BRANCH   5  20
ATOM     20  C   UNL     1       8.292   7.862  18.482  0.00  0.00    +0.000 C 
BRANCH  20  21
ATOM     21  C   UNL     1       8.027   9.184  17.756  0.00  0.00    +0.000 C 
BRANCH  21  22
ATOM     22  C   UNL     1       8.758  10.340  18.389  0.00  0.00    +0.000 A 
ATOM     23  C   UNL     1       8.831  11.575  17.732  0.00  0.00    +0.000 A 
ATOM     24  C   UNL     1       9.509  12.645  18.316  0.00  0.00    +0.000 A 
ATOM     25  C   UNL     1      10.120  12.487  19.560  0.00  0.00    +0.000 A 
ATOM     26  C   UNL     1      10.056  11.260  20.217  0.00  0.00    +0.000 A 
ATOM     27  C   UNL     1       9.380  10.188  19.635  0.00  0.00    +0.000 A 
ENDBRANCH  21  22
ENDBRANCH  20  21
ENDBRANCH   5  20
TORSDOF 5
ENDMDL
