MODEL 1
REMARK VINA RESULT:      -8.2      0.000      0.000
REMARK  Name = 
REMARK  7 active torsions:
REMARK  status: ('A' for Active; 'I' for Inactive)
REMARK    1  A    between atoms: C_1  and  C_2
REMARK    2  A    between atoms: C_2  and  C_3
REMARK    3  A    between atoms: C_2  and  N_4
REMARK    4  A    between atoms: C_10  and  N_11
REMARK    5  A    between atoms: N_11  and  S_12
REMARK    6  A    between atoms: S_12  and  C_15
REMARK    7  A    between atoms: C_20  and  C_21
REMARK                            x       y       z     vdW  Elec       q    Type
REMARK                         _______ _______ _______ _____ _____    ______ ____
ROOT
ATOM      1  N   UNL     1       4.208   2.718  18.335  0.00  0.00    +0.000 N 
ATOM      2  H   UNL     1       4.617   1.789  18.407  0.00  0.00    +0.000 HD
ENDROOT
BRANCH   1   9
ATOM      3  N   UNL     1       5.546   4.855  14.637  0.00  0.00    +0.000 NA
ATOM      4  C   UNL     1       6.157   5.964  15.416  0.00  0.00    +0.000 C 
ATOM      5  C   UNL     1       6.100   5.546  16.848  0.00  0.00    +0.000 A 
ATOM      6  C   UNL     1       6.679   6.136  17.961  0.00  0.00    +0.000 A 
ATOM      7  C   UNL     1       6.448   5.559  19.210  0.00  0.00    +0.000 A 
ATOM      8  C   UNL     1       5.626   4.426  19.333  0.00  0.00    +0.000 A 
ATOM      9  C   UNL     1       5.026   3.862  18.203  0.00  0.00    +0.000 A 
ATOM     10  C   UNL     1       5.293   4.415  16.965  0.00  0.00    +0.000 A 
ATOM     11  C   UNL     1       4.809   4.019  15.612  0.00  0.00    +0.000 C 
BRANCH   3  13
ATOM     12  C   UNL     1       5.943   3.433  12.555  0.00  0.00    +0.000 C 
ATOM     13  C   UNL     1       6.514   4.126  13.798  0.00  0.00    +0.000 C 
ATOM     14  C   UNL     1       7.682   5.039  13.394  0.00  0.00    +0.000 C 
ENDBRANCH   3  13
ENDBRANCH   1   9
BRANCH   1  15
ATOM     15  S   UNL     1       2.541   2.846  18.347  0.00  0.00    +0.000 S 
ATOM     16  O   UNL     1       2.128   2.887  16.958  0.00  0.00    +0.000 OA
ATOM     17  O   UNL     1       1.971   1.896  19.272  0.00  0.00    +0.000 OA
BRANCH  15  18
ATOM     18  C   UNL     1       2.286   4.486  19.007  0.00  0.00    +0.000 A 
ATOM     19  C   UNL     1       2.022   4.628  20.374  0.00  0.00    +0.000 A 
ATOM     20  C   UNL     1       1.864   5.904  20.915  0.00  0.00    +0.000 A 
ATOM     21  C   UNL     1       1.979   7.025  20.096  0.00  0.00    +0.000 A 
ATOM     22  F   UNL     1       1.828   8.231  20.655  0.00  0.00    +0.000 F 
ATOM     23  C   UNL     1       2.251   6.905  18.732  0.00  0.00    +0.000 A 
ATOM     24  C   UNL     1       2.410   5.614  18.185  0.00  0.00    +0.000 A 
BRANCH  23  25
ATOM     25  C   UNL     1       2.382   8.124  17.863  0.00  0.00    +0.000 C 
ATOM     26  F   UNL     1       2.853   9.235  18.491  0.00  0.00    +0.000 F 
ATOM     27  F   UNL     1       3.228   7.910  16.815  0.00  0.00    +0.000 F 
ATOM     28  F   UNL     1       1.194   8.488  17.306  0.00  0.00    +0.000 F 
ENDBRANCH  23  25
ENDBRANCH  15  18
ENDBRANCH   1  15
TORSDOF 5
ENDMDL
MODEL 2
REMARK VINA RESULT:      -7.9      3.946      7.153
REMARK  Name = 
REMARK  7 active torsions:
REMARK  status: ('A' for Active; 'I' for Inactive)
REMARK    1  A    between atoms: C_1  and  C_2
REMARK    2  A    between atoms: C_2  and  C_3
REMARK    3  A    between atoms: C_2  and  N_4
REMARK    4  A    between atoms: C_10  and  N_11
REMARK    5  A    between atoms: N_11  and  S_12
REMARK    6  A    between atoms: S_12  and  C_15
REMARK    7  A    between atoms: C_20  and  C_21
REMARK                            x       y       z     vdW  Elec       q    Type
REMARK                         _______ _______ _______ _____ _____    ______ ____
ROOT
ATOM      1  N   UNL     1       4.683   5.071  16.693  0.00  0.00    +0.000 N 
ATOM      2  H   UNL     1       4.270   4.284  16.197  0.00  0.00    +0.000 HD
ENDROOT
BRANCH   1   9
ATOM      3  N   UNL     1       2.669   4.119  20.576  0.00  0.00    +0.000 NA
ATOM      4  C   UNL     1       2.272   5.535  20.796  0.00  0.00    +0.000 C 
ATOM      5  C   UNL     1       2.615   6.263  19.538  0.00  0.00    +0.000 A 
ATOM      6  C   UNL     1       2.303   7.559  19.159  0.00  0.00    +0.000 A 
ATOM      7  C   UNL     1       2.773   8.018  17.927  0.00  0.00    +0.000 A 
ATOM      8  C   UNL     1       3.563   7.192  17.112  0.00  0.00    +0.000 A 
ATOM      9  C   UNL     1       3.893   5.898  17.524  0.00  0.00    +0.000 A 
ATOM     10  C   UNL     1       3.391   5.437  18.726  0.00  0.00    +0.000 A 
ATOM     11  C   UNL     1       3.566   4.117  19.397  0.00  0.00    +0.000 C 
BRANCH   3  13
ATOM     12  C   UNL     1       1.539   2.212  19.311  0.00  0.00    +0.000 C 
ATOM     13  C   UNL     1       1.522   3.197  20.486  0.00  0.00    +0.000 C 
ATOM     14  C   UNL     1       1.333   2.431  21.804  0.00  0.00    +0.000 C 
ENDBRANCH   3  13
ENDBRANCH   1   9
BRANCH   1  15
ATOM     15  S   UNL     1       6.323   5.337  16.519  0.00  0.00    +0.000 S 
ATOM     16  O   UNL     1       6.522   6.764  16.687  0.00  0.00    +0.000 OA
ATOM     17  O   UNL     1       7.073   4.378  17.295  0.00  0.00    +0.000 OA
BRANCH  15  18
ATOM     18  C   UNL     1       6.590   4.982  14.790  0.00  0.00    +0.000 A 
ATOM     19  C   UNL     1       7.799   5.368  14.201  0.00  0.00    +0.000 A 
ATOM     20  C   UNL     1       8.042   5.059  12.863  0.00  0.00    +0.000 A 
ATOM     21  C   UNL     1       7.087   4.363  12.125  0.00  0.00    +0.000 A 
ATOM     22  F   UNL     1       7.362   4.079  10.847  0.00  0.00    +0.000 F 
ATOM     23  C   UNL     1       5.878   3.961  12.697  0.00  0.00    +0.000 A 
ATOM     24  C   UNL     1       5.632   4.273  14.050  0.00  0.00    +0.000 A 
BRANCH  23  25
ATOM     25  C   UNL     1       4.862   3.201  11.892  0.00  0.00    +0.000 C 
ATOM     26  F   UNL     1       4.465   3.806  10.740  0.00  0.00    +0.000 F 
ATOM     27  F   UNL     1       5.325   1.974  11.521  0.00  0.00    +0.000 F 
ATOM     28  F   UNL     1       3.721   2.964  12.598  0.00  0.00    +0.000 F 
ENDBRANCH  23  25
ENDBRANCH  15  18
ENDBRANCH   1  15
TORSDOF 5
ENDMDL
MODEL 3
REMARK VINA RESULT:      -7.9      3.716      7.144
REMARK  Name = 
REMARK  7 active torsions:
REMARK  status: ('A' for Active; 'I' for Inactive)
REMARK    1  A    between atoms: C_1  and  C_2
REMARK    2  A    between atoms: C_2  and  C_3
REMARK    3  A    between atoms: C_2  and  N_4
REMARK    4  A    between atoms: C_10  and  N_11
REMARK    5  A    between atoms: N_11  and  S_12
REMARK    6  A    between atoms: S_12  and  C_15
REMARK    7  A    between atoms: C_20  and  C_21
REMARK                            x       y       z     vdW  Elec       q    Type
REMARK                         _______ _______ _______ _____ _____    ______ ____
ROOT
ATOM      1  N   UNL     1       2.527   6.315  20.530  0.00  0.00    +0.000 N 
ATOM      2  H   UNL     1       2.900   6.470  21.464  0.00  0.00    +0.000 HD
ENDROOT
BRANCH   1   9
ATOM      3  N   UNL     1       0.894  10.330  21.647  0.00  0.00    +0.000 NA
ATOM      4  C   UNL     1       1.008  10.840  20.255  0.00  0.00    +0.000 C 
ATOM      5  C   UNL     1       1.381   9.666  19.412  0.00  0.00    +0.000 A 
ATOM      6  C   UNL     1       1.449   9.560  18.031  0.00  0.00    +0.000 A 
ATOM      7  C   UNL     1       1.859   8.344  17.482  0.00  0.00    +0.000 A 
ATOM      8  C   UNL     1       2.218   7.270  18.312  0.00  0.00    +0.000 A 
ATOM      9  C   UNL     1       2.172   7.404  19.702  0.00  0.00    +0.000 A 
ATOM     10  C   UNL     1       1.727   8.597  20.238  0.00  0.00    +0.000 A 
ATOM     11  C   UNL     1       1.564   9.010  21.662  0.00  0.00    +0.000 C 
BRANCH   3  13
ATOM     12  C   UNL     1      -0.778   9.375  23.322  0.00  0.00    +0.000 C 
ATOM     13  C   UNL     1      -0.488  10.332  22.160  0.00  0.00    +0.000 C 
ATOM     14  C   UNL     1      -0.927  11.755  22.538  0.00  0.00    +0.000 C 
ENDBRANCH   3  13
ENDBRANCH   1   9
BRANCH   1  15
ATOM     15  S   UNL     1       2.375   4.739  19.994  0.00  0.00    +0.000 S 
ATOM     16  O   UNL     1       2.681   3.893  21.132  0.00  0.00    +0.000 OA
ATOM     17  O   UNL     1       1.151   4.578  19.246  0.00  0.00    +0.000 OA
BRANCH  15  18
ATOM     18  C   UNL     1       3.745   4.585  18.858  0.00  0.00    +0.000 A 
ATOM     19  C   UNL     1       3.506   4.064  17.582  0.00  0.00    +0.000 A 
ATOM     20  C   UNL     1       4.555   3.977  16.667  0.00  0.00    +0.000 A 
ATOM     21  C   UNL     1       5.828   4.419  17.024  0.00  0.00    +0.000 A 
ATOM     22  F   UNL     1       6.804   4.326  16.115  0.00  0.00    +0.000 F 
ATOM     23  C   UNL     1       6.084   4.951  18.289  0.00  0.00    +0.000 A 
ATOM     24  C   UNL     1       5.023   5.038  19.215  0.00  0.00    +0.000 A 
BRANCH  23  25
ATOM     25  C   UNL     1       7.459   5.433  18.657  0.00  0.00    +0.000 C 
ATOM     26  F   UNL     1       7.629   5.753  19.968  0.00  0.00    +0.000 F 
ATOM     27  F   UNL     1       8.413   4.499  18.381  0.00  0.00    +0.000 F 
ATOM     28  F   UNL     1       7.819   6.543  17.955  0.00  0.00    +0.000 F 
ENDBRANCH  23  25
ENDBRANCH  15  18
ENDBRANCH   1  15
TORSDOF 5
ENDMDL
MODEL 4
REMARK VINA RESULT:      -7.7      3.844      6.925
REMARK  Name = 
REMARK  7 active torsions:
REMARK  status: ('A' for Active; 'I' for Inactive)
REMARK    1  A    between atoms: C_1  and  C_2
REMARK    2  A    between atoms: C_2  and  C_3
REMARK    3  A    between atoms: C_2  and  N_4
REMARK    4  A    between atoms: C_10  and  N_11
REMARK    5  A    between atoms: N_11  and  S_12
REMARK    6  A    between atoms: S_12  and  C_15
REMARK    7  A    between atoms: C_20  and  C_21
REMARK                            x       y       z     vdW  Elec       q    Type
REMARK                         _______ _______ _______ _____ _____    ______ ____
ROOT
ATOM      1  N   UNL     1       4.941   5.950  17.395  0.00  0.00    +0.000 N 
ATOM      2  H   UNL     1       5.871   6.355  17.301  0.00  0.00    +0.000 HD
ENDROOT
BRANCH   1   9
ATOM      3  N   UNL     1       2.280   5.092  20.890  0.00  0.00    +0.000 NA
ATOM      4  C   UNL     1       1.635   6.429  20.815  0.00  0.00    +0.000 C 
ATOM      5  C   UNL     1       2.135   7.061  19.558  0.00  0.00    +0.000 A 
ATOM      6  C   UNL     1       1.722   8.230  18.936  0.00  0.00    +0.000 A 
ATOM      7  C   UNL     1       2.380   8.625  17.770  0.00  0.00    +0.000 A 
ATOM      8  C   UNL     1       3.448   7.869  17.261  0.00  0.00    +0.000 A 
ATOM      9  C   UNL     1       3.870   6.709  17.918  0.00  0.00    +0.000 A 
ATOM     10  C   UNL     1       3.188   6.303  19.049  0.00  0.00    +0.000 A 
ATOM     11  C   UNL     1       3.407   5.120  19.930  0.00  0.00    +0.000 C 
BRANCH   3  13
ATOM     12  C   UNL     1       1.154   3.472  19.271  0.00  0.00    +0.000 C 
ATOM     13  C   UNL     1       1.336   3.975  20.708  0.00  0.00    +0.000 C 
ATOM     14  C   UNL     1       1.698   2.799  21.628  0.00  0.00    +0.000 C 
ENDBRANCH   3  13
ENDBRANCH   1   9
BRANCH   1  15
ATOM     15  S   UNL     1       4.714   4.375  16.885  0.00  0.00    +0.000 S 
ATOM     16  O   UNL     1       5.533   3.547  17.749  0.00  0.00    +0.000 OA
ATOM     17  O   UNL     1       3.308   4.105  16.699  0.00  0.00    +0.000 OA
BRANCH  15  18
ATOM     18  C   UNL     1       5.497   4.374  15.279  0.00  0.00    +0.000 A 
ATOM     19  C   UNL     1       6.801   4.867  15.165  0.00  0.00    +0.000 A 
ATOM     20  C   UNL     1       7.444   4.833  13.928  0.00  0.00    +0.000 A 
ATOM     21  C   UNL     1       6.789   4.301  12.819  0.00  0.00    +0.000 A 
ATOM     22  F   UNL     1       7.443   4.279  11.653  0.00  0.00    +0.000 F 
ATOM     23  C   UNL     1       5.492   3.795  12.914  0.00  0.00    +0.000 A 
ATOM     24  C   UNL     1       4.841   3.830  14.166  0.00  0.00    +0.000 A 
BRANCH  23  25
ATOM     25  C   UNL     1       4.802   3.214  11.712  0.00  0.00    +0.000 C 
ATOM     26  F   UNL     1       5.373   2.089  11.204  0.00  0.00    +0.000 F 
ATOM     27  F   UNL     1       3.509   2.878  11.983  0.00  0.00    +0.000 F 
ATOM     28  F   UNL     1       4.742   4.098  10.678  0.00  0.00    +0.000 F 
ENDBRANCH  23  25
ENDBRANCH  15  18
ENDBRANCH   1  15
TORSDOF 5
ENDMDL
MODEL 5
REMARK VINA RESULT:      -7.7      3.872      5.907
REMARK  Name = 
REMARK  7 active torsions:
REMARK  status: ('A' for Active; 'I' for Inactive)
REMARK    1  A    between atoms: C_1  and  C_2
REMARK    2  A    between atoms: C_2  and  C_3
REMARK    3  A    between atoms: C_2  and  N_4
REMARK    4  A    between atoms: C_10  and  N_11
REMARK    5  A    between atoms: N_11  and  S_12
REMARK    6  A    between atoms: S_12  and  C_15
REMARK    7  A    between atoms: C_20  and  C_21
REMARK                            x       y       z     vdW  Elec       q    Type
REMARK                         _______ _______ _______ _____ _____    ______ ____
ROOT
ATOM      1  N   UNL     1       2.300   7.806  18.843  0.00  0.00    +0.000 N 
ATOM      2  H   UNL     1       2.150   7.696  19.844  0.00  0.00    +0.000 HD
ENDROOT
BRANCH   1   9
ATOM      3  N   UNL     1       1.855   3.354  18.724  0.00  0.00    +0.000 NA
ATOM      4  C   UNL     1       2.843   3.216  17.621  0.00  0.00    +0.000 C 
ATOM      5  C   UNL     1       3.448   4.568  17.435  0.00  0.00    +0.000 A 
ATOM      6  C   UNL     1       4.531   4.947  16.656  0.00  0.00    +0.000 A 
ATOM      7  C   UNL     1       4.884   6.297  16.629  0.00  0.00    +0.000 A 
ATOM      8  C   UNL     1       4.142   7.244  17.354  0.00  0.00    +0.000 A 
ATOM      9  C   UNL     1       3.036   6.847  18.111  0.00  0.00    +0.000 A 
ATOM     10  C   UNL     1       2.717   5.504  18.164  0.00  0.00    +0.000 A 
ATOM     11  C   UNL     1       1.617   4.806  18.889  0.00  0.00    +0.000 C 
BRANCH   3  13
ATOM     12  C   UNL     1       3.756   2.514  20.206  0.00  0.00    +0.000 C 
ATOM     13  C   UNL     1       2.249   2.644  19.954  0.00  0.00    +0.000 C 
ATOM     14  C   UNL     1       1.569   3.265  21.184  0.00  0.00    +0.000 C 
ENDBRANCH   3  13
ENDBRANCH   1   9
BRANCH   1  15
ATOM     15  S   UNL     1       1.626   9.136  18.089  0.00  0.00    +0.000 S 
ATOM     16  O   UNL     1       2.727   9.862  17.487  0.00  0.00    +0.000 OA
ATOM     17  O   UNL     1       0.473   8.744  17.314  0.00  0.00    +0.000 OA
BRANCH  15  18
ATOM     18  C   UNL     1       1.060  10.116  19.471  0.00  0.00    +0.000 A 
ATOM     19  C   UNL     1       1.082  11.511  19.362  0.00  0.00    +0.000 A 
ATOM     20  C   UNL     1       0.602  12.291  20.414  0.00  0.00    +0.000 A 
ATOM     21  C   UNL     1       0.097  11.679  21.559  0.00  0.00    +0.000 A 
ATOM     22  F   UNL     1      -0.361  12.462  22.542  0.00  0.00    +0.000 F 
ATOM     23  C   UNL     1       0.058  10.289  21.683  0.00  0.00    +0.000 A 
ATOM     24  C   UNL     1       0.543   9.500  20.619  0.00  0.00    +0.000 A 
BRANCH  23  25
ATOM     25  C   UNL     1      -0.500   9.642  22.920  0.00  0.00    +0.000 C 
ATOM     26  F   UNL     1       0.380   9.506  23.949  0.00  0.00    +0.000 F 
ATOM     27  F   UNL     1      -1.552  10.344  23.428  0.00  0.00    +0.000 F 
ATOM     28  F   UNL     1      -0.978   8.391  22.674  0.00  0.00    +0.000 F 
ENDBRANCH  23  25
ENDBRANCH  15  18
ENDBRANCH   1  15
TORSDOF 5
ENDMDL
MODEL 6
REMARK VINA RESULT:      -7.6      5.790      9.087
REMARK  Name = 
REMARK  7 active torsions:
REMARK  status: ('A' for Active; 'I' for Inactive)
REMARK    1  A    between atoms: C_1  and  C_2
REMARK    2  A    between atoms: C_2  and  C_3
REMARK    3  A    between atoms: C_2  and  N_4
REMARK    4  A    between atoms: C_10  and  N_11
REMARK    5  A    between atoms: N_11  and  S_12
REMARK    6  A    between atoms: S_12  and  C_15
REMARK    7  A    between atoms: C_20  and  C_21
REMARK                            x       y       z     vdW  Elec       q    Type
REMARK                         _______ _______ _______ _____ _____    ______ ____
ROOT
ATOM      1  N   UNL     1       1.024   9.987  20.049  0.00  0.00    +0.000 N 
ATOM      2  H   UNL     1       1.948  10.345  19.817  0.00  0.00    +0.000 HD
ENDROOT
BRANCH   1   9
ATOM      3  N   UNL     1      -1.733  13.203  21.495  0.00  0.00    +0.000 NA
ATOM      4  C   UNL     1      -2.485  13.230  20.212  0.00  0.00    +0.000 C 
ATOM      5  C   UNL     1      -1.976  12.080  19.408  0.00  0.00    +0.000 A 
ATOM      6  C   UNL     1      -2.454  11.561  18.214  0.00  0.00    +0.000 A 
ATOM      7  C   UNL     1      -1.772  10.486  17.642  0.00  0.00    +0.000 A 
ATOM      8  C   UNL     1      -0.618   9.966  18.251  0.00  0.00    +0.000 A 
ATOM      9  C   UNL     1      -0.134  10.522  19.439  0.00  0.00    +0.000 A 
ATOM     10  C   UNL     1      -0.837  11.560  20.020  0.00  0.00    +0.000 A 
ATOM     11  C   UNL     1      -0.564  12.322  21.272  0.00  0.00    +0.000 C 
BRANCH   3  13
ATOM     12  C   UNL     1      -4.076  12.740  22.395  0.00  0.00    +0.000 C 
ATOM     13  C   UNL     1      -2.568  12.848  22.656  0.00  0.00    +0.000 C 
ATOM     14  C   UNL     1      -2.063  11.556  23.317  0.00  0.00    +0.000 C 
ENDBRANCH   3  13
ENDBRANCH   1   9
BRANCH   1  15
ATOM     15  S   UNL     1       0.919   8.733  21.147  0.00  0.00    +0.000 S 
ATOM     16  O   UNL     1       1.843   9.053  22.218  0.00  0.00    +0.000 OA
ATOM     17  O   UNL     1      -0.463   8.416  21.418  0.00  0.00    +0.000 OA
BRANCH  15  18
ATOM     18  C   UNL     1       1.634   7.369  20.243  0.00  0.00    +0.000 A 
ATOM     19  C   UNL     1       2.295   7.632  19.038  0.00  0.00    +0.000 A 
ATOM     20  C   UNL     1       2.897   6.584  18.341  0.00  0.00    +0.000 A 
ATOM     21  C   UNL     1       2.846   5.289  18.852  0.00  0.00    +0.000 A 
ATOM     22  F   UNL     1       3.443   4.314  18.157  0.00  0.00    +0.000 F 
ATOM     23  C   UNL     1       2.200   5.008  20.057  0.00  0.00    +0.000 A 
ATOM     24  C   UNL     1       1.590   6.067  20.762  0.00  0.00    +0.000 A 
BRANCH  23  25
ATOM     25  C   UNL     1       2.162   3.607  20.602  0.00  0.00    +0.000 C 
ATOM     26  F   UNL     1       1.638   3.486  21.851  0.00  0.00    +0.000 F 
ATOM     27  F   UNL     1       1.424   2.777  19.812  0.00  0.00    +0.000 F 
ATOM     28  F   UNL     1       3.402   3.047  20.664  0.00  0.00    +0.000 F 
ENDBRANCH  23  25
ENDBRANCH  15  18
ENDBRANCH   1  15
TORSDOF 5
ENDMDL
MODEL 7
REMARK VINA RESULT:      -7.5      8.018     11.173
REMARK  Name = 
REMARK  7 active torsions:
REMARK  status: ('A' for Active; 'I' for Inactive)
REMARK    1  A    between atoms: C_1  and  C_2
REMARK    2  A    between atoms: C_2  and  C_3
REMARK    3  A    between atoms: C_2  and  N_4
REMARK    4  A    between atoms: C_10  and  N_11
REMARK    5  A    between atoms: N_11  and  S_12
REMARK    6  A    between atoms: S_12  and  C_15
REMARK    7  A    between atoms: C_20  and  C_21
REMARK                            x       y       z     vdW  Elec       q    Type
REMARK                         _______ _______ _______ _____ _____    ______ ____
ROOT
ATOM      1  N   UNL     1      -3.843  11.959  17.552  0.00  0.00    +0.000 N 
ATOM      2  H   UNL     1      -3.707  12.823  17.031  0.00  0.00    +0.000 HD
ENDROOT
BRANCH   1   9
ATOM      3  N   UNL     1      -4.051  13.222  21.841  0.00  0.00    +0.000 NA
ATOM      4  C   UNL     1      -5.497  12.893  21.940  0.00  0.00    +0.000 C 
ATOM      5  C   UNL     1      -5.854  12.203  20.665  0.00  0.00    +0.000 A 
ATOM      6  C   UNL     1      -7.025  11.548  20.316  0.00  0.00    +0.000 A 
ATOM      7  C   UNL     1      -7.121  11.004  19.035  0.00  0.00    +0.000 A 
ATOM      8  C   UNL     1      -6.065  11.142  18.119  0.00  0.00    +0.000 A 
ATOM      9  C   UNL     1      -4.903  11.831  18.478  0.00  0.00    +0.000 A 
ATOM     10  C   UNL     1      -4.800  12.333  19.761  0.00  0.00    +0.000 A 
ATOM     11  C   UNL     1      -3.690  13.086  20.412  0.00  0.00    +0.000 C 
BRANCH   3  13
ATOM     12  C   UNL     1      -1.737  12.866  22.858  0.00  0.00    +0.000 C 
ATOM     13  C   UNL     1      -3.210  12.448  22.772  0.00  0.00    +0.000 C 
ATOM     14  C   UNL     1      -3.828  12.429  24.179  0.00  0.00    +0.000 C 
ENDBRANCH   3  13
ENDBRANCH   1   9
BRANCH   1  15
ATOM     15  S   UNL     1      -2.795  10.691  17.261  0.00  0.00    +0.000 S 
ATOM     16  O   UNL     1      -3.454   9.498  17.755  0.00  0.00    +0.000 OA
ATOM     17  O   UNL     1      -2.283  10.762  15.912  0.00  0.00    +0.000 OA
BRANCH  15  18
ATOM     18  C   UNL     1      -1.450  11.037  18.384  0.00  0.00    +0.000 A 
ATOM     19  C   UNL     1      -0.748  12.239  18.244  0.00  0.00    +0.000 A 
ATOM     20  C   UNL     1       0.277  12.546  19.139  0.00  0.00    +0.000 A 
ATOM     21  C   UNL     1       0.587  11.661  20.170  0.00  0.00    +0.000 A 
ATOM     22  F   UNL     1       1.571  11.996  21.012  0.00  0.00    +0.000 F 
ATOM     23  C   UNL     1      -0.108  10.461  20.332  0.00  0.00    +0.000 A 
ATOM     24  C   UNL     1      -1.144  10.151  19.426  0.00  0.00    +0.000 A 
BRANCH  23  25
ATOM     25  C   UNL     1       0.231   9.521  21.455  0.00  0.00    +0.000 C 
ATOM     26  F   UNL     1      -0.508   8.380  21.497  0.00  0.00    +0.000 F 
ATOM     27  F   UNL     1       1.531   9.115  21.400  0.00  0.00    +0.000 F 
ATOM     28  F   UNL     1       0.080  10.105  22.676  0.00  0.00    +0.000 F 
ENDBRANCH  23  25
ENDBRANCH  15  18
ENDBRANCH   1  15
TORSDOF 5
ENDMDL
MODEL 8
REMARK VINA RESULT:      -7.4      3.792      7.281
REMARK  Name = 
REMARK  7 active torsions:
REMARK  status: ('A' for Active; 'I' for Inactive)
REMARK    1  A    between atoms: C_1  and  C_2
REMARK    2  A    between atoms: C_2  and  C_3
REMARK    3  A    between atoms: C_2  and  N_4
REMARK    4  A    between atoms: C_10  and  N_11
REMARK    5  A    between atoms: N_11  and  S_12
REMARK    6  A    between atoms: S_12  and  C_15
REMARK    7  A    between atoms: C_20  and  C_21
REMARK                            x       y       z     vdW  Elec       q    Type
REMARK                         _______ _______ _______ _____ _____    ______ ____
ROOT
ATOM      1  N   UNL     1       2.628   6.584  20.389  0.00  0.00    +0.000 N 
ATOM      2  H   UNL     1       3.163   6.697  21.247  0.00  0.00    +0.000 HD
ENDROOT
BRANCH   1   9
ATOM      3  N   UNL     1       0.992  10.419  22.018  0.00  0.00    +0.000 NA
ATOM      4  C   UNL     1       0.893  11.031  20.667  0.00  0.00    +0.000 C 
ATOM      5  C   UNL     1       1.197   9.940  19.694  0.00  0.00    +0.000 A 
ATOM      6  C   UNL     1       1.081   9.935  18.312  0.00  0.00    +0.000 A 
ATOM      7  C   UNL     1       1.463   8.785  17.621  0.00  0.00    +0.000 A 
ATOM      8  C   UNL     1       1.978   7.675  18.312  0.00  0.00    +0.000 A 
ATOM      9  C   UNL     1       2.116   7.709  19.702  0.00  0.00    +0.000 A 
ATOM     10  C   UNL     1       1.698   8.836  20.382  0.00  0.00    +0.000 A 
ATOM     11  C   UNL     1       1.714   9.138  21.842  0.00  0.00    +0.000 C 
BRANCH   3  13
ATOM     12  C   UNL     1      -1.394  11.292  22.255  0.00  0.00    +0.000 C 
ATOM     13  C   UNL     1      -0.306  10.312  22.709  0.00  0.00    +0.000 C 
ATOM     14  C   UNL     1      -0.842   8.874  22.643  0.00  0.00    +0.000 C 
ENDBRANCH   3  13
ENDBRANCH   1   9
BRANCH   1  15
ATOM     15  S   UNL     1       2.397   5.037  19.803  0.00  0.00    +0.000 S 
ATOM     16  O   UNL     1       2.558   4.145  20.936  0.00  0.00    +0.000 OA
ATOM     17  O   UNL     1       1.219   4.985  18.969  0.00  0.00    +0.000 OA
BRANCH  15  18
ATOM     18  C   UNL     1       3.826   4.803  18.758  0.00  0.00    +0.000 A 
ATOM     19  C   UNL     1       3.650   4.237  17.491  0.00  0.00    +0.000 A 
ATOM     20  C   UNL     1       4.748   4.088  16.645  0.00  0.00    +0.000 A 
ATOM     21  C   UNL     1       6.009   4.511  17.062  0.00  0.00    +0.000 A 
ATOM     22  F   UNL     1       7.035   4.357  16.217  0.00  0.00    +0.000 F 
ATOM     23  C   UNL     1       6.204   5.086  18.318  0.00  0.00    +0.000 A 
ATOM     24  C   UNL     1       5.093   5.237  19.174  0.00  0.00    +0.000 A 
BRANCH  23  25
ATOM     25  C   UNL     1       7.568   5.548  18.750  0.00  0.00    +0.000 C 
ATOM     26  F   UNL     1       8.009   6.688  18.154  0.00  0.00    +0.000 F 
ATOM     27  F   UNL     1       7.619   5.792  20.090  0.00  0.00    +0.000 F 
ATOM     28  F   UNL     1       8.527   4.611  18.511  0.00  0.00    +0.000 F 
ENDBRANCH  23  25
ENDBRANCH  15  18
ENDBRANCH   1  15
TORSDOF 5
ENDMDL
MODEL 9
REMARK VINA RESULT:      -7.3      3.612      5.403
REMARK  Name = 
REMARK  7 active torsions:
REMARK  status: ('A' for Active; 'I' for Inactive)
REMARK    1  A    between atoms: C_1  and  C_2
REMARK    2  A    between atoms: C_2  and  C_3
REMARK    3  A    between atoms: C_2  and  N_4
REMARK    4  A    between atoms: C_10  and  N_11
REMARK    5  A    between atoms: N_11  and  S_12
REMARK    6  A    between atoms: S_12  and  C_15
REMARK    7  A    between atoms: C_20  and  C_21
REMARK                            x       y       z     vdW  Elec       q    Type
REMARK                         _______ _______ _______ _____ _____    ______ ____
ROOT
ATOM      1  N   UNL     1       3.275   7.590  18.583  0.00  0.00    +0.000 N 
ATOM      2  H   UNL     1       3.727   7.814  19.466  0.00  0.00    +0.000 HD
ENDROOT
BRANCH   1   9
ATOM      3  N   UNL     1       2.158   3.266  18.876  0.00  0.00    +0.000 NA
ATOM      4  C   UNL     1       2.889   2.922  17.628  0.00  0.00    +0.000 C 
ATOM      5  C   UNL     1       3.643   4.150  17.236  0.00  0.00    +0.000 A 
ATOM      6  C   UNL     1       4.603   4.315  16.250  0.00  0.00    +0.000 A 
ATOM      7  C   UNL     1       5.142   5.588  16.060  0.00  0.00    +0.000 A 
ATOM      8  C   UNL     1       4.699   6.674  16.834  0.00  0.00    +0.000 A 
ATOM      9  C   UNL     1       3.709   6.494  17.804  0.00  0.00    +0.000 A 
ATOM     10  C   UNL     1       3.209   5.223  18.012  0.00  0.00    +0.000 A 
ATOM     11  C   UNL     1       2.174   4.743  18.973  0.00  0.00    +0.000 C 
BRANCH   3  13
ATOM     12  C   UNL     1       4.189   2.403  20.158  0.00  0.00    +0.000 C 
ATOM     13  C   UNL     1       2.666   2.559  20.065  0.00  0.00    +0.000 C 
ATOM     14  C   UNL     1       2.132   3.203  21.353  0.00  0.00    +0.000 C 
ENDBRANCH   3  13
ENDBRANCH   1   9
BRANCH   1  15
ATOM     15  S   UNL     1       1.987   8.538  18.096  0.00  0.00    +0.000 S 
ATOM     16  O   UNL     1       2.562   9.730  17.503  0.00  0.00    +0.000 OA
ATOM     17  O   UNL     1       1.015   7.741  17.387  0.00  0.00    +0.000 OA
BRANCH  15  18
ATOM     18  C   UNL     1       1.267   9.037  19.653  0.00  0.00    +0.000 A 
ATOM     19  C   UNL     1       1.432   8.208  20.768  0.00  0.00    +0.000 A 
ATOM     20  C   UNL     1       0.914   8.603  22.001  0.00  0.00    +0.000 A 
ATOM     21  C   UNL     1       0.245   9.820  22.117  0.00  0.00    +0.000 A 
ATOM     22  F   UNL     1      -0.230  10.165  23.319  0.00  0.00    +0.000 F 
ATOM     23  C   UNL     1       0.078  10.665  21.018  0.00  0.00    +0.000 A 
ATOM     24  C   UNL     1       0.601  10.265  19.771  0.00  0.00    +0.000 A 
BRANCH  23  25
ATOM     25  C   UNL     1      -0.636  11.980  21.160  0.00  0.00    +0.000 C 
ATOM     26  F   UNL     1      -0.761  12.698  20.011  0.00  0.00    +0.000 F 
ATOM     27  F   UNL     1      -1.905  11.818  21.631  0.00  0.00    +0.000 F 
ATOM     28  F   UNL     1      -0.018  12.807  22.048  0.00  0.00    +0.000 F 
ENDBRANCH  23  25
ENDBRANCH  15  18
ENDBRANCH   1  15
TORSDOF 5
ENDMDL
