MODEL 1
REMARK VINA RESULT:      -9.5      0.000      0.000
REMARK  Name = 
REMARK  4 active torsions:
REMARK  status: ('A' for Active; 'I' for Inactive)
REMARK    1  A    between atoms: C_2  and  C_3
REMARK    2  A    between atoms: N_20  and  C_21
REMARK    3  A    between atoms: C_21  and  C_22
REMARK    4  A    between atoms: C_22  and  C_23
REMARK                            x       y       z     vdW  Elec       q    Type
REMARK                         _______ _______ _______ _____ _____    ______ ____
ROOT
ATOM      1  O   UNL     1       4.641   5.160  19.688  0.00  0.00    +0.000 OA
ATOM      2  C   UNL     1       4.338   5.888  18.744  0.00  0.00    +0.000 C 
ATOM      3  N   UNL     1       3.281   6.808  18.800  0.00  0.00    +0.000 N 
ATOM      4  C   UNL     1       2.881   7.711  17.689  0.00  0.00    +0.000 C 
ATOM      5  C   UNL     1       2.147   9.019  18.044  0.00  0.00    +0.000 C 
ATOM      6  C   UNL     1       1.509   8.921  19.368  0.00  0.00    +0.000 A 
ATOM      7  C   UNL     1       1.600   7.843  20.215  0.00  0.00    +0.000 A 
ATOM      8  N   UNL     1       0.937   8.104  21.382  0.00  0.00    +0.000 NA
ATOM      9  C   UNL     1       0.451   9.320  21.241  0.00  0.00    +0.000 A 
ATOM     10  N   UNL     1       0.749   9.850  20.015  0.00  0.00    +0.000 N 
ATOM     11  C   UNL     1       2.301   6.577  19.888  0.00  0.00    +0.000 C 
ENDROOT
BRANCH   2  12
ATOM     12  C   UNL     1       5.167   5.759  17.524  0.00  0.00    +0.000 A 
ATOM     13  C   UNL     1       6.410   6.407  17.399  0.00  0.00    +0.000 A 
ATOM     14  N   UNL     1       7.285   6.243  16.374  0.00  0.00    +0.000 NA
ATOM     15  C   UNL     1       6.816   5.456  15.410  0.00  0.00    +0.000 A 
ATOM     16  N   UNL     1       7.480   5.078  14.258  0.00  0.00    +0.000 N 
ATOM     17  C   UNL     1       6.632   4.283  13.485  0.00  0.00    +0.000 A 
ATOM     18  O   UNL     1       6.890   3.780  12.408  0.00  0.00    +0.000 OA
ATOM     19  N   UNL     1       5.425   4.167  14.193  0.00  0.00    +0.000 N 
ATOM     20  C   UNL     1       5.556   4.867  15.386  0.00  0.00    +0.000 A 
ATOM     21  C   UNL     1       4.691   5.009  16.441  0.00  0.00    +0.000 A 
ATOM     22  H   UNL     1       8.423   5.335  14.026  0.00  0.00    +0.000 HD
ATOM     23  H   UNL     1       4.628   3.646  13.863  0.00  0.00    +0.000 HD
ENDBRANCH   2  12
BRANCH  10  24
ATOM     24  C   UNL     1       0.287  11.108  19.463  0.00  0.00    +0.000 C 
BRANCH  24  25
ATOM     25  C   UNL     1      -1.172  11.444  19.738  0.00  0.00    +0.000 C 
BRANCH  25  26
ATOM     26  C   UNL     1      -2.038  11.122  18.542  0.00  0.00    +0.000 A 
ATOM     27  C   UNL     1      -3.331  11.656  18.436  0.00  0.00    +0.000 A 
ATOM     28  C   UNL     1      -4.144  11.328  17.349  0.00  0.00    +0.000 A 
ATOM     29  C   UNL     1      -3.675  10.462  16.362  0.00  0.00    +0.000 A 
ATOM     30  C   UNL     1      -2.391   9.925  16.458  0.00  0.00    +0.000 A 
ATOM     31  C   UNL     1      -1.577  10.252  17.545  0.00  0.00    +0.000 A 
ENDBRANCH  25  26
ENDBRANCH  24  25
ENDBRANCH  10  24
TORSDOF 4
ENDMDL
MODEL 2
REMARK VINA RESULT:      -9.3      0.554      1.051
REMARK  Name = 
REMARK  4 active torsions:
REMARK  status: ('A' for Active; 'I' for Inactive)
REMARK    1  A    between atoms: C_2  and  C_3
REMARK    2  A    between atoms: N_20  and  C_21
REMARK    3  A    between atoms: C_21  and  C_22
REMARK    4  A    between atoms: C_22  and  C_23
REMARK                            x       y       z     vdW  Elec       q    Type
REMARK                         _______ _______ _______ _____ _____    ______ ____
ROOT
ATOM      1  O   UNL     1       5.094   4.867  19.343  0.00  0.00    +0.000 OA
ATOM      2  C   UNL     1       4.680   5.542  18.401  0.00  0.00    +0.000 C 
ATOM      3  N   UNL     1       3.591   6.419  18.513  0.00  0.00    +0.000 N 
ATOM      4  C   UNL     1       3.060   7.258  17.408  0.00  0.00    +0.000 C 
ATOM      5  C   UNL     1       2.299   8.547  17.774  0.00  0.00    +0.000 C 
ATOM      6  C   UNL     1       1.779   8.477  19.150  0.00  0.00    +0.000 A 
ATOM      7  C   UNL     1       1.989   7.439  20.026  0.00  0.00    +0.000 A 
ATOM      8  N   UNL     1       1.414   7.719  21.235  0.00  0.00    +0.000 NA
ATOM      9  C   UNL     1       0.863   8.907  21.091  0.00  0.00    +0.000 A 
ATOM     10  N   UNL     1       1.034   9.398  19.825  0.00  0.00    +0.000 N 
ATOM     11  C   UNL     1       2.716   6.191  19.688  0.00  0.00    +0.000 C 
ENDROOT
BRANCH   2  12
ATOM     12  C   UNL     1       5.410   5.398  17.121  0.00  0.00    +0.000 A 
ATOM     13  C   UNL     1       6.637   6.046  16.889  0.00  0.00    +0.000 A 
ATOM     14  N   UNL     1       7.429   5.869  15.800  0.00  0.00    +0.000 NA
ATOM     15  C   UNL     1       6.886   5.070  14.886  0.00  0.00    +0.000 A 
ATOM     16  N   UNL     1       7.457   4.678  13.690  0.00  0.00    +0.000 N 
ATOM     17  C   UNL     1       6.551   3.872  12.997  0.00  0.00    +0.000 A 
ATOM     18  O   UNL     1       6.724   3.356  11.909  0.00  0.00    +0.000 OA
ATOM     19  N   UNL     1       5.405   3.764  13.800  0.00  0.00    +0.000 N 
ATOM     20  C   UNL     1       5.629   4.480  14.970  0.00  0.00    +0.000 A 
ATOM     21  C   UNL     1       4.850   4.634  16.089  0.00  0.00    +0.000 A 
ATOM     22  H   UNL     1       8.378   4.933  13.380  0.00  0.00    +0.000 HD
ATOM     23  H   UNL     1       4.585   3.238  13.542  0.00  0.00    +0.000 HD
ENDBRANCH   2  12
BRANCH  10  24
ATOM     24  C   UNL     1       0.471  10.612  19.267  0.00  0.00    +0.000 C 
BRANCH  24  25
ATOM     25  C   UNL     1      -0.960  10.920  19.687  0.00  0.00    +0.000 C 
BRANCH  25  26
ATOM     26  C   UNL     1      -1.905  10.806  18.513  0.00  0.00    +0.000 A 
ATOM     27  C   UNL     1      -1.588   9.979  17.424  0.00  0.00    +0.000 A 
ATOM     28  C   UNL     1      -2.445   9.903  16.324  0.00  0.00    +0.000 A 
ATOM     29  C   UNL     1      -3.619  10.653  16.299  0.00  0.00    +0.000 A 
ATOM     30  C   UNL     1      -3.943  11.479  17.376  0.00  0.00    +0.000 A 
ATOM     31  C   UNL     1      -3.087  11.557  18.478  0.00  0.00    +0.000 A 
ENDBRANCH  25  26
ENDBRANCH  24  25
ENDBRANCH  10  24
TORSDOF 4
ENDMDL
MODEL 3
REMARK VINA RESULT:      -8.8      0.974      1.508
REMARK  Name = 
REMARK  4 active torsions:
REMARK  status: ('A' for Active; 'I' for Inactive)
REMARK    1  A    between atoms: C_2  and  C_3
REMARK    2  A    between atoms: N_20  and  C_21
REMARK    3  A    between atoms: C_21  and  C_22
REMARK    4  A    between atoms: C_22  and  C_23
REMARK                            x       y       z     vdW  Elec       q    Type
REMARK                         _______ _______ _______ _____ _____    ______ ____
ROOT
ATOM      1  O   UNL     1       3.761   4.899  20.417  0.00  0.00    +0.000 OA
ATOM      2  C   UNL     1       3.533   5.554  19.401  0.00  0.00    +0.000 C 
ATOM      3  N   UNL     1       2.664   6.654  19.383  0.00  0.00    +0.000 N 
ATOM      4  C   UNL     1       2.361   7.477  18.183  0.00  0.00    +0.000 C 
ATOM      5  C   UNL     1       1.897   8.932  18.397  0.00  0.00    +0.000 C 
ATOM      6  C   UNL     1       1.338   9.110  19.748  0.00  0.00    +0.000 A 
ATOM      7  C   UNL     1       1.289   8.143  20.722  0.00  0.00    +0.000 A 
ATOM      8  N   UNL     1       0.759   8.657  21.872  0.00  0.00    +0.000 NA
ATOM      9  C   UNL     1       0.490   9.918  21.597  0.00  0.00    +0.000 A 
ATOM     10  N   UNL     1       0.799  10.234  20.302  0.00  0.00    +0.000 N 
ATOM     11  C   UNL     1       1.730   6.739  20.530  0.00  0.00    +0.000 C 
ENDROOT
BRANCH   2  12
ATOM     12  C   UNL     1       4.246   5.130  18.174  0.00  0.00    +0.000 A 
ATOM     13  C   UNL     1       3.814   4.034  17.405  0.00  0.00    +0.000 A 
ATOM     14  N   UNL     1       4.332   3.659  16.207  0.00  0.00    +0.000 NA
ATOM     15  C   UNL     1       5.386   4.385  15.845  0.00  0.00    +0.000 A 
ATOM     16  N   UNL     1       6.108   4.263  14.672  0.00  0.00    +0.000 N 
ATOM     17  C   UNL     1       7.161   5.180  14.690  0.00  0.00    +0.000 A 
ATOM     18  O   UNL     1       7.995   5.344  13.819  0.00  0.00    +0.000 OA
ATOM     19  N   UNL     1       7.069   5.883  15.901  0.00  0.00    +0.000 N 
ATOM     20  C   UNL     1       5.961   5.408  16.592  0.00  0.00    +0.000 A 
ATOM     21  C   UNL     1       5.410   5.805  17.785  0.00  0.00    +0.000 A 
ATOM     22  H   UNL     1       5.897   3.620  13.930  0.00  0.00    +0.000 HD
ATOM     23  H   UNL     1       7.709   6.610  16.180  0.00  0.00    +0.000 HD
ENDBRANCH   2  12
BRANCH  10  24
ATOM     24  C   UNL     1       0.535  11.481  19.613  0.00  0.00    +0.000 C 
BRANCH  24  25
ATOM     25  C   UNL     1      -0.872  12.037  19.786  0.00  0.00    +0.000 C 
BRANCH  25  26
ATOM     26  C   UNL     1      -1.812  11.461  18.752  0.00  0.00    +0.000 A 
ATOM     27  C   UNL     1      -3.175  11.797  18.767  0.00  0.00    +0.000 A 
ATOM     28  C   UNL     1      -4.050  11.235  17.834  0.00  0.00    +0.000 A 
ATOM     29  C   UNL     1      -3.575  10.331  16.886  0.00  0.00    +0.000 A 
ATOM     30  C   UNL     1      -2.222   9.990  16.864  0.00  0.00    +0.000 A 
ATOM     31  C   UNL     1      -1.345  10.551  17.795  0.00  0.00    +0.000 A 
ENDBRANCH  25  26
ENDBRANCH  24  25
ENDBRANCH  10  24
TORSDOF 4
ENDMDL
MODEL 4
REMARK VINA RESULT:      -8.6      1.712      2.337
REMARK  Name = 
REMARK  4 active torsions:
REMARK  status: ('A' for Active; 'I' for Inactive)
REMARK    1  A    between atoms: C_2  and  C_3
REMARK    2  A    between atoms: N_20  and  C_21
REMARK    3  A    between atoms: C_21  and  C_22
REMARK    4  A    between atoms: C_22  and  C_23
REMARK                            x       y       z     vdW  Elec       q    Type
REMARK                         _______ _______ _______ _____ _____    ______ ____
ROOT
ATOM      1  O   UNL     1       4.624   4.895  19.585  0.00  0.00    +0.000 OA
ATOM      2  C   UNL     1       4.343   5.688  18.688  0.00  0.00    +0.000 C 
ATOM      3  N   UNL     1       3.308   6.628  18.798  0.00  0.00    +0.000 N 
ATOM      4  C   UNL     1       2.936   7.608  17.744  0.00  0.00    +0.000 C 
ATOM      5  C   UNL     1       2.231   8.909  18.178  0.00  0.00    +0.000 C 
ATOM      6  C   UNL     1       1.584   8.742  19.490  0.00  0.00    +0.000 A 
ATOM      7  C   UNL     1       1.644   7.612  20.268  0.00  0.00    +0.000 A 
ATOM      8  N   UNL     1       0.981   7.814  21.447  0.00  0.00    +0.000 NA
ATOM      9  C   UNL     1       0.525   9.048  21.381  0.00  0.00    +0.000 A 
ATOM     10  N   UNL     1       0.842   9.646  20.191  0.00  0.00    +0.000 N 
ATOM     11  C   UNL     1       2.317   6.352  19.864  0.00  0.00    +0.000 C 
ENDROOT
BRANCH   2  12
ATOM     12  C   UNL     1       5.176   5.616  17.465  0.00  0.00    +0.000 A 
ATOM     13  C   UNL     1       6.406   6.291  17.364  0.00  0.00    +0.000 A 
ATOM     14  N   UNL     1       7.286   6.179  16.336  0.00  0.00    +0.000 NA
ATOM     15  C   UNL     1       6.832   5.417  15.344  0.00  0.00    +0.000 A 
ATOM     16  N   UNL     1       7.504   5.091  14.181  0.00  0.00    +0.000 N 
ATOM     17  C   UNL     1       6.672   4.306  13.380  0.00  0.00    +0.000 A 
ATOM     18  O   UNL     1       6.941   3.845  12.287  0.00  0.00    +0.000 OA
ATOM     19  N   UNL     1       5.467   4.144  14.082  0.00  0.00    +0.000 N 
ATOM     20  C   UNL     1       5.584   4.805  15.298  0.00  0.00    +0.000 A 
ATOM     21  C   UNL     1       4.715   4.895  16.357  0.00  0.00    +0.000 A 
ATOM     22  H   UNL     1       8.442   5.373  13.960  0.00  0.00    +0.000 HD
ATOM     23  H   UNL     1       4.680   3.619  13.734  0.00  0.00    +0.000 HD
ENDBRANCH   2  12
BRANCH  10  24
ATOM     24  C   UNL     1       0.412  10.947  19.718  0.00  0.00    +0.000 C 
BRANCH  24  25
ATOM     25  C   UNL     1       0.411  12.054  20.763  0.00  0.00    +0.000 C 
BRANCH  25  26
ATOM     26  C   UNL     1      -0.981  12.284  21.307  0.00  0.00    +0.000 A 
ATOM     27  C   UNL     1      -1.252  12.091  22.670  0.00  0.00    +0.000 A 
ATOM     28  C   UNL     1      -2.546  12.267  23.164  0.00  0.00    +0.000 A 
ATOM     29  C   UNL     1      -3.580  12.631  22.303  0.00  0.00    +0.000 A 
ATOM     30  C   UNL     1      -3.321  12.823  20.945  0.00  0.00    +0.000 A 
ATOM     31  C   UNL     1      -2.027  12.648  20.449  0.00  0.00    +0.000 A 
ENDBRANCH  25  26
ENDBRANCH  24  25
ENDBRANCH  10  24
TORSDOF 4
ENDMDL
MODEL 5
REMARK VINA RESULT:      -8.6      0.642      1.246
REMARK  Name = 
REMARK  4 active torsions:
REMARK  status: ('A' for Active; 'I' for Inactive)
REMARK    1  A    between atoms: C_2  and  C_3
REMARK    2  A    between atoms: N_20  and  C_21
REMARK    3  A    between atoms: C_21  and  C_22
REMARK    4  A    between atoms: C_22  and  C_23
REMARK                            x       y       z     vdW  Elec       q    Type
REMARK                         _______ _______ _______ _____ _____    ______ ____
ROOT
ATOM      1  O   UNL     1       4.583   5.154  19.735  0.00  0.00    +0.000 OA
ATOM      2  C   UNL     1       4.281   5.890  18.797  0.00  0.00    +0.000 C 
ATOM      3  N   UNL     1       3.224   6.809  18.860  0.00  0.00    +0.000 N 
ATOM      4  C   UNL     1       2.826   7.722  17.756  0.00  0.00    +0.000 C 
ATOM      5  C   UNL     1       2.090   9.026  18.121  0.00  0.00    +0.000 C 
ATOM      6  C   UNL     1       1.448   8.914  19.442  0.00  0.00    +0.000 A 
ATOM      7  C   UNL     1       1.537   7.829  20.280  0.00  0.00    +0.000 A 
ATOM      8  N   UNL     1       0.871   8.077  21.447  0.00  0.00    +0.000 NA
ATOM      9  C   UNL     1       0.384   9.295  21.316  0.00  0.00    +0.000 A 
ATOM     10  N   UNL     1       0.685   9.836  20.096  0.00  0.00    +0.000 N 
ATOM     11  C   UNL     1       2.241   6.566  19.942  0.00  0.00    +0.000 C 
ENDROOT
BRANCH   2  12
ATOM     12  C   UNL     1       5.115   5.774  17.579  0.00  0.00    +0.000 A 
ATOM     13  C   UNL     1       6.337   6.457  17.447  0.00  0.00    +0.000 A 
ATOM     14  N   UNL     1       7.217   6.309  16.424  0.00  0.00    +0.000 NA
ATOM     15  C   UNL     1       6.772   5.499  15.467  0.00  0.00    +0.000 A 
ATOM     16  N   UNL     1       7.447   5.129  14.319  0.00  0.00    +0.000 N 
ATOM     17  C   UNL     1       6.622   4.302  13.554  0.00  0.00    +0.000 A 
ATOM     18  O   UNL     1       6.896   3.796  12.481  0.00  0.00    +0.000 OA
ATOM     19  N   UNL     1       5.419   4.158  14.263  0.00  0.00    +0.000 N 
ATOM     20  C   UNL     1       5.530   4.873  15.449  0.00  0.00    +0.000 A 
ATOM     21  C   UNL     1       4.660   5.000  16.504  0.00  0.00    +0.000 A 
ATOM     22  H   UNL     1       8.382   5.412  14.084  0.00  0.00    +0.000 HD
ATOM     23  H   UNL     1       4.638   3.610  13.939  0.00  0.00    +0.000 HD
ENDBRANCH   2  12
BRANCH  10  24
ATOM     24  C   UNL     1       0.223  11.099  19.555  0.00  0.00    +0.000 C 
BRANCH  24  25
ATOM     25  C   UNL     1      -0.631  10.997  18.298  0.00  0.00    +0.000 C 
BRANCH  25  26
ATOM     26  C   UNL     1      -2.074  11.332  18.596  0.00  0.00    +0.000 A 
ATOM     27  C   UNL     1      -3.107  10.760  17.838  0.00  0.00    +0.000 A 
ATOM     28  C   UNL     1      -4.439  11.099  18.089  0.00  0.00    +0.000 A 
ATOM     29  C   UNL     1      -4.749  12.014  19.093  0.00  0.00    +0.000 A 
ATOM     30  C   UNL     1      -3.729  12.591  19.851  0.00  0.00    +0.000 A 
ATOM     31  C   UNL     1      -2.397  12.252  19.602  0.00  0.00    +0.000 A 
ENDBRANCH  25  26
ENDBRANCH  24  25
ENDBRANCH  10  24
TORSDOF 4
ENDMDL
MODEL 6
REMARK VINA RESULT:      -8.6      0.801      1.592
REMARK  Name = 
REMARK  4 active torsions:
REMARK  status: ('A' for Active; 'I' for Inactive)
REMARK    1  A    between atoms: C_2  and  C_3
REMARK    2  A    between atoms: N_20  and  C_21
REMARK    3  A    between atoms: C_21  and  C_22
REMARK    4  A    between atoms: C_22  and  C_23
REMARK                            x       y       z     vdW  Elec       q    Type
REMARK                         _______ _______ _______ _____ _____    ______ ____
ROOT
ATOM      1  O   UNL     1       4.840   5.197  19.926  0.00  0.00    +0.000 OA
ATOM      2  C   UNL     1       4.319   5.648  18.908  0.00  0.00    +0.000 C 
ATOM      3  N   UNL     1       3.236   6.539  18.937  0.00  0.00    +0.000 N 
ATOM      4  C   UNL     1       2.578   7.115  17.735  0.00  0.00    +0.000 C 
ATOM      5  C   UNL     1       1.843   8.462  17.883  0.00  0.00    +0.000 C 
ATOM      6  C   UNL     1       1.474   8.707  19.288  0.00  0.00    +0.000 A 
ATOM      7  C   UNL     1       1.791   7.890  20.346  0.00  0.00    +0.000 A 
ATOM      8  N   UNL     1       1.345   8.439  21.516  0.00  0.00    +0.000 NA
ATOM      9  C   UNL     1       0.765   9.571  21.170  0.00  0.00    +0.000 A 
ATOM     10  N   UNL     1       0.793   9.764  19.815  0.00  0.00    +0.000 N 
ATOM     11  C   UNL     1       2.495   6.590  20.219  0.00  0.00    +0.000 C 
ENDROOT
BRANCH   2  12
ATOM     12  C   UNL     1       4.910   5.214  17.621  0.00  0.00    +0.000 A 
ATOM     13  C   UNL     1       4.390   4.128  16.894  0.00  0.00    +0.000 A 
ATOM     14  N   UNL     1       4.790   3.745  15.654  0.00  0.00    +0.000 NA
ATOM     15  C   UNL     1       5.819   4.453  15.197  0.00  0.00    +0.000 A 
ATOM     16  N   UNL     1       6.429   4.320  13.964  0.00  0.00    +0.000 N 
ATOM     17  C   UNL     1       7.496   5.218  13.886  0.00  0.00    +0.000 A 
ATOM     18  O   UNL     1       8.250   5.368  12.943  0.00  0.00    +0.000 OA
ATOM     19  N   UNL     1       7.527   5.920  15.101  0.00  0.00    +0.000 N 
ATOM     20  C   UNL     1       6.478   5.464  15.889  0.00  0.00    +0.000 A 
ATOM     21  C   UNL     1       6.045   5.869  17.128  0.00  0.00    +0.000 A 
ATOM     22  H   UNL     1       6.140   3.682  13.244  0.00  0.00    +0.000 HD
ATOM     23  H   UNL     1       8.203   6.634  15.320  0.00  0.00    +0.000 HD
ENDBRANCH   2  12
BRANCH  10  24
ATOM     24  C   UNL     1       0.157  10.828  19.064  0.00  0.00    +0.000 C 
BRANCH  24  25
ATOM     25  C   UNL     1      -1.321  11.041  19.360  0.00  0.00    +0.000 C 
BRANCH  25  26
ATOM     26  C   UNL     1      -2.160  10.805  18.125  0.00  0.00    +0.000 A 
ATOM     27  C   UNL     1      -1.749   9.879  17.153  0.00  0.00    +0.000 A 
ATOM     28  C   UNL     1      -2.506   9.689  15.995  0.00  0.00    +0.000 A 
ATOM     29  C   UNL     1      -3.673  10.423  15.794  0.00  0.00    +0.000 A 
ATOM     30  C   UNL     1      -4.090  11.347  16.753  0.00  0.00    +0.000 A 
ATOM     31  C   UNL     1      -3.334  11.539  17.913  0.00  0.00    +0.000 A 
ENDBRANCH  25  26
ENDBRANCH  24  25
ENDBRANCH  10  24
TORSDOF 4
ENDMDL
MODEL 7
REMARK VINA RESULT:      -8.5      1.965      3.250
REMARK  Name = 
REMARK  4 active torsions:
REMARK  status: ('A' for Active; 'I' for Inactive)
REMARK    1  A    between atoms: C_2  and  C_3
REMARK    2  A    between atoms: N_20  and  C_21
REMARK    3  A    between atoms: C_21  and  C_22
REMARK    4  A    between atoms: C_22  and  C_23
REMARK                            x       y       z     vdW  Elec       q    Type
REMARK                         _______ _______ _______ _____ _____    ______ ____
ROOT
ATOM      1  O   UNL     1       4.790   4.863  19.453  0.00  0.00    +0.000 OA
ATOM      2  C   UNL     1       4.473   5.648  18.560  0.00  0.00    +0.000 C 
ATOM      3  N   UNL     1       3.420   6.564  18.689  0.00  0.00    +0.000 N 
ATOM      4  C   UNL     1       3.005   7.534  17.642  0.00  0.00    +0.000 C 
ATOM      5  C   UNL     1       2.280   8.819  18.087  0.00  0.00    +0.000 C 
ATOM      6  C   UNL     1       1.663   8.641  19.413  0.00  0.00    +0.000 A 
ATOM      7  C   UNL     1       1.765   7.514  20.191  0.00  0.00    +0.000 A 
ATOM      8  N   UNL     1       1.121   7.704  21.383  0.00  0.00    +0.000 NA
ATOM      9  C   UNL     1       0.636   8.928  21.324  0.00  0.00    +0.000 A 
ATOM     10  N   UNL     1       0.916   9.530  20.127  0.00  0.00    +0.000 N 
ATOM     11  C   UNL     1       2.457   6.269  19.776  0.00  0.00    +0.000 C 
ENDROOT
BRANCH   2  12
ATOM     12  C   UNL     1       5.283   5.592  17.321  0.00  0.00    +0.000 A 
ATOM     13  C   UNL     1       6.476   6.323  17.180  0.00  0.00    +0.000 A 
ATOM     14  N   UNL     1       7.338   6.232  16.135  0.00  0.00    +0.000 NA
ATOM     15  C   UNL     1       6.902   5.430  15.168  0.00  0.00    +0.000 A 
ATOM     16  N   UNL     1       7.564   5.114  13.997  0.00  0.00    +0.000 N 
ATOM     17  C   UNL     1       6.753   4.275  13.229  0.00  0.00    +0.000 A 
ATOM     18  O   UNL     1       7.021   3.806  12.139  0.00  0.00    +0.000 OA
ATOM     19  N   UNL     1       5.573   4.068  13.960  0.00  0.00    +0.000 N 
ATOM     20  C   UNL     1       5.683   4.759  15.161  0.00  0.00    +0.000 A 
ATOM     21  C   UNL     1       4.833   4.827  16.237  0.00  0.00    +0.000 A 
ATOM     22  H   UNL     1       8.482   5.436  13.749  0.00  0.00    +0.000 HD
ATOM     23  H   UNL     1       4.805   3.500  13.639  0.00  0.00    +0.000 HD
ENDBRANCH   2  12
BRANCH  10  24
ATOM     24  C   UNL     1       0.448  10.820  19.660  0.00  0.00    +0.000 C 
BRANCH  24  25
ATOM     25  C   UNL     1       0.767  11.998  20.570  0.00  0.00    +0.000 C 
BRANCH  25  26
ATOM     26  C   UNL     1       1.827  12.884  19.957  0.00  0.00    +0.000 A 
ATOM     27  C   UNL     1       2.131  12.786  18.590  0.00  0.00    +0.000 A 
ATOM     28  C   UNL     1       3.137  13.578  18.033  0.00  0.00    +0.000 A 
ATOM     29  C   UNL     1       3.850  14.469  18.833  0.00  0.00    +0.000 A 
ATOM     30  C   UNL     1       3.556  14.573  20.194  0.00  0.00    +0.000 A 
ATOM     31  C   UNL     1       2.550  13.781  20.753  0.00  0.00    +0.000 A 
ENDBRANCH  25  26
ENDBRANCH  24  25
ENDBRANCH  10  24
TORSDOF 4
ENDMDL
MODEL 8
REMARK VINA RESULT:      -8.4      3.563      9.086
REMARK  Name = 
REMARK  4 active torsions:
REMARK  status: ('A' for Active; 'I' for Inactive)
REMARK    1  A    between atoms: C_2  and  C_3
REMARK    2  A    between atoms: N_20  and  C_21
REMARK    3  A    between atoms: C_21  and  C_22
REMARK    4  A    between atoms: C_22  and  C_23
REMARK                            x       y       z     vdW  Elec       q    Type
REMARK                         _______ _______ _______ _____ _____    ______ ____
ROOT
ATOM      1  O   UNL     1      -0.238   9.082  21.395  0.00  0.00    +0.000 OA
ATOM      2  C   UNL     1       0.416   9.358  20.390  0.00  0.00    +0.000 C 
ATOM      3  N   UNL     1       1.358   8.483  19.830  0.00  0.00    +0.000 N 
ATOM      4  C   UNL     1       2.166   8.769  18.617  0.00  0.00    +0.000 C 
ATOM      5  C   UNL     1       2.692   7.575  17.794  0.00  0.00    +0.000 C 
ATOM      6  C   UNL     1       2.745   6.355  18.617  0.00  0.00    +0.000 A 
ATOM      7  C   UNL     1       2.326   6.257  19.921  0.00  0.00    +0.000 A 
ATOM      8  N   UNL     1       2.464   4.971  20.366  0.00  0.00    +0.000 NA
ATOM      9  C   UNL     1       2.961   4.302  19.345  0.00  0.00    +0.000 A 
ATOM     10  N   UNL     1       3.178   5.111  18.263  0.00  0.00    +0.000 N 
ATOM     11  C   UNL     1       1.820   7.396  20.726  0.00  0.00    +0.000 C 
ENDROOT
BRANCH   2  12
ATOM     12  C   UNL     1       0.146  10.677  19.774  0.00  0.00    +0.000 A 
ATOM     13  C   UNL     1      -0.864  10.855  18.811  0.00  0.00    +0.000 A 
ATOM     14  N   UNL     1      -1.258  12.046  18.292  0.00  0.00    +0.000 NA
ATOM     15  C   UNL     1      -0.521  13.068  18.717  0.00  0.00    +0.000 A 
ATOM     16  N   UNL     1      -0.693  14.401  18.392  0.00  0.00    +0.000 N 
ATOM     17  C   UNL     1       0.309  15.152  19.008  0.00  0.00    +0.000 A 
ATOM     18  O   UNL     1       0.461  16.357  18.936  0.00  0.00    +0.000 OA
ATOM     19  N   UNL     1       1.104  14.252  19.735  0.00  0.00    +0.000 N 
ATOM     20  C   UNL     1       0.572  12.979  19.573  0.00  0.00    +0.000 A 
ATOM     21  C   UNL     1       0.943  11.776  20.121  0.00  0.00    +0.000 A 
ATOM     22  H   UNL     1      -1.428  14.761  17.810  0.00  0.00    +0.000 HD
ATOM     23  H   UNL     1       1.908  14.524  20.278  0.00  0.00    +0.000 HD
ENDBRANCH   2  12
BRANCH  10  24
ATOM     24  C   UNL     1       3.818   4.755  17.012  0.00  0.00    +0.000 C 
BRANCH  24  25
ATOM     25  C   UNL     1       5.215   4.162  17.140  0.00  0.00    +0.000 C 
BRANCH  25  26
ATOM     26  C   UNL     1       6.212   5.214  17.569  0.00  0.00    +0.000 A 
ATOM     27  C   UNL     1       7.042   4.994  18.679  0.00  0.00    +0.000 A 
ATOM     28  C   UNL     1       7.937   5.981  19.098  0.00  0.00    +0.000 A 
ATOM     29  C   UNL     1       8.007   7.195  18.417  0.00  0.00    +0.000 A 
ATOM     30  C   UNL     1       7.185   7.424  17.313  0.00  0.00    +0.000 A 
ATOM     31  C   UNL     1       6.290   6.438  16.892  0.00  0.00    +0.000 A 
ENDBRANCH  25  26
ENDBRANCH  24  25
ENDBRANCH  10  24
TORSDOF 4
ENDMDL
MODEL 9
REMARK VINA RESULT:      -8.2      1.222      2.067
REMARK  Name = 
REMARK  4 active torsions:
REMARK  status: ('A' for Active; 'I' for Inactive)
REMARK    1  A    between atoms: C_2  and  C_3
REMARK    2  A    between atoms: N_20  and  C_21
REMARK    3  A    between atoms: C_21  and  C_22
REMARK    4  A    between atoms: C_22  and  C_23
REMARK                            x       y       z     vdW  Elec       q    Type
REMARK                         _______ _______ _______ _____ _____    ______ ____
ROOT
ATOM      1  O   UNL     1       3.867   5.090  20.414  0.00  0.00    +0.000 OA
ATOM      2  C   UNL     1       3.596   5.697  19.379  0.00  0.00    +0.000 C 
ATOM      3  N   UNL     1       2.687   6.764  19.337  0.00  0.00    +0.000 N 
ATOM      4  C   UNL     1       2.332   7.530  18.113  0.00  0.00    +0.000 C 
ATOM      5  C   UNL     1       1.819   8.973  18.282  0.00  0.00    +0.000 C 
ATOM      6  C   UNL     1       1.279   9.183  19.636  0.00  0.00    +0.000 A 
ATOM      7  C   UNL     1       1.283   8.252  20.646  0.00  0.00    +0.000 A 
ATOM      8  N   UNL     1       0.756   8.790  21.787  0.00  0.00    +0.000 NA
ATOM      9  C   UNL     1       0.435  10.029  21.470  0.00  0.00    +0.000 A 
ATOM     10  N   UNL     1       0.709  10.306  20.158  0.00  0.00    +0.000 N 
ATOM     11  C   UNL     1       1.771   6.858  20.499  0.00  0.00    +0.000 C 
ENDROOT
BRANCH   2  12
ATOM     12  C   UNL     1       4.302   5.253  18.155  0.00  0.00    +0.000 A 
ATOM     13  C   UNL     1       3.855   4.156  17.396  0.00  0.00    +0.000 A 
ATOM     14  N   UNL     1       4.366   3.763  16.201  0.00  0.00    +0.000 NA
ATOM     15  C   UNL     1       5.429   4.472  15.831  0.00  0.00    +0.000 A 
ATOM     16  N   UNL     1       6.147   4.331  14.658  0.00  0.00    +0.000 N 
ATOM     17  C   UNL     1       7.211   5.235  14.666  0.00  0.00    +0.000 A 
ATOM     18  O   UNL     1       8.046   5.380  13.792  0.00  0.00    +0.000 OA
ATOM     19  N   UNL     1       7.130   5.950  15.871  0.00  0.00    +0.000 N 
ATOM     20  C   UNL     1       6.017   5.495  16.567  0.00  0.00    +0.000 A 
ATOM     21  C   UNL     1       5.473   5.910  17.758  0.00  0.00    +0.000 A 
ATOM     22  H   UNL     1       5.927   3.683  13.923  0.00  0.00    +0.000 HD
ATOM     23  H   UNL     1       7.780   6.671  16.142  0.00  0.00    +0.000 HD
ENDBRANCH   2  12
BRANCH  10  24
ATOM     24  C   UNL     1       0.386  11.517  19.428  0.00  0.00    +0.000 C 
BRANCH  24  25
ATOM     25  C   UNL     1      -0.731  11.382  18.403  0.00  0.00    +0.000 C 
BRANCH  25  26
ATOM     26  C   UNL     1      -2.048  11.858  18.971  0.00  0.00    +0.000 A 
ATOM     27  C   UNL     1      -2.081  12.601  20.161  0.00  0.00    +0.000 A 
ATOM     28  C   UNL     1      -3.301  13.009  20.706  0.00  0.00    +0.000 A 
ATOM     29  C   UNL     1      -4.496  12.674  20.071  0.00  0.00    +0.000 A 
ATOM     30  C   UNL     1      -4.475  11.935  18.888  0.00  0.00    +0.000 A 
ATOM     31  C   UNL     1      -3.255  11.526  18.342  0.00  0.00    +0.000 A 
ENDBRANCH  25  26
ENDBRANCH  24  25
ENDBRANCH  10  24
TORSDOF 4
ENDMDL
