MODEL 1
REMARK VINA RESULT:      -9.0      0.000      0.000
REMARK  Name = 
REMARK  6 active torsions:
REMARK  status: ('A' for Active; 'I' for Inactive)
REMARK    1  A    between atoms: C_1  and  C_2
REMARK    2  A    between atoms: C_4  and  C_5
REMARK    3  A    between atoms: C_8  and  C_9
REMARK    4  A    between atoms: C_11  and  C_12
REMARK    5  A    between atoms: C_11  and  C_13
REMARK    6  A    between atoms: C_23  and  N_24
REMARK                            x       y       z     vdW  Elec       q    Type
REMARK                         _______ _______ _______ _____ _____    ______ ____
ROOT
ATOM      1  C   UNL     1       1.497   9.387  18.832  0.00  0.00    +0.000 A 
ATOM      2  N   UNL     1       1.839   9.666  17.564  0.00  0.00    +0.000 NA
ATOM      3  O   UNL     1       2.573   8.542  17.177  0.00  0.00    +0.000 OA
ATOM      4  C   UNL     1       2.588   7.711  18.261  0.00  0.00    +0.000 A 
ATOM      5  N   UNL     1       2.055   8.241  19.334  0.00  0.00    +0.000 NA
ENDROOT
BRANCH   4   6
ATOM      6  C   UNL     1       2.826   6.262  18.019  0.00  0.00    +0.000 C 
ATOM      7  C   UNL     1       2.107   5.400  19.049  0.00  0.00    +0.000 C 
ATOM      8  C   UNL     1       2.644   3.966  18.989  0.00  0.00    +0.000 C 
ATOM      9  C   UNL     1       2.426   3.297  17.617  0.00  0.00    +0.000 C 
ATOM     10  C   UNL     1       1.928   3.127  20.053  0.00  0.00    +0.000 C 
ATOM     11  O   UNL     1       4.044   3.954  19.332  0.00  0.00    +0.000 OA
ATOM     12  C   UNL     1       4.826   4.868  18.673  0.00  0.00    +0.000 A 
ATOM     13  C   UNL     1       6.205   4.668  18.736  0.00  0.00    +0.000 A 
ATOM     14  C   UNL     1       7.071   5.507  18.028  0.00  0.00    +0.000 A 
ATOM     15  C   UNL     1       6.561   6.533  17.243  0.00  0.00    +0.000 A 
ATOM     16  C   UNL     1       5.185   6.752  17.203  0.00  0.00    +0.000 A 
ATOM     17  C   UNL     1       4.308   5.950  17.959  0.00  0.00    +0.000 A 
ENDBRANCH   4   6
BRANCH   1  21
ATOM     18  C   UNL     1      -0.814  10.428  23.096  0.00  0.00    +0.000 C 
ATOM     19  C   UNL     1      -0.656  10.582  21.614  0.00  0.00    +0.000 A 
ATOM     20  C   UNL     1       0.285   9.830  20.932  0.00  0.00    +0.000 A 
ATOM     21  C   UNL     1       0.434  10.039  19.563  0.00  0.00    +0.000 A 
ATOM     22  C   UNL     1      -0.352  11.001  18.929  0.00  0.00    +0.000 A 
ATOM     23  C   UNL     1      -1.263  11.715  19.682  0.00  0.00    +0.000 A 
ATOM     24  N   UNL     1      -1.425  11.519  21.002  0.00  0.00    +0.000 NA
BRANCH  23  25
ATOM     25  N   UNL     1      -2.084  12.661  19.076  0.00  0.00    +0.000 N 
ATOM     26  H   UNL     1      -2.360  13.393  19.721  0.00  0.00    +0.000 HD
ATOM     27  H   UNL     1      -2.883  12.161  18.697  0.00  0.00    +0.000 HD
ENDBRANCH  23  25
ENDBRANCH   1  21
TORSDOF 3
ENDMDL
MODEL 2
REMARK VINA RESULT:      -8.6      0.810      1.707
REMARK  Name = 
REMARK  6 active torsions:
REMARK  status: ('A' for Active; 'I' for Inactive)
REMARK    1  A    between atoms: C_1  and  C_2
REMARK    2  A    between atoms: C_4  and  C_5
REMARK    3  A    between atoms: C_8  and  C_9
REMARK    4  A    between atoms: C_11  and  C_12
REMARK    5  A    between atoms: C_11  and  C_13
REMARK    6  A    between atoms: C_23  and  N_24
REMARK                            x       y       z     vdW  Elec       q    Type
REMARK                         _______ _______ _______ _____ _____    ______ ____
ROOT
ATOM      1  C   UNL     1       1.537   9.269  19.084  0.00  0.00    +0.000 A 
ATOM      2  N   UNL     1       1.573   9.485  17.760  0.00  0.00    +0.000 NA
ATOM      3  O   UNL     1       2.208   8.342  17.268  0.00  0.00    +0.000 OA
ATOM      4  C   UNL     1       2.483   7.565  18.357  0.00  0.00    +0.000 A 
ATOM      5  N   UNL     1       2.208   8.148  19.497  0.00  0.00    +0.000 NA
ENDROOT
BRANCH   4   6
ATOM      6  C   UNL     1       2.672   6.105  18.137  0.00  0.00    +0.000 C 
ATOM      7  C   UNL     1       1.971   5.285  19.211  0.00  0.00    +0.000 C 
ATOM      8  C   UNL     1       2.467   3.836  19.161  0.00  0.00    +0.000 C 
ATOM      9  C   UNL     1       2.178   3.145  17.813  0.00  0.00    +0.000 C 
ATOM     10  C   UNL     1       1.769   3.038  20.269  0.00  0.00    +0.000 C 
ATOM     11  O   UNL     1       3.878   3.792  19.450  0.00  0.00    +0.000 OA
ATOM     12  C   UNL     1       4.658   4.669  18.743  0.00  0.00    +0.000 A 
ATOM     13  C   UNL     1       6.032   4.433  18.759  0.00  0.00    +0.000 A 
ATOM     14  C   UNL     1       6.892   5.234  18.001  0.00  0.00    +0.000 A 
ATOM     15  C   UNL     1       6.381   6.257  17.214  0.00  0.00    +0.000 A 
ATOM     16  C   UNL     1       5.011   6.513  17.221  0.00  0.00    +0.000 A 
ATOM     17  C   UNL     1       4.143   5.751  18.027  0.00  0.00    +0.000 A 
ENDBRANCH   4   6
BRANCH   1  21
ATOM     18  C   UNL     1      -1.997  12.621  20.022  0.00  0.00    +0.000 C 
ATOM     19  C   UNL     1      -1.064  11.535  20.464  0.00  0.00    +0.000 A 
ATOM     20  C   UNL     1      -0.147  10.999  19.574  0.00  0.00    +0.000 A 
ATOM     21  C   UNL     1       0.667   9.958  20.010  0.00  0.00    +0.000 A 
ATOM     22  C   UNL     1       0.527   9.479  21.312  0.00  0.00    +0.000 A 
ATOM     23  C   UNL     1      -0.415  10.062  22.136  0.00  0.00    +0.000 A 
ATOM     24  N   UNL     1      -1.204  11.074  21.733  0.00  0.00    +0.000 NA
BRANCH  23  25
ATOM     25  N   UNL     1      -0.562   9.630  23.450  0.00  0.00    +0.000 N 
ATOM     26  H   UNL     1       0.202   9.943  24.040  0.00  0.00    +0.000 HD
ATOM     27  H   UNL     1      -0.637   8.618  23.423  0.00  0.00    +0.000 HD
ENDBRANCH  23  25
ENDBRANCH   1  21
TORSDOF 3
ENDMDL
MODEL 3
REMARK VINA RESULT:      -8.5      1.787      3.732
REMARK  Name = 
REMARK  6 active torsions:
REMARK  status: ('A' for Active; 'I' for Inactive)
REMARK    1  A    between atoms: C_1  and  C_2
REMARK    2  A    between atoms: C_4  and  C_5
REMARK    3  A    between atoms: C_8  and  C_9
REMARK    4  A    between atoms: C_11  and  C_12
REMARK    5  A    between atoms: C_11  and  C_13
REMARK    6  A    between atoms: C_23  and  N_24
REMARK                            x       y       z     vdW  Elec       q    Type
REMARK                         _______ _______ _______ _____ _____    ______ ____
ROOT
ATOM      1  C   UNL     1       0.766   9.466  20.056  0.00  0.00    +0.000 A 
ATOM      2  N   UNL     1       1.128   9.266  21.333  0.00  0.00    +0.000 NA
ATOM      3  O   UNL     1       1.809   8.048  21.284  0.00  0.00    +0.000 OA
ATOM      4  C   UNL     1       1.780   7.651  19.976  0.00  0.00    +0.000 A 
ATOM      5  N   UNL     1       1.043   8.421  19.214  0.00  0.00    +0.000 NA
ENDROOT
BRANCH   4   6
ATOM      6  C   UNL     1       2.827   6.699  19.517  0.00  0.00    +0.000 C 
ATOM      7  C   UNL     1       3.476   7.168  18.222  0.00  0.00    +0.000 C 
ATOM      8  C   UNL     1       4.281   6.020  17.602  0.00  0.00    +0.000 C 
ATOM      9  C   UNL     1       5.418   5.517  18.515  0.00  0.00    +0.000 C 
ATOM     10  C   UNL     1       4.899   6.507  16.287  0.00  0.00    +0.000 C 
ATOM     11  O   UNL     1       3.398   4.933  17.262  0.00  0.00    +0.000 OA
ATOM     12  C   UNL     1       2.535   4.535  18.251  0.00  0.00    +0.000 A 
ATOM     13  C   UNL     1       1.910   3.302  18.072  0.00  0.00    +0.000 A 
ATOM     14  C   UNL     1       1.076   2.785  19.068  0.00  0.00    +0.000 A 
ATOM     15  C   UNL     1       0.880   3.489  20.249  0.00  0.00    +0.000 A 
ATOM     16  C   UNL     1       1.481   4.736  20.416  0.00  0.00    +0.000 A 
ATOM     17  C   UNL     1       2.275   5.292  19.394  0.00  0.00    +0.000 A 
ENDBRANCH   4   6
BRANCH   1  21
ATOM     18  C   UNL     1       1.865  14.065  18.557  0.00  0.00    +0.000 C 
ATOM     19  C   UNL     1       0.896  12.936  18.734  0.00  0.00    +0.000 A 
ATOM     20  C   UNL     1       1.283  11.785  19.400  0.00  0.00    +0.000 A 
ATOM     21  C   UNL     1       0.368  10.739  19.500  0.00  0.00    +0.000 A 
ATOM     22  C   UNL     1      -0.893  10.876  18.919  0.00  0.00    +0.000 A 
ATOM     23  C   UNL     1      -1.199  12.053  18.267  0.00  0.00    +0.000 A 
ATOM     24  N   UNL     1      -0.330  13.075  18.168  0.00  0.00    +0.000 NA
BRANCH  23  25
ATOM     25  N   UNL     1      -2.457  12.235  17.702  0.00  0.00    +0.000 N 
ATOM     26  H   UNL     1      -2.425  12.223  16.689  0.00  0.00    +0.000 HD
ATOM     27  H   UNL     1      -2.821  13.111  18.065  0.00  0.00    +0.000 HD
ENDBRANCH  23  25
ENDBRANCH   1  21
TORSDOF 3
ENDMDL
MODEL 4
REMARK VINA RESULT:      -8.5      2.036      3.723
REMARK  Name = 
REMARK  6 active torsions:
REMARK  status: ('A' for Active; 'I' for Inactive)
REMARK    1  A    between atoms: C_1  and  C_2
REMARK    2  A    between atoms: C_4  and  C_5
REMARK    3  A    between atoms: C_8  and  C_9
REMARK    4  A    between atoms: C_11  and  C_12
REMARK    5  A    between atoms: C_11  and  C_13
REMARK    6  A    between atoms: C_23  and  N_24
REMARK                            x       y       z     vdW  Elec       q    Type
REMARK                         _______ _______ _______ _____ _____    ______ ____
ROOT
ATOM      1  C   UNL     1       1.144   9.328  20.059  0.00  0.00    +0.000 A 
ATOM      2  N   UNL     1       1.011   8.745  21.260  0.00  0.00    +0.000 NA
ATOM      3  O   UNL     1       1.515   7.460  21.047  0.00  0.00    +0.000 OA
ATOM      4  C   UNL     1       1.897   7.416  19.736  0.00  0.00    +0.000 A 
ATOM      5  N   UNL     1       1.571   8.491  19.062  0.00  0.00    +0.000 NA
ENDROOT
BRANCH   4   6
ATOM      6  C   UNL     1       2.917   6.406  19.344  0.00  0.00    +0.000 C 
ATOM      7  C   UNL     1       3.629   6.804  18.058  0.00  0.00    +0.000 C 
ATOM      8  C   UNL     1       4.403   5.603  17.504  0.00  0.00    +0.000 C 
ATOM      9  C   UNL     1       5.486   5.084  18.470  0.00  0.00    +0.000 C 
ATOM     10  C   UNL     1       5.085   6.020  16.196  0.00  0.00    +0.000 C 
ATOM     11  O   UNL     1       3.486   4.543  17.168  0.00  0.00    +0.000 OA
ATOM     12  C   UNL     1       2.574   4.215  18.138  0.00  0.00    +0.000 A 
ATOM     13  C   UNL     1       1.902   3.004  17.977  0.00  0.00    +0.000 A 
ATOM     14  C   UNL     1       1.014   2.557  18.959  0.00  0.00    +0.000 A 
ATOM     15  C   UNL     1       0.810   3.307  20.109  0.00  0.00    +0.000 A 
ATOM     16  C   UNL     1       1.458   4.532  20.257  0.00  0.00    +0.000 A 
ATOM     17  C   UNL     1       2.309   5.020  19.247  0.00  0.00    +0.000 A 
ENDBRANCH   4   6
BRANCH   1  21
ATOM     18  C   UNL     1       0.318  13.956  21.642  0.00  0.00    +0.000 C 
ATOM     19  C   UNL     1       0.770  12.986  20.593  0.00  0.00    +0.000 A 
ATOM     20  C   UNL     1       0.643  11.623  20.804  0.00  0.00    +0.000 A 
ATOM     21  C   UNL     1       1.121  10.754  19.827  0.00  0.00    +0.000 A 
ATOM     22  C   UNL     1       1.720  11.278  18.681  0.00  0.00    +0.000 A 
ATOM     23  C   UNL     1       1.815  12.649  18.549  0.00  0.00    +0.000 A 
ATOM     24  N   UNL     1       1.351  13.502  19.479  0.00  0.00    +0.000 NA
BRANCH  23  25
ATOM     25  N   UNL     1       2.380  13.206  17.406  0.00  0.00    +0.000 N 
ATOM     26  H   UNL     1       3.041  12.577  16.963  0.00  0.00    +0.000 HD
ATOM     27  H   UNL     1       2.811  14.082  17.684  0.00  0.00    +0.000 HD
ENDBRANCH  23  25
ENDBRANCH   1  21
TORSDOF 3
ENDMDL
MODEL 5
REMARK VINA RESULT:      -8.4      0.820      1.679
REMARK  Name = 
REMARK  6 active torsions:
REMARK  status: ('A' for Active; 'I' for Inactive)
REMARK    1  A    between atoms: C_1  and  C_2
REMARK    2  A    between atoms: C_4  and  C_5
REMARK    3  A    between atoms: C_8  and  C_9
REMARK    4  A    between atoms: C_11  and  C_12
REMARK    5  A    between atoms: C_11  and  C_13
REMARK    6  A    between atoms: C_23  and  N_24
REMARK                            x       y       z     vdW  Elec       q    Type
REMARK                         _______ _______ _______ _____ _____    ______ ____
ROOT
ATOM      1  C   UNL     1       1.434   9.613  18.756  0.00  0.00    +0.000 A 
ATOM      2  N   UNL     1       1.947   9.752  17.524  0.00  0.00    +0.000 NA
ATOM      3  O   UNL     1       2.592   8.532  17.308  0.00  0.00    +0.000 OA
ATOM      4  C   UNL     1       2.391   7.794  18.440  0.00  0.00    +0.000 A 
ATOM      5  N   UNL     1       1.800   8.461  19.400  0.00  0.00    +0.000 NA
ENDROOT
BRANCH   4   6
ATOM      6  C   UNL     1       2.494   6.313  18.329  0.00  0.00    +0.000 C 
ATOM      7  C   UNL     1       1.748   5.618  19.461  0.00  0.00    +0.000 C 
ATOM      8  C   UNL     1       2.157   4.142  19.519  0.00  0.00    +0.000 C 
ATOM      9  C   UNL     1       1.825   3.371  18.225  0.00  0.00    +0.000 C 
ATOM     10  C   UNL     1       1.417   3.472  20.682  0.00  0.00    +0.000 C 
ATOM     11  O   UNL     1       3.564   4.037  19.814  0.00  0.00    +0.000 OA
ATOM     12  C   UNL     1       4.393   4.812  19.045  0.00  0.00    +0.000 A 
ATOM     13  C   UNL     1       5.751   4.497  19.081  0.00  0.00    +0.000 A 
ATOM     14  C   UNL     1       6.655   5.187  18.267  0.00  0.00    +0.000 A 
ATOM     15  C   UNL     1       6.202   6.177  17.405  0.00  0.00    +0.000 A 
ATOM     16  C   UNL     1       4.850   6.514  17.391  0.00  0.00    +0.000 A 
ATOM     17  C   UNL     1       3.940   5.866  18.249  0.00  0.00    +0.000 A 
ENDBRANCH   4   6
BRANCH   1  21
ATOM     18  C   UNL     1      -3.080  11.643  18.416  0.00  0.00    +0.000 C 
ATOM     19  C   UNL     1      -1.814  11.369  19.170  0.00  0.00    +0.000 A 
ATOM     20  C   UNL     1      -0.766  10.706  18.554  0.00  0.00    +0.000 A 
ATOM     21  C   UNL     1       0.373  10.427  19.305  0.00  0.00    +0.000 A 
ATOM     22  C   UNL     1       0.418  10.808  20.646  0.00  0.00    +0.000 A 
ATOM     23  C   UNL     1      -0.671  11.460  21.188  0.00  0.00    +0.000 A 
ATOM     24  N   UNL     1      -1.775  11.744  20.475  0.00  0.00    +0.000 NA
BRANCH  23  25
ATOM     25  N   UNL     1      -0.649  11.881  22.513  0.00  0.00    +0.000 N 
ATOM     26  H   UNL     1      -1.580  11.933  22.912  0.00  0.00    +0.000 HD
ATOM     27  H   UNL     1      -0.171  12.777  22.532  0.00  0.00    +0.000 HD
ENDBRANCH  23  25
ENDBRANCH   1  21
TORSDOF 3
ENDMDL
MODEL 6
REMARK VINA RESULT:      -8.1      1.031      1.127
REMARK  Name = 
REMARK  6 active torsions:
REMARK  status: ('A' for Active; 'I' for Inactive)
REMARK    1  A    between atoms: C_1  and  C_2
REMARK    2  A    between atoms: C_4  and  C_5
REMARK    3  A    between atoms: C_8  and  C_9
REMARK    4  A    between atoms: C_11  and  C_12
REMARK    5  A    between atoms: C_11  and  C_13
REMARK    6  A    between atoms: C_23  and  N_24
REMARK                            x       y       z     vdW  Elec       q    Type
REMARK                         _______ _______ _______ _____ _____    ______ ____
ROOT
ATOM      1  C   UNL     1       1.213   9.651  18.741  0.00  0.00    +0.000 A 
ATOM      2  N   UNL     1       1.708   9.748  17.497  0.00  0.00    +0.000 NA
ATOM      3  O   UNL     1       2.477   8.589  17.369  0.00  0.00    +0.000 OA
ATOM      4  C   UNL     1       2.355   7.923  18.556  0.00  0.00    +0.000 A 
ATOM      5  N   UNL     1       1.698   8.595  19.467  0.00  0.00    +0.000 NA
ENDROOT
BRANCH   4   6
ATOM      6  C   UNL     1       2.612   6.457  18.556  0.00  0.00    +0.000 C 
ATOM      7  C   UNL     1       2.059   5.795  19.811  0.00  0.00    +0.000 C 
ATOM      8  C   UNL     1       2.634   4.382  19.947  0.00  0.00    +0.000 C 
ATOM      9  C   UNL     1       2.270   3.464  18.762  0.00  0.00    +0.000 C 
ATOM     10  C   UNL     1       2.086   3.749  21.232  0.00  0.00    +0.000 C 
ATOM     11  O   UNL     1       4.065   4.450  20.102  0.00  0.00    +0.000 OA
ATOM     12  C   UNL     1       4.726   5.232  19.191  0.00  0.00    +0.000 A 
ATOM     13  C   UNL     1       6.108   5.064  19.112  0.00  0.00    +0.000 A 
ATOM     14  C   UNL     1       6.848   5.765  18.155  0.00  0.00    +0.000 A 
ATOM     15  C   UNL     1       6.209   6.620  17.267  0.00  0.00    +0.000 A 
ATOM     16  C   UNL     1       4.832   6.812  17.365  0.00  0.00    +0.000 A 
ATOM     17  C   UNL     1       4.085   6.156  18.363  0.00  0.00    +0.000 A 
ENDBRANCH   4   6
BRANCH   1  21
ATOM     18  C   UNL     1      -0.761  13.028  21.791  0.00  0.00    +0.000 C 
ATOM     19  C   UNL     1      -0.877  12.044  20.667  0.00  0.00    +0.000 A 
ATOM     20  C   UNL     1       0.206  11.255  20.318  0.00  0.00    +0.000 A 
ATOM     21  C   UNL     1       0.073  10.389  19.236  0.00  0.00    +0.000 A 
ATOM     22  C   UNL     1      -1.132  10.353  18.533  0.00  0.00    +0.000 A 
ATOM     23  C   UNL     1      -2.162  11.177  18.940  0.00  0.00    +0.000 A 
ATOM     24  N   UNL     1      -2.053  12.012  19.988  0.00  0.00    +0.000 NA
BRANCH  23  25
ATOM     25  N   UNL     1      -3.387  11.145  18.281  0.00  0.00    +0.000 N 
ATOM     26  H   UNL     1      -3.927  10.321  18.521  0.00  0.00    +0.000 HD
ATOM     27  H   UNL     1      -3.190  11.200  17.286  0.00  0.00    +0.000 HD
ENDBRANCH  23  25
ENDBRANCH   1  21
TORSDOF 3
ENDMDL
MODEL 7
REMARK VINA RESULT:      -7.9      1.400      3.404
REMARK  Name = 
REMARK  6 active torsions:
REMARK  status: ('A' for Active; 'I' for Inactive)
REMARK    1  A    between atoms: C_1  and  C_2
REMARK    2  A    between atoms: C_4  and  C_5
REMARK    3  A    between atoms: C_8  and  C_9
REMARK    4  A    between atoms: C_11  and  C_12
REMARK    5  A    between atoms: C_11  and  C_13
REMARK    6  A    between atoms: C_23  and  N_24
REMARK                            x       y       z     vdW  Elec       q    Type
REMARK                         _______ _______ _______ _____ _____    ______ ____
ROOT
ATOM      1  C   UNL     1       1.374   9.134  19.046  0.00  0.00    +0.000 A 
ATOM      2  N   UNL     1       0.883   8.798  17.842  0.00  0.00    +0.000 NA
ATOM      3  O   UNL     1       1.792   7.840  17.384  0.00  0.00    +0.000 OA
ATOM      4  C   UNL     1       2.729   7.708  18.370  0.00  0.00    +0.000 A 
ATOM      5  N   UNL     1       2.587   8.570  19.345  0.00  0.00    +0.000 NA
ENDROOT
BRANCH   4   6
ATOM      6  C   UNL     1       3.506   6.440  18.421  0.00  0.00    +0.000 C 
ATOM      7  C   UNL     1       4.158   6.132  17.079  0.00  0.00    +0.000 C 
ATOM      8  C   UNL     1       4.645   4.680  17.062  0.00  0.00    +0.000 C 
ATOM      9  C   UNL     1       5.698   4.382  18.148  0.00  0.00    +0.000 C 
ATOM     10  C   UNL     1       5.269   4.386  15.693  0.00  0.00    +0.000 C 
ATOM     11  O   UNL     1       3.522   3.786  17.200  0.00  0.00    +0.000 OA
ATOM     12  C   UNL     1       2.659   4.070  18.227  0.00  0.00    +0.000 A 
ATOM     13  C   UNL     1       1.764   3.062  18.585  0.00  0.00    +0.000 A 
ATOM     14  C   UNL     1       0.903   3.239  19.672  0.00  0.00    +0.000 A 
ATOM     15  C   UNL     1       0.946   4.413  20.412  0.00  0.00    +0.000 A 
ATOM     16  C   UNL     1       1.819   5.433  20.037  0.00  0.00    +0.000 A 
ATOM     17  C   UNL     1       2.648   5.289  18.908  0.00  0.00    +0.000 A 
ENDBRANCH   4   6
BRANCH   1  21
ATOM     18  C   UNL     1      -1.952  12.518  20.491  0.00  0.00    +0.000 C 
ATOM     19  C   UNL     1      -1.008  11.393  20.786  0.00  0.00    +0.000 A 
ATOM     20  C   UNL     1      -0.204  10.878  19.783  0.00  0.00    +0.000 A 
ATOM     21  C   UNL     1       0.624   9.800  20.086  0.00  0.00    +0.000 A 
ATOM     22  C   UNL     1       0.608   9.267  21.375  0.00  0.00    +0.000 A 
ATOM     23  C   UNL     1      -0.227   9.834  22.317  0.00  0.00    +0.000 A 
ATOM     24  N   UNL     1      -1.027  10.880  22.043  0.00  0.00    +0.000 NA
BRANCH  23  25
ATOM     25  N   UNL     1      -0.247   9.347  23.620  0.00  0.00    +0.000 N 
ATOM     26  H   UNL     1      -1.192   9.249  23.976  0.00  0.00    +0.000 HD
ATOM     27  H   UNL     1       0.312   9.982  24.182  0.00  0.00    +0.000 HD
ENDBRANCH  23  25
ENDBRANCH   1  21
TORSDOF 3
ENDMDL
MODEL 8
REMARK VINA RESULT:      -7.9      2.594      7.884
REMARK  Name = 
REMARK  6 active torsions:
REMARK  status: ('A' for Active; 'I' for Inactive)
REMARK    1  A    between atoms: C_1  and  C_2
REMARK    2  A    between atoms: C_4  and  C_5
REMARK    3  A    between atoms: C_8  and  C_9
REMARK    4  A    between atoms: C_11  and  C_12
REMARK    5  A    between atoms: C_11  and  C_13
REMARK    6  A    between atoms: C_23  and  N_24
REMARK                            x       y       z     vdW  Elec       q    Type
REMARK                         _______ _______ _______ _____ _____    ______ ____
ROOT
ATOM      1  C   UNL     1       2.105   7.861  19.185  0.00  0.00    +0.000 A 
ATOM      2  N   UNL     1       1.760   7.715  20.474  0.00  0.00    +0.000 NA
ATOM      3  O   UNL     1       0.890   8.786  20.693  0.00  0.00    +0.000 OA
ATOM      4  C   UNL     1       0.810   9.456  19.505  0.00  0.00    +0.000 A 
ATOM      5  N   UNL     1       1.634   9.003  18.593  0.00  0.00    +0.000 NA
ENDROOT
BRANCH   4   6
ATOM      6  C   UNL     1      -0.393  10.299  19.265  0.00  0.00    +0.000 C 
ATOM      7  C   UNL     1      -0.991  10.036  17.890  0.00  0.00    +0.000 C 
ATOM      8  C   UNL     1      -1.991  11.144  17.541  0.00  0.00    +0.000 C 
ATOM      9  C   UNL     1      -3.170  11.228  18.532  0.00  0.00    +0.000 C 
ATOM     10  C   UNL     1      -2.557  10.873  16.142  0.00  0.00    +0.000 C 
ATOM     11  O   UNL     1      -1.310  12.412  17.469  0.00  0.00    +0.000 OA
ATOM     12  C   UNL     1      -0.498  12.713  18.532  0.00  0.00    +0.000 A 
ATOM     13  C   UNL     1      -0.090  14.041  18.648  0.00  0.00    +0.000 A 
ATOM     14  C   UNL     1       0.675  14.449  19.745  0.00  0.00    +0.000 A 
ATOM     15  C   UNL     1       1.016  13.537  20.735  0.00  0.00    +0.000 A 
ATOM     16  C   UNL     1       0.635  12.203  20.605  0.00  0.00    +0.000 A 
ATOM     17  C   UNL     1      -0.084  11.769  19.474  0.00  0.00    +0.000 A 
ENDBRANCH   4   6
BRANCH   1  21
ATOM     18  C   UNL     1       5.720   6.199  16.221  0.00  0.00    +0.000 C 
ATOM     19  C   UNL     1       4.440   5.998  16.974  0.00  0.00    +0.000 A 
ATOM     20  C   UNL     1       3.846   7.062  17.634  0.00  0.00    +0.000 A 
ATOM     21  C   UNL     1       2.684   6.822  18.363  0.00  0.00    +0.000 A 
ATOM     22  C   UNL     1       2.166   5.528  18.418  0.00  0.00    +0.000 A 
ATOM     23  C   UNL     1       2.821   4.521  17.738  0.00  0.00    +0.000 A 
ATOM     24  N   UNL     1       3.939   4.737  17.023  0.00  0.00    +0.000 NA
BRANCH  23  25
ATOM     25  N   UNL     1       2.316   3.225  17.746  0.00  0.00    +0.000 N 
ATOM     26  H   UNL     1       2.041   2.918  16.820  0.00  0.00    +0.000 HD
ATOM     27  H   UNL     1       1.540   3.213  18.402  0.00  0.00    +0.000 HD
ENDBRANCH  23  25
ENDBRANCH   1  21
TORSDOF 3
ENDMDL
MODEL 9
REMARK VINA RESULT:      -7.9      1.795      3.763
REMARK  Name = 
REMARK  6 active torsions:
REMARK  status: ('A' for Active; 'I' for Inactive)
REMARK    1  A    between atoms: C_1  and  C_2
REMARK    2  A    between atoms: C_4  and  C_5
REMARK    3  A    between atoms: C_8  and  C_9
REMARK    4  A    between atoms: C_11  and  C_12
REMARK    5  A    between atoms: C_11  and  C_13
REMARK    6  A    between atoms: C_23  and  N_24
REMARK                            x       y       z     vdW  Elec       q    Type
REMARK                         _______ _______ _______ _____ _____    ______ ____
ROOT
ATOM      1  C   UNL     1       0.698   9.358  19.906  0.00  0.00    +0.000 A 
ATOM      2  N   UNL     1       1.213   9.374  21.145  0.00  0.00    +0.000 NA
ATOM      3  O   UNL     1       1.951   8.189  21.199  0.00  0.00    +0.000 OA
ATOM      4  C   UNL     1       1.795   7.593  19.980  0.00  0.00    +0.000 A 
ATOM      5  N   UNL     1       0.936   8.205  19.205  0.00  0.00    +0.000 NA
ENDROOT
BRANCH   4   6
ATOM      6  C   UNL     1       2.835   6.620  19.547  0.00  0.00    +0.000 C 
ATOM      7  C   UNL     1       3.502   7.058  18.250  0.00  0.00    +0.000 C 
ATOM      8  C   UNL     1       4.298   5.891  17.658  0.00  0.00    +0.000 C 
ATOM      9  C   UNL     1       5.421   5.391  18.589  0.00  0.00    +0.000 C 
ATOM     10  C   UNL     1       4.934   6.347  16.340  0.00  0.00    +0.000 C 
ATOM     11  O   UNL     1       3.405   4.808  17.329  0.00  0.00    +0.000 OA
ATOM     12  C   UNL     1       2.529   4.437  18.316  0.00  0.00    +0.000 A 
ATOM     13  C   UNL     1       1.891   3.209  18.153  0.00  0.00    +0.000 A 
ATOM     14  C   UNL     1       1.042   2.720  19.151  0.00  0.00    +0.000 A 
ATOM     15  C   UNL     1       0.844   3.447  20.317  0.00  0.00    +0.000 A 
ATOM     16  C   UNL     1       1.458   4.689  20.468  0.00  0.00    +0.000 A 
ATOM     17  C   UNL     1       2.268   5.218  19.444  0.00  0.00    +0.000 A 
ENDBRANCH   4   6
BRANCH   1  21
ATOM     18  C   UNL     1      -2.894  11.570  17.297  0.00  0.00    +0.000 C 
ATOM     19  C   UNL     1      -1.572  11.599  18.001  0.00  0.00    +0.000 A 
ATOM     20  C   UNL     1      -1.037  10.434  18.526  0.00  0.00    +0.000 A 
ATOM     21  C   UNL     1       0.170  10.513  19.216  0.00  0.00    +0.000 A 
ATOM     22  C   UNL     1       0.790  11.753  19.369  0.00  0.00    +0.000 A 
ATOM     23  C   UNL     1       0.189  12.868  18.821  0.00  0.00    +0.000 A 
ATOM     24  N   UNL     1      -0.971  12.808  18.144  0.00  0.00    +0.000 NA
BRANCH  23  25
ATOM     25  N   UNL     1       0.796  14.115  18.927  0.00  0.00    +0.000 N 
ATOM     26  H   UNL     1       0.717  14.498  19.863  0.00  0.00    +0.000 HD
ATOM     27  H   UNL     1       0.366  14.715  18.230  0.00  0.00    +0.000 HD
ENDBRANCH  23  25
ENDBRANCH   1  21
TORSDOF 3
ENDMDL
