MODEL 1
REMARK VINA RESULT:      -8.1      0.000      0.000
REMARK  Name = 
REMARK  5 active torsions:
REMARK  status: ('A' for Active; 'I' for Inactive)
REMARK    1  A    between atoms: C_1  and  C_2
REMARK    2  A    between atoms: C_6  and  C_7
REMARK    3  A    between atoms: C_7  and  N_8
REMARK    4  A    between atoms: C_12  and  C_13
REMARK    5  A    between atoms: C_12  and  C_14
REMARK                            x       y       z     vdW  Elec       q    Type
REMARK                         _______ _______ _______ _____ _____    ______ ____
ROOT
ATOM      1  N   UNL     1       1.265   8.709  19.658  0.00  0.00    +0.000 N 
ATOM      2  C   UNL     1       0.357   9.073  20.602  0.00  0.00    +0.000 C 
ATOM      3  O   UNL     1       0.372   8.812  21.792  0.00  0.00    +0.000 OA
ATOM      4  N   UNL     1      -0.607   9.858  20.003  0.00  0.00    +0.000 N 
ATOM      5  C   UNL     1      -0.155  10.357  18.720  0.00  0.00    +0.000 C 
ATOM      6  C   UNL     1      -1.257  10.319  17.671  0.00  0.00    +0.000 C 
ATOM      7  C   UNL     1       0.949   9.295  18.465  0.00  0.00    +0.000 C 
ATOM      8  O   UNL     1       1.536   9.123  17.408  0.00  0.00    +0.000 OA
ATOM      9  H   UNL     1      -1.239  10.377  20.606  0.00  0.00    +0.000 HD
ENDROOT
BRANCH   5  10
ATOM     10  C   UNL     1       0.481  11.746  18.833  0.00  0.00    +0.000 A 
ATOM     11  C   UNL     1       1.807  11.969  18.411  0.00  0.00    +0.000 A 
ATOM     12  C   UNL     1       2.407  13.216  18.570  0.00  0.00    +0.000 A 
ATOM     13  F   UNL     1       3.680  13.382  18.190  0.00  0.00    +0.000 F 
ATOM     14  C   UNL     1       1.712  14.279  19.126  0.00  0.00    +0.000 A 
ATOM     15  C   UNL     1       0.390  14.092  19.522  0.00  0.00    +0.000 A 
ATOM     16  C   UNL     1      -0.213  12.842  19.365  0.00  0.00    +0.000 A 
ATOM     17  F   UNL     1      -1.490  12.708  19.754  0.00  0.00    +0.000 F 
ENDBRANCH   5  10
BRANCH   1  18
ATOM     18  C   UNL     1       2.525   8.060  19.943  0.00  0.00    +0.000 C 
BRANCH  18  24
ATOM     19  C   UNL     1       5.424   4.263  15.134  0.00  0.00    +0.000 C 
ATOM     20  C   UNL     1       4.721   4.878  16.307  0.00  0.00    +0.000 A 
ATOM     21  C   UNL     1       4.940   6.211  16.664  0.00  0.00    +0.000 A 
ATOM     22  C   UNL     1       4.248   6.791  17.738  0.00  0.00    +0.000 A 
ATOM     23  C   UNL     1       3.319   6.054  18.483  0.00  0.00    +0.000 A 
ATOM     24  C   UNL     1       2.492   6.603  19.571  0.00  0.00    +0.000 A 
ATOM     25  C   UNL     1       1.727   5.752  20.272  0.00  0.00    +0.000 A 
ATOM     26  C   UNL     1       1.638   4.313  19.994  0.00  0.00    +0.000 A 
ATOM     27  O   UNL     1       0.970   3.575  20.708  0.00  0.00    +0.000 OA
ATOM     28  O   UNL     1       2.328   3.851  18.891  0.00  0.00    +0.000 OA
ATOM     29  C   UNL     1       3.170   4.705  18.151  0.00  0.00    +0.000 A 
ATOM     30  C   UNL     1       3.848   4.114  17.083  0.00  0.00    +0.000 A 
ENDBRANCH  18  24
ENDBRANCH   1  18
TORSDOF 3
ENDMDL
MODEL 2
REMARK VINA RESULT:      -7.9      2.846      5.310
REMARK  Name = 
REMARK  5 active torsions:
REMARK  status: ('A' for Active; 'I' for Inactive)
REMARK    1  A    between atoms: C_1  and  C_2
REMARK    2  A    between atoms: C_6  and  C_7
REMARK    3  A    between atoms: C_7  and  N_8
REMARK    4  A    between atoms: C_12  and  C_13
REMARK    5  A    between atoms: C_12  and  C_14
REMARK                            x       y       z     vdW  Elec       q    Type
REMARK                         _______ _______ _______ _____ _____    ______ ____
ROOT
ATOM      1  N   UNL     1       1.372  13.071  19.544  0.00  0.00    +0.000 N 
ATOM      2  C   UNL     1       2.458  13.215  18.737  0.00  0.00    +0.000 C 
ATOM      3  O   UNL     1       2.821  12.479  17.838  0.00  0.00    +0.000 OA
ATOM      4  N   UNL     1       3.093  14.395  19.066  0.00  0.00    +0.000 N 
ATOM      5  C   UNL     1       2.227  15.260  19.841  0.00  0.00    +0.000 C 
ATOM      6  C   UNL     1       2.974  15.950  20.973  0.00  0.00    +0.000 C 
ATOM      7  C   UNL     1       1.250  14.167  20.350  0.00  0.00    +0.000 C 
ATOM      8  O   UNL     1       0.410  14.318  21.225  0.00  0.00    +0.000 OA
ATOM      9  H   UNL     1       3.796  14.750  18.424  0.00  0.00    +0.000 HD
ENDROOT
BRANCH   5  10
ATOM     10  C   UNL     1       1.471  16.260  18.961  0.00  0.00    +0.000 A 
ATOM     11  C   UNL     1       0.082  16.447  19.111  0.00  0.00    +0.000 A 
ATOM     12  C   UNL     1      -0.618  17.309  18.270  0.00  0.00    +0.000 A 
ATOM     13  F   UNL     1      -1.942  17.436  18.419  0.00  0.00    +0.000 F 
ATOM     14  C   UNL     1       0.033  18.025  17.276  0.00  0.00    +0.000 A 
ATOM     15  C   UNL     1       1.410  17.880  17.128  0.00  0.00    +0.000 A 
ATOM     16  C   UNL     1       2.114  17.015  17.969  0.00  0.00    +0.000 A 
ATOM     17  F   UNL     1       3.440  16.911  17.795  0.00  0.00    +0.000 F 
ENDBRANCH   5  10
BRANCH   1  18
ATOM     18  C   UNL     1       0.348  12.067  19.364  0.00  0.00    +0.000 C 
BRANCH  18  24
ATOM     19  C   UNL     1       2.887   5.916  18.079  0.00  0.00    +0.000 C 
ATOM     20  C   UNL     1       2.358   7.213  18.611  0.00  0.00    +0.000 A 
ATOM     21  C   UNL     1       2.281   8.350  17.801  0.00  0.00    +0.000 A 
ATOM     22  C   UNL     1       1.747   9.549  18.294  0.00  0.00    +0.000 A 
ATOM     23  C   UNL     1       1.276   9.645  19.609  0.00  0.00    +0.000 A 
ATOM     24  C   UNL     1       0.628  10.837  20.182  0.00  0.00    +0.000 A 
ATOM     25  C   UNL     1       0.329  10.824  21.491  0.00  0.00    +0.000 A 
ATOM     26  C   UNL     1       0.575   9.678  22.375  0.00  0.00    +0.000 A 
ATOM     27  O   UNL     1       0.339   9.747  23.575  0.00  0.00    +0.000 OA
ATOM     28  O   UNL     1       1.068   8.532  21.781  0.00  0.00    +0.000 OA
ATOM     29  C   UNL     1       1.428   8.518  20.419  0.00  0.00    +0.000 A 
ATOM     30  C   UNL     1       1.953   7.314  19.943  0.00  0.00    +0.000 A 
ENDBRANCH  18  24
ENDBRANCH   1  18
TORSDOF 3
ENDMDL
MODEL 3
REMARK VINA RESULT:      -7.9      4.287      6.224
REMARK  Name = 
REMARK  5 active torsions:
REMARK  status: ('A' for Active; 'I' for Inactive)
REMARK    1  A    between atoms: C_1  and  C_2
REMARK    2  A    between atoms: C_6  and  C_7
REMARK    3  A    between atoms: C_7  and  N_8
REMARK    4  A    between atoms: C_12  and  C_13
REMARK    5  A    between atoms: C_12  and  C_14
REMARK                            x       y       z     vdW  Elec       q    Type
REMARK                         _______ _______ _______ _____ _____    ______ ____
ROOT
ATOM      1  N   UNL     1       3.978   2.627  18.462  0.00  0.00    +0.000 N 
ATOM      2  C   UNL     1       4.135   2.838  19.796  0.00  0.00    +0.000 C 
ATOM      3  O   UNL     1       5.137   2.662  20.466  0.00  0.00    +0.000 OA
ATOM      4  N   UNL     1       2.957   3.350  20.299  0.00  0.00    +0.000 N 
ATOM      5  C   UNL     1       2.108   3.855  19.239  0.00  0.00    +0.000 C 
ATOM      6  C   UNL     1       0.644   3.507  19.464  0.00  0.00    +0.000 C 
ATOM      7  C   UNL     1       2.740   3.051  18.071  0.00  0.00    +0.000 C 
ATOM      8  O   UNL     1       2.273   2.948  16.947  0.00  0.00    +0.000 OA
ATOM      9  H   UNL     1       2.974   3.752  21.232  0.00  0.00    +0.000 HD
ENDROOT
BRANCH   5  10
ATOM     10  C   UNL     1       2.311   5.355  19.003  0.00  0.00    +0.000 A 
ATOM     11  C   UNL     1       2.970   5.822  17.849  0.00  0.00    +0.000 A 
ATOM     12  C   UNL     1       3.211   7.181  17.663  0.00  0.00    +0.000 A 
ATOM     13  F   UNL     1       3.871   7.585  16.571  0.00  0.00    +0.000 F 
ATOM     14  C   UNL     1       2.788   8.117  18.596  0.00  0.00    +0.000 A 
ATOM     15  C   UNL     1       2.106   7.683  19.730  0.00  0.00    +0.000 A 
ATOM     16  C   UNL     1       1.867   6.320  19.920  0.00  0.00    +0.000 A 
ATOM     17  F   UNL     1       1.201   5.947  21.023  0.00  0.00    +0.000 F 
ENDBRANCH   5  10
BRANCH   1  18
ATOM     18  C   UNL     1       5.054   2.293  17.555  0.00  0.00    +0.000 C 
BRANCH  18  24
ATOM     19  C   UNL     1       8.305   8.164  18.504  0.00  0.00    +0.000 C 
ATOM     20  C   UNL     1       7.612   6.917  18.043  0.00  0.00    +0.000 A 
ATOM     21  C   UNL     1       7.454   5.821  18.895  0.00  0.00    +0.000 A 
ATOM     22  C   UNL     1       6.769   4.673  18.470  0.00  0.00    +0.000 A 
ATOM     23  C   UNL     1       6.224   4.591  17.183  0.00  0.00    +0.000 A 
ATOM     24  C   UNL     1       5.424   3.460  16.682  0.00  0.00    +0.000 A 
ATOM     25  C   UNL     1       5.062   3.468  15.389  0.00  0.00    +0.000 A 
ATOM     26  C   UNL     1       5.386   4.553  14.455  0.00  0.00    +0.000 A 
ATOM     27  O   UNL     1       5.083   4.475  13.271  0.00  0.00    +0.000 OA
ATOM     28  O   UNL     1       6.029   5.655  14.985  0.00  0.00    +0.000 OA
ATOM     29  C   UNL     1       6.456   5.670  16.328  0.00  0.00    +0.000 A 
ATOM     30  C   UNL     1       7.132   6.822  16.736  0.00  0.00    +0.000 A 
ENDBRANCH  18  24
ENDBRANCH   1  18
TORSDOF 3
ENDMDL
MODEL 4
REMARK VINA RESULT:      -7.6      3.807      8.219
REMARK  Name = 
REMARK  5 active torsions:
REMARK  status: ('A' for Active; 'I' for Inactive)
REMARK    1  A    between atoms: C_1  and  C_2
REMARK    2  A    between atoms: C_6  and  C_7
REMARK    3  A    between atoms: C_7  and  N_8
REMARK    4  A    between atoms: C_12  and  C_13
REMARK    5  A    between atoms: C_12  and  C_14
REMARK                            x       y       z     vdW  Elec       q    Type
REMARK                         _______ _______ _______ _____ _____    ______ ____
ROOT
ATOM      1  N   UNL     1       4.440   5.587  17.074  0.00  0.00    +0.000 N 
ATOM      2  C   UNL     1       4.244   4.241  17.069  0.00  0.00    +0.000 C 
ATOM      3  O   UNL     1       3.185   3.642  17.128  0.00  0.00    +0.000 OA
ATOM      4  N   UNL     1       5.469   3.621  16.935  0.00  0.00    +0.000 N 
ATOM      5  C   UNL     1       6.476   4.546  16.459  0.00  0.00    +0.000 C 
ATOM      6  C   UNL     1       7.811   4.352  17.164  0.00  0.00    +0.000 C 
ATOM      7  C   UNL     1       5.764   5.859  16.881  0.00  0.00    +0.000 C 
ATOM      8  O   UNL     1       6.273   6.970  16.889  0.00  0.00    +0.000 OA
ATOM      9  H   UNL     1       5.477   2.630  16.709  0.00  0.00    +0.000 HD
ENDROOT
BRANCH   5  10
ATOM     10  C   UNL     1       6.624   4.505  14.934  0.00  0.00    +0.000 A 
ATOM     11  C   UNL     1       5.834   3.634  14.156  0.00  0.00    +0.000 A 
ATOM     12  C   UNL     1       6.011   3.549  12.778  0.00  0.00    +0.000 A 
ATOM     13  F   UNL     1       5.268   2.686  12.074  0.00  0.00    +0.000 F 
ATOM     14  C   UNL     1       6.950   4.335  12.126  0.00  0.00    +0.000 A 
ATOM     15  C   UNL     1       7.721   5.227  12.870  0.00  0.00    +0.000 A 
ATOM     16  C   UNL     1       7.547   5.311  14.253  0.00  0.00    +0.000 A 
ATOM     17  F   UNL     1       8.306   6.187  14.928  0.00  0.00    +0.000 F 
ENDBRANCH   5  10
BRANCH   1  18
ATOM     18  C   UNL     1       3.381   6.567  16.991  0.00  0.00    +0.000 C 
BRANCH  18  24
ATOM     19  C   UNL     1       0.374  11.792  20.090  0.00  0.00    +0.000 C 
ATOM     20  C   UNL     1       0.934  10.494  19.592  0.00  0.00    +0.000 A 
ATOM     21  C   UNL     1       1.388  10.359  18.277  0.00  0.00    +0.000 A 
ATOM     22  C   UNL     1       1.949   9.154  17.830  0.00  0.00    +0.000 A 
ATOM     23  C   UNL     1       2.070   8.051  18.685  0.00  0.00    +0.000 A 
ATOM     24  C   UNL     1       2.717   6.778  18.324  0.00  0.00    +0.000 A 
ATOM     25  C   UNL     1       2.659   5.769  19.208  0.00  0.00    +0.000 A 
ATOM     26  C   UNL     1       2.023   5.873  20.527  0.00  0.00    +0.000 A 
ATOM     27  O   UNL     1       1.947   4.899  21.266  0.00  0.00    +0.000 OA
ATOM     28  O   UNL     1       1.536   7.115  20.885  0.00  0.00    +0.000 OA
ATOM     29  C   UNL     1       1.546   8.188  19.972  0.00  0.00    +0.000 A 
ATOM     30  C   UNL     1       0.989   9.383  20.434  0.00  0.00    +0.000 A 
ENDBRANCH  18  24
ENDBRANCH   1  18
TORSDOF 3
ENDMDL
MODEL 5
REMARK VINA RESULT:      -7.6      1.084      1.591
REMARK  Name = 
REMARK  5 active torsions:
REMARK  status: ('A' for Active; 'I' for Inactive)
REMARK    1  A    between atoms: C_1  and  C_2
REMARK    2  A    between atoms: C_6  and  C_7
REMARK    3  A    between atoms: C_7  and  N_8
REMARK    4  A    between atoms: C_12  and  C_13
REMARK    5  A    between atoms: C_12  and  C_14
REMARK                            x       y       z     vdW  Elec       q    Type
REMARK                         _______ _______ _______ _____ _____    ______ ____
ROOT
ATOM      1  N   UNL     1       1.423   8.369  19.962  0.00  0.00    +0.000 N 
ATOM      2  C   UNL     1       0.466   8.765  20.843  0.00  0.00    +0.000 C 
ATOM      3  O   UNL     1       0.320   8.405  21.997  0.00  0.00    +0.000 OA
ATOM      4  N   UNL     1      -0.328   9.712  20.229  0.00  0.00    +0.000 N 
ATOM      5  C   UNL     1       0.317  10.254  19.051  0.00  0.00    +0.000 C 
ATOM      6  C   UNL     1      -0.661  10.444  17.900  0.00  0.00    +0.000 C 
ATOM      7  C   UNL     1       1.309   9.087  18.805  0.00  0.00    +0.000 C 
ATOM      8  O   UNL     1       1.985   8.931  17.800  0.00  0.00    +0.000 OA
ATOM      9  H   UNL     1      -0.957  10.255  20.814  0.00  0.00    +0.000 HD
ENDROOT
BRANCH   5  10
ATOM     10  C   UNL     1       1.094  11.538  19.359  0.00  0.00    +0.000 A 
ATOM     11  C   UNL     1       0.882  12.241  20.562  0.00  0.00    +0.000 A 
ATOM     12  C   UNL     1       1.541  13.441  20.815  0.00  0.00    +0.000 A 
ATOM     13  F   UNL     1       1.289  14.099  21.952  0.00  0.00    +0.000 F 
ATOM     14  C   UNL     1       2.443  13.968  19.902  0.00  0.00    +0.000 A 
ATOM     15  C   UNL     1       2.694  13.276  18.720  0.00  0.00    +0.000 A 
ATOM     16  C   UNL     1       2.032  12.074  18.463  0.00  0.00    +0.000 A 
ATOM     17  F   UNL     1       2.308  11.438  17.315  0.00  0.00    +0.000 F 
ENDBRANCH   5  10
BRANCH   1  18
ATOM     18  C   UNL     1       2.559   7.544  20.306  0.00  0.00    +0.000 C 
BRANCH  18  24
ATOM     19  C   UNL     1       5.473   4.270  15.135  0.00  0.00    +0.000 C 
ATOM     20  C   UNL     1       4.743   4.761  16.349  0.00  0.00    +0.000 A 
ATOM     21  C   UNL     1       5.038   6.004  16.917  0.00  0.00    +0.000 A 
ATOM     22  C   UNL     1       4.323   6.475  18.028  0.00  0.00    +0.000 A 
ATOM     23  C   UNL     1       3.294   5.716  18.600  0.00  0.00    +0.000 A 
ATOM     24  C   UNL     1       2.442   6.166  19.714  0.00  0.00    +0.000 A 
ATOM     25  C   UNL     1       1.569   5.288  20.235  0.00  0.00    +0.000 A 
ATOM     26  C   UNL     1       1.391   3.919  19.736  0.00  0.00    +0.000 A 
ATOM     27  O   UNL     1       0.624   3.142  20.292  0.00  0.00    +0.000 OA
ATOM     28  O   UNL     1       2.115   3.569  18.613  0.00  0.00    +0.000 OA
ATOM     29  C   UNL     1       3.066   4.449  18.059  0.00  0.00    +0.000 A 
ATOM     30  C   UNL     1       3.766   3.967  16.950  0.00  0.00    +0.000 A 
ENDBRANCH  18  24
ENDBRANCH   1  18
TORSDOF 3
ENDMDL
MODEL 6
REMARK VINA RESULT:      -7.5      3.161      5.325
REMARK  Name = 
REMARK  5 active torsions:
REMARK  status: ('A' for Active; 'I' for Inactive)
REMARK    1  A    between atoms: C_1  and  C_2
REMARK    2  A    between atoms: C_6  and  C_7
REMARK    3  A    between atoms: C_7  and  N_8
REMARK    4  A    between atoms: C_12  and  C_13
REMARK    5  A    between atoms: C_12  and  C_14
REMARK                            x       y       z     vdW  Elec       q    Type
REMARK                         _______ _______ _______ _____ _____    ______ ____
ROOT
ATOM      1  N   UNL     1       0.453  13.575  19.954  0.00  0.00    +0.000 N 
ATOM      2  C   UNL     1       1.740  13.991  20.096  0.00  0.00    +0.000 C 
ATOM      3  O   UNL     1       2.756  13.383  19.812  0.00  0.00    +0.000 OA
ATOM      4  N   UNL     1       1.731  15.280  20.587  0.00  0.00    +0.000 N 
ATOM      5  C   UNL     1       0.431  15.897  20.421  0.00  0.00    +0.000 C 
ATOM      6  C   UNL     1       0.028  16.719  21.637  0.00  0.00    +0.000 C 
ATOM      7  C   UNL     1      -0.398  14.592  20.282  0.00  0.00    +0.000 C 
ATOM      8  O   UNL     1      -1.617  14.519  20.312  0.00  0.00    +0.000 OA
ATOM      9  H   UNL     1       2.599  15.807  20.555  0.00  0.00    +0.000 HD
ENDROOT
BRANCH   5  10
ATOM     10  C   UNL     1       0.337  16.708  19.125  0.00  0.00    +0.000 A 
ATOM     11  C   UNL     1       1.451  16.834  18.270  0.00  0.00    +0.000 A 
ATOM     12  C   UNL     1       1.387  17.623  17.124  0.00  0.00    +0.000 A 
ATOM     13  F   UNL     1       2.474  17.747  16.354  0.00  0.00    +0.000 F 
ATOM     14  C   UNL     1       0.221  18.288  16.777  0.00  0.00    +0.000 A 
ATOM     15  C   UNL     1      -0.903  18.154  17.589  0.00  0.00    +0.000 A 
ATOM     16  C   UNL     1      -0.841  17.366  18.741  0.00  0.00    +0.000 A 
ATOM     17  F   UNL     1      -1.948  17.260  19.490  0.00  0.00    +0.000 F 
ENDBRANCH   5  10
BRANCH   1  18
ATOM     18  C   UNL     1       0.057  12.361  19.276  0.00  0.00    +0.000 C 
BRANCH  18  24
ATOM     19  C   UNL     1       2.958   6.349  18.097  0.00  0.00    +0.000 C 
ATOM     20  C   UNL     1       2.340   7.617  18.607  0.00  0.00    +0.000 A 
ATOM     21  C   UNL     1       2.245   8.752  17.797  0.00  0.00    +0.000 A 
ATOM     22  C   UNL     1       1.629   9.921  18.267  0.00  0.00    +0.000 A 
ATOM     23  C   UNL     1       1.092   9.986  19.558  0.00  0.00    +0.000 A 
ATOM     24  C   UNL     1       0.359  11.142  20.104  0.00  0.00    +0.000 A 
ATOM     25  C   UNL     1      -0.001  11.107  21.397  0.00  0.00    +0.000 A 
ATOM     26  C   UNL     1       0.260   9.970  22.288  0.00  0.00    +0.000 A 
ATOM     27  O   UNL     1      -0.037  10.021  23.475  0.00  0.00    +0.000 OA
ATOM     28  O   UNL     1       0.837   8.853  21.715  0.00  0.00    +0.000 OA
ATOM     29  C   UNL     1       1.261   8.864  20.371  0.00  0.00    +0.000 A 
ATOM     30  C   UNL     1       1.867   7.690  19.918  0.00  0.00    +0.000 A 
ENDBRANCH  18  24
ENDBRANCH   1  18
TORSDOF 3
ENDMDL
MODEL 7
REMARK VINA RESULT:      -7.5      3.253      8.001
REMARK  Name = 
REMARK  5 active torsions:
REMARK  status: ('A' for Active; 'I' for Inactive)
REMARK    1  A    between atoms: C_1  and  C_2
REMARK    2  A    between atoms: C_6  and  C_7
REMARK    3  A    between atoms: C_7  and  N_8
REMARK    4  A    between atoms: C_12  and  C_13
REMARK    5  A    between atoms: C_12  and  C_14
REMARK                            x       y       z     vdW  Elec       q    Type
REMARK                         _______ _______ _______ _____ _____    ______ ____
ROOT
ATOM      1  N   UNL     1       2.273   7.954  18.385  0.00  0.00    +0.000 N 
ATOM      2  C   UNL     1       1.984   7.722  19.693  0.00  0.00    +0.000 C 
ATOM      3  O   UNL     1       1.074   8.193  20.351  0.00  0.00    +0.000 OA
ATOM      4  N   UNL     1       2.882   6.796  20.182  0.00  0.00    +0.000 N 
ATOM      5  C   UNL     1       3.555   6.098  19.106  0.00  0.00    +0.000 C 
ATOM      6  C   UNL     1       5.035   5.892  19.394  0.00  0.00    +0.000 C 
ATOM      7  C   UNL     1       3.304   7.149  17.992  0.00  0.00    +0.000 C 
ATOM      8  O   UNL     1       3.836   7.158  16.891  0.00  0.00    +0.000 OA
ATOM      9  H   UNL     1       2.678   6.362  21.078  0.00  0.00    +0.000 HD
ENDROOT
BRANCH   5  10
ATOM     10  C   UNL     1       2.855   4.784  18.743  0.00  0.00    +0.000 A 
ATOM     11  C   UNL     1       1.719   4.350  19.456  0.00  0.00    +0.000 A 
ATOM     12  C   UNL     1       1.120   3.126  19.169  0.00  0.00    +0.000 A 
ATOM     13  F   UNL     1       0.064   2.731  19.890  0.00  0.00    +0.000 F 
ATOM     14  C   UNL     1       1.606   2.310  18.159  0.00  0.00    +0.000 A 
ATOM     15  C   UNL     1       2.709   2.731  17.419  0.00  0.00    +0.000 A 
ATOM     16  C   UNL     1       3.314   3.956  17.707  0.00  0.00    +0.000 A 
ATOM     17  F   UNL     1       4.368   4.326  16.965  0.00  0.00    +0.000 F 
ENDBRANCH   5  10
BRANCH   1  18
ATOM     18  C   UNL     1       1.430   8.706  17.483  0.00  0.00    +0.000 C 
BRANCH  18  24
ATOM     19  C   UNL     1      -4.496  11.868  18.391  0.00  0.00    +0.000 C 
ATOM     20  C   UNL     1      -3.091  11.346  18.353  0.00  0.00    +0.000 A 
ATOM     21  C   UNL     1      -2.814  10.048  17.913  0.00  0.00    +0.000 A 
ATOM     22  C   UNL     1      -1.494   9.580  17.841  0.00  0.00    +0.000 A 
ATOM     23  C   UNL     1      -0.416  10.396  18.207  0.00  0.00    +0.000 A 
ATOM     24  C   UNL     1       1.002  10.015  18.087  0.00  0.00    +0.000 A 
ATOM     25  C   UNL     1       1.925  10.855  18.583  0.00  0.00    +0.000 A 
ATOM     26  C   UNL     1       1.605  12.147  19.202  0.00  0.00    +0.000 A 
ATOM     27  O   UNL     1       2.485  12.843  19.693  0.00  0.00    +0.000 OA
ATOM     28  O   UNL     1       0.278  12.531  19.187  0.00  0.00    +0.000 OA
ATOM     29  C   UNL     1      -0.723  11.662  18.709  0.00  0.00    +0.000 A 
ATOM     30  C   UNL     1      -2.031  12.146  18.783  0.00  0.00    +0.000 A 
ENDBRANCH  18  24
ENDBRANCH   1  18
TORSDOF 3
ENDMDL
MODEL 8
REMARK VINA RESULT:      -7.4      4.277      6.173
REMARK  Name = 
REMARK  5 active torsions:
REMARK  status: ('A' for Active; 'I' for Inactive)
REMARK    1  A    between atoms: C_1  and  C_2
REMARK    2  A    between atoms: C_6  and  C_7
REMARK    3  A    between atoms: C_7  and  N_8
REMARK    4  A    between atoms: C_12  and  C_13
REMARK    5  A    between atoms: C_12  and  C_14
REMARK                            x       y       z     vdW  Elec       q    Type
REMARK                         _______ _______ _______ _____ _____    ______ ____
ROOT
ATOM      1  N   UNL     1       3.851   2.670  18.214  0.00  0.00    +0.000 N 
ATOM      2  C   UNL     1       4.130   2.793  19.540  0.00  0.00    +0.000 C 
ATOM      3  O   UNL     1       5.190   2.582  20.101  0.00  0.00    +0.000 OA
ATOM      4  N   UNL     1       3.002   3.258  20.183  0.00  0.00    +0.000 N 
ATOM      5  C   UNL     1       2.057   3.825  19.243  0.00  0.00    +0.000 C 
ATOM      6  C   UNL     1       0.621   3.448  19.577  0.00  0.00    +0.000 C 
ATOM      7  C   UNL     1       2.580   3.108  17.969  0.00  0.00    +0.000 C 
ATOM      8  O   UNL     1       2.011   3.076  16.889  0.00  0.00    +0.000 OA
ATOM      9  H   UNL     1       3.104   3.597  21.135  0.00  0.00    +0.000 HD
ENDROOT
BRANCH   5  10
ATOM     10  C   UNL     1       2.231   5.339  19.091  0.00  0.00    +0.000 A 
ATOM     11  C   UNL     1       2.827   5.886  17.936  0.00  0.00    +0.000 A 
ATOM     12  C   UNL     1       3.043   7.257  17.825  0.00  0.00    +0.000 A 
ATOM     13  F   UNL     1       3.643   7.737  16.729  0.00  0.00    +0.000 F 
ATOM     14  C   UNL     1       2.658   8.127  18.834  0.00  0.00    +0.000 A 
ATOM     15  C   UNL     1       2.039   7.615  19.971  0.00  0.00    +0.000 A 
ATOM     16  C   UNL     1       1.824   6.240  20.087  0.00  0.00    +0.000 A 
ATOM     17  F   UNL     1       1.218   5.790  21.196  0.00  0.00    +0.000 F 
ENDBRANCH   5  10
BRANCH   1  18
ATOM     18  C   UNL     1       4.839   2.408  17.192  0.00  0.00    +0.000 C 
BRANCH  18  24
ATOM     19  C   UNL     1       7.556   5.086  11.590  0.00  0.00    +0.000 C 
ATOM     20  C   UNL     1       7.008   4.722  12.936  0.00  0.00    +0.000 A 
ATOM     21  C   UNL     1       6.128   3.647  13.093  0.00  0.00    +0.000 A 
ATOM     22  C   UNL     1       5.652   3.287  14.362  0.00  0.00    +0.000 A 
ATOM     23  C   UNL     1       6.041   3.992  15.508  0.00  0.00    +0.000 A 
ATOM     24  C   UNL     1       5.653   3.634  16.883  0.00  0.00    +0.000 A 
ATOM     25  C   UNL     1       6.008   4.467  17.875  0.00  0.00    +0.000 A 
ATOM     26  C   UNL     1       6.790   5.693  17.672  0.00  0.00    +0.000 A 
ATOM     27  O   UNL     1       7.031   6.446  18.608  0.00  0.00    +0.000 OA
ATOM     28  O   UNL     1       7.244   5.935  16.390  0.00  0.00    +0.000 OA
ATOM     29  C   UNL     1       6.863   5.104  15.317  0.00  0.00    +0.000 A 
ATOM     30  C   UNL     1       7.351   5.473  14.062  0.00  0.00    +0.000 A 
ENDBRANCH  18  24
ENDBRANCH   1  18
TORSDOF 3
ENDMDL
MODEL 9
REMARK VINA RESULT:      -7.2      5.121      7.040
REMARK  Name = 
REMARK  5 active torsions:
REMARK  status: ('A' for Active; 'I' for Inactive)
REMARK    1  A    between atoms: C_1  and  C_2
REMARK    2  A    between atoms: C_6  and  C_7
REMARK    3  A    between atoms: C_7  and  N_8
REMARK    4  A    between atoms: C_12  and  C_13
REMARK    5  A    between atoms: C_12  and  C_14
REMARK                            x       y       z     vdW  Elec       q    Type
REMARK                         _______ _______ _______ _____ _____    ______ ____
ROOT
ATOM      1  N   UNL     1       1.797  12.918  20.357  0.00  0.00    +0.000 N 
ATOM      2  C   UNL     1       2.316  12.972  19.100  0.00  0.00    +0.000 C 
ATOM      3  O   UNL     1       2.267  12.115  18.236  0.00  0.00    +0.000 OA
ATOM      4  N   UNL     1       2.891  14.212  18.918  0.00  0.00    +0.000 N 
ATOM      5  C   UNL     1       2.432  15.157  19.915  0.00  0.00    +0.000 C 
ATOM      6  C   UNL     1       3.557  16.047  20.421  0.00  0.00    +0.000 C 
ATOM      7  C   UNL     1       1.967  14.123  20.976  0.00  0.00    +0.000 C 
ATOM      8  O   UNL     1       1.660  14.381  22.131  0.00  0.00    +0.000 OA
ATOM      9  H   UNL     1       3.139  14.486  17.971  0.00  0.00    +0.000 HD
ENDROOT
BRANCH   5  10
ATOM     10  C   UNL     1       1.231  15.973  19.428  0.00  0.00    +0.000 A 
ATOM     11  C   UNL     1      -0.011  15.897  20.091  0.00  0.00    +0.000 A 
ATOM     12  C   UNL     1      -1.120  16.589  19.612  0.00  0.00    +0.000 A 
ATOM     13  F   UNL     1      -2.292  16.466  20.246  0.00  0.00    +0.000 F 
ATOM     14  C   UNL     1      -1.031  17.392  18.484  0.00  0.00    +0.000 A 
ATOM     15  C   UNL     1       0.193  17.508  17.830  0.00  0.00    +0.000 A 
ATOM     16  C   UNL     1       1.306  16.813  18.306  0.00  0.00    +0.000 A 
ATOM     17  F   UNL     1       2.467  16.959  17.650  0.00  0.00    +0.000 F 
ENDBRANCH   5  10
BRANCH   1  18
ATOM     18  C   UNL     1       0.940  11.860  20.842  0.00  0.00    +0.000 C 
BRANCH  18  24
ATOM     19  C   UNL     1      -3.132   9.813  15.824  0.00  0.00    +0.000 C 
ATOM     20  C   UNL     1      -2.448  10.346  17.047  0.00  0.00    +0.000 A 
ATOM     21  C   UNL     1      -1.156   9.939  17.390  0.00  0.00    +0.000 A 
ATOM     22  C   UNL     1      -0.507  10.473  18.512  0.00  0.00    +0.000 A 
ATOM     23  C   UNL     1      -1.133  11.429  19.323  0.00  0.00    +0.000 A 
ATOM     24  C   UNL     1      -0.498  12.100  20.470  0.00  0.00    +0.000 A 
ATOM     25  C   UNL     1      -1.256  12.911  21.225  0.00  0.00    +0.000 A 
ATOM     26  C   UNL     1      -2.670  13.197  20.951  0.00  0.00    +0.000 A 
ATOM     27  O   UNL     1      -3.328  13.897  21.711  0.00  0.00    +0.000 OA
ATOM     28  O   UNL     1      -3.201  12.652  19.799  0.00  0.00    +0.000 OA
ATOM     29  C   UNL     1      -2.449  11.767  19.000  0.00  0.00    +0.000 A 
ATOM     30  C   UNL     1      -3.108  11.248  17.884  0.00  0.00    +0.000 A 
ENDBRANCH  18  24
ENDBRANCH   1  18
TORSDOF 3
ENDMDL
