MODEL 1
REMARK VINA RESULT:      -8.1      0.000      0.000
REMARK  Name = 
REMARK  2 active torsions:
REMARK  status: ('A' for Active; 'I' for Inactive)
REMARK    1  A    between atoms: C_2  and  C_3
REMARK    2  A    between atoms: C_3  and  N_4
REMARK                            x       y       z     vdW  Elec       q    Type
REMARK                         _______ _______ _______ _____ _____    ______ ____
ROOT
ATOM      1  C   UNL     1       0.737   8.660  18.854  0.00  0.00    +0.000 C 
ENDROOT
BRANCH   1   3
ATOM      2  O   UNL     1       2.576   9.468  17.521  0.00  0.00    +0.000 OA
ATOM      3  C   UNL     1       2.145   8.553  18.229  0.00  0.00    +0.000 C 
ATOM      4  N   UNL     1       2.836   7.356  18.350  0.00  0.00    +0.000 N 
ATOM      5  C   UNL     1       4.034   7.116  17.543  0.00  0.00    +0.000 C 
ATOM      6  C   UNL     1       4.212   5.647  17.085  0.00  0.00    +0.000 C 
ATOM      7  C   UNL     1       3.286   4.637  17.726  0.00  0.00    +0.000 A 
ATOM      8  C   UNL     1       3.215   3.322  17.245  0.00  0.00    +0.000 A 
ATOM      9  C   UNL     1       2.284   2.423  17.776  0.00  0.00    +0.000 A 
ATOM     10  C   UNL     1       1.414   2.831  18.785  0.00  0.00    +0.000 A 
ATOM     11  C   UNL     1       1.513   4.119  19.292  0.00  0.00    +0.000 A 
ATOM     12  F   UNL     1       0.686   4.497  20.277  0.00  0.00    +0.000 F 
ATOM     13  C   UNL     1       2.450   5.021  18.787  0.00  0.00    +0.000 A 
ATOM     14  C   UNL     1       2.592   6.379  19.391  0.00  0.00    +0.000 C 
ENDBRANCH   1   3
BRANCH   1  15
ATOM     15  N   UNL     1       0.420   9.756  19.769  0.00  0.00    +0.000 N 
ATOM     16  C   UNL     1       0.708   9.551  21.113  0.00  0.00    +0.000 A 
ATOM     17  O   UNL     1       1.335   8.583  21.546  0.00  0.00    +0.000 OA
ATOM     18  N   UNL     1       0.233  10.471  22.000  0.00  0.00    +0.000 N 
ATOM     19  C   UNL     1      -0.560  11.557  21.647  0.00  0.00    +0.000 A 
ATOM     20  C   UNL     1      -1.009  12.452  22.619  0.00  0.00    +0.000 A 
ATOM     21  C   UNL     1      -1.793  13.545  22.242  0.00  0.00    +0.000 A 
ATOM     22  C   UNL     1      -2.130  13.739  20.902  0.00  0.00    +0.000 A 
ATOM     23  C   UNL     1      -1.698  12.830  19.937  0.00  0.00    +0.000 A 
ATOM     24  C   UNL     1      -0.914  11.735  20.317  0.00  0.00    +0.000 A 
ATOM     25  C   UNL     1      -0.470  10.732  19.329  0.00  0.00    +0.000 A 
ATOM     26  O   UNL     1      -0.915  10.800  18.186  0.00  0.00    +0.000 OA
ATOM     27  H   UNL     1       0.463  10.299  22.973  0.00  0.00    +0.000 HD
ENDBRANCH   1  15
TORSDOF 2
ENDMDL
MODEL 2
REMARK VINA RESULT:      -7.6      1.980      3.570
REMARK  Name = 
REMARK  2 active torsions:
REMARK  status: ('A' for Active; 'I' for Inactive)
REMARK    1  A    between atoms: C_2  and  C_3
REMARK    2  A    between atoms: C_3  and  N_4
REMARK                            x       y       z     vdW  Elec       q    Type
REMARK                         _______ _______ _______ _____ _____    ______ ____
ROOT
ATOM      1  C   UNL     1       2.565   7.574  19.807  0.00  0.00    +0.000 C 
ENDROOT
BRANCH   1   3
ATOM      2  O   UNL     1       1.692   5.595  20.872  0.00  0.00    +0.000 OA
ATOM      3  C   UNL     1       2.187   6.078  19.848  0.00  0.00    +0.000 C 
ATOM      4  N   UNL     1       2.557   5.269  18.784  0.00  0.00    +0.000 N 
ATOM      5  C   UNL     1       2.473   3.812  18.905  0.00  0.00    +0.000 C 
ATOM      6  C   UNL     1       3.596   3.045  18.164  0.00  0.00    +0.000 C 
ATOM      7  C   UNL     1       4.456   3.867  17.231  0.00  0.00    +0.000 A 
ATOM      8  C   UNL     1       5.622   3.329  16.668  0.00  0.00    +0.000 A 
ATOM      9  C   UNL     1       6.466   4.128  15.889  0.00  0.00    +0.000 A 
ATOM     10  C   UNL     1       6.157   5.469  15.671  0.00  0.00    +0.000 A 
ATOM     11  C   UNL     1       4.982   5.990  16.192  0.00  0.00    +0.000 A 
ATOM     12  F   UNL     1       4.681   7.277  15.961  0.00  0.00    +0.000 F 
ATOM     13  C   UNL     1       4.119   5.202  16.954  0.00  0.00    +0.000 A 
ATOM     14  C   UNL     1       2.824   5.758  17.447  0.00  0.00    +0.000 C 
ENDBRANCH   1   3
BRANCH   1  15
ATOM     15  N   UNL     1       1.533   8.588  19.590  0.00  0.00    +0.000 N 
ATOM     16  C   UNL     1       1.495   9.182  18.335  0.00  0.00    +0.000 A 
ATOM     17  O   UNL     1       2.168   8.809  17.372  0.00  0.00    +0.000 OA
ATOM     18  N   UNL     1       0.682  10.266  18.182  0.00  0.00    +0.000 N 
ATOM     19  C   UNL     1      -0.059  10.835  19.211  0.00  0.00    +0.000 A 
ATOM     20  C   UNL     1      -0.866  11.948  18.971  0.00  0.00    +0.000 A 
ATOM     21  C   UNL     1      -1.614  12.498  20.016  0.00  0.00    +0.000 A 
ATOM     22  C   UNL     1      -1.550  11.941  21.294  0.00  0.00    +0.000 A 
ATOM     23  C   UNL     1      -0.725  10.843  21.534  0.00  0.00    +0.000 A 
ATOM     24  C   UNL     1       0.023  10.296  20.487  0.00  0.00    +0.000 A 
ATOM     25  C   UNL     1       0.936   9.156  20.711  0.00  0.00    +0.000 A 
ATOM     26  O   UNL     1       1.131   8.783  21.866  0.00  0.00    +0.000 OA
ATOM     27  H   UNL     1       0.670  10.675  17.254  0.00  0.00    +0.000 HD
ENDBRANCH   1  15
TORSDOF 2
ENDMDL
MODEL 3
REMARK VINA RESULT:      -7.5      2.210      8.032
REMARK  Name = 
REMARK  2 active torsions:
REMARK  status: ('A' for Active; 'I' for Inactive)
REMARK    1  A    between atoms: C_2  and  C_3
REMARK    2  A    between atoms: C_3  and  N_4
REMARK                            x       y       z     vdW  Elec       q    Type
REMARK                         _______ _______ _______ _____ _____    ______ ____
ROOT
ATOM      1  C   UNL     1       0.679   8.744  19.807  0.00  0.00    +0.000 C 
ENDROOT
BRANCH   1   3
ATOM      2  O   UNL     1       1.470   9.944  21.742  0.00  0.00    +0.000 OA
ATOM      3  C   UNL     1       0.795   9.991  20.709  0.00  0.00    +0.000 C 
ATOM      4  N   UNL     1       0.006  11.096  20.420  0.00  0.00    +0.000 N 
ATOM      5  C   UNL     1      -0.126  12.178  21.396  0.00  0.00    +0.000 C 
ATOM      6  C   UNL     1      -1.525  12.841  21.428  0.00  0.00    +0.000 C 
ATOM      7  C   UNL     1      -2.463  12.463  20.303  0.00  0.00    +0.000 A 
ATOM      8  C   UNL     1      -3.814  12.836  20.338  0.00  0.00    +0.000 A 
ATOM      9  C   UNL     1      -4.697  12.397  19.346  0.00  0.00    +0.000 A 
ATOM     10  C   UNL     1      -4.240  11.577  18.316  0.00  0.00    +0.000 A 
ATOM     11  C   UNL     1      -2.894  11.243  18.257  0.00  0.00    +0.000 A 
ATOM     12  F   UNL     1      -2.458  10.471  17.251  0.00  0.00    +0.000 F 
ATOM     13  C   UNL     1      -1.998  11.690  19.227  0.00  0.00    +0.000 A 
ATOM     14  C   UNL     1      -0.541  11.382  19.110  0.00  0.00    +0.000 C 
ENDBRANCH   1   3
BRANCH   1  15
ATOM     15  N   UNL     1       1.883   8.103  19.279  0.00  0.00    +0.000 N 
ATOM     16  C   UNL     1       2.368   8.584  18.069  0.00  0.00    +0.000 A 
ATOM     17  O   UNL     1       1.938   9.591  17.503  0.00  0.00    +0.000 OA
ATOM     18  N   UNL     1       3.359   7.869  17.465  0.00  0.00    +0.000 N 
ATOM     19  C   UNL     1       3.867   6.672  17.958  0.00  0.00    +0.000 A 
ATOM     20  C   UNL     1       4.882   5.999  17.275  0.00  0.00    +0.000 A 
ATOM     21  C   UNL     1       5.389   4.805  17.794  0.00  0.00    +0.000 A 
ATOM     22  C   UNL     1       4.880   4.284  18.984  0.00  0.00    +0.000 A 
ATOM     23  C   UNL     1       3.850   4.948  19.651  0.00  0.00    +0.000 A 
ATOM     24  C   UNL     1       3.344   6.143  19.129  0.00  0.00    +0.000 A 
ATOM     25  C   UNL     1       2.230   6.854  19.786  0.00  0.00    +0.000 A 
ATOM     26  O   UNL     1       1.661   6.306  20.728  0.00  0.00    +0.000 OA
ATOM     27  H   UNL     1       3.697   8.246  16.586  0.00  0.00    +0.000 HD
ENDBRANCH   1  15
TORSDOF 2
ENDMDL
MODEL 4
REMARK VINA RESULT:      -7.5      2.117      3.626
REMARK  Name = 
REMARK  2 active torsions:
REMARK  status: ('A' for Active; 'I' for Inactive)
REMARK    1  A    between atoms: C_2  and  C_3
REMARK    2  A    between atoms: C_3  and  N_4
REMARK                            x       y       z     vdW  Elec       q    Type
REMARK                         _______ _______ _______ _____ _____    ______ ____
ROOT
ATOM      1  C   UNL     1       2.300   7.945  20.032  0.00  0.00    +0.000 C 
ENDROOT
BRANCH   1   3
ATOM      2  O   UNL     1       1.328   5.845  20.707  0.00  0.00    +0.000 OA
ATOM      3  C   UNL     1       2.066   6.425  19.903  0.00  0.00    +0.000 C 
ATOM      4  N   UNL     1       2.816   5.713  18.978  0.00  0.00    +0.000 N 
ATOM      5  C   UNL     1       2.832   4.249  19.018  0.00  0.00    +0.000 C 
ATOM      6  C   UNL     1       4.192   3.616  18.634  0.00  0.00    +0.000 C 
ATOM      7  C   UNL     1       5.217   4.557  18.042  0.00  0.00    +0.000 A 
ATOM      8  C   UNL     1       6.543   4.144  17.848  0.00  0.00    +0.000 A 
ATOM      9  C   UNL     1       7.508   5.050  17.396  0.00  0.00    +0.000 A 
ATOM     10  C   UNL     1       7.159   6.374  17.140  0.00  0.00    +0.000 A 
ATOM     11  C   UNL     1       5.839   6.773  17.289  0.00  0.00    +0.000 A 
ATOM     12  F   UNL     1       5.507   8.044  17.021  0.00  0.00    +0.000 F 
ATOM     13  C   UNL     1       4.861   5.876  17.720  0.00  0.00    +0.000 A 
ATOM     14  C   UNL     1       3.432   6.301  17.807  0.00  0.00    +0.000 C 
ENDBRANCH   1   3
BRANCH   1  15
ATOM     15  N   UNL     1       1.164   8.855  20.176  0.00  0.00    +0.000 N 
ATOM     16  C   UNL     1       0.743   9.515  19.029  0.00  0.00    +0.000 A 
ATOM     17  O   UNL     1       1.165   9.273  17.897  0.00  0.00    +0.000 OA
ATOM     18  N   UNL     1      -0.173  10.515  19.184  0.00  0.00    +0.000 N 
ATOM     19  C   UNL     1      -0.660  10.940  20.415  0.00  0.00    +0.000 A 
ATOM     20  C   UNL     1      -1.594  11.974  20.487  0.00  0.00    +0.000 A 
ATOM     21  C   UNL     1      -2.082  12.379  21.732  0.00  0.00    +0.000 A 
ATOM     22  C   UNL     1      -1.633  11.757  22.898  0.00  0.00    +0.000 A 
ATOM     23  C   UNL     1      -0.682  10.740  22.823  0.00  0.00    +0.000 A 
ATOM     24  C   UNL     1      -0.194  10.338  21.575  0.00  0.00    +0.000 A 
ATOM     25  C   UNL     1       0.840   9.290  21.458  0.00  0.00    +0.000 A 
ATOM     26  O   UNL     1       1.367   8.871  22.487  0.00  0.00    +0.000 OA
ATOM     27  H   UNL     1      -0.466  10.975  18.330  0.00  0.00    +0.000 HD
ENDBRANCH   1  15
TORSDOF 2
ENDMDL
MODEL 5
REMARK VINA RESULT:      -7.5      2.348      7.675
REMARK  Name = 
REMARK  2 active torsions:
REMARK  status: ('A' for Active; 'I' for Inactive)
REMARK    1  A    between atoms: C_2  and  C_3
REMARK    2  A    between atoms: C_3  and  N_4
REMARK                            x       y       z     vdW  Elec       q    Type
REMARK                         _______ _______ _______ _____ _____    ______ ____
ROOT
ATOM      1  C   UNL     1       1.186   7.288  19.637  0.00  0.00    +0.000 C 
ENDROOT
BRANCH   1   3
ATOM      2  O   UNL     1       1.943   8.422  21.625  0.00  0.00    +0.000 OA
ATOM      3  C   UNL     1       1.397   8.534  20.523  0.00  0.00    +0.000 C 
ATOM      4  N   UNL     1       0.825   9.735  20.128  0.00  0.00    +0.000 N 
ATOM      5  C   UNL     1       0.759  10.859  21.064  0.00  0.00    +0.000 C 
ATOM      6  C   UNL     1      -0.515  11.728  20.928  0.00  0.00    +0.000 C 
ATOM      7  C   UNL     1      -1.375  11.458  19.714  0.00  0.00    +0.000 A 
ATOM      8  C   UNL     1      -2.648  12.034  19.592  0.00  0.00    +0.000 A 
ATOM      9  C   UNL     1      -3.477  11.698  18.516  0.00  0.00    +0.000 A 
ATOM     10  C   UNL     1      -3.046  10.783  17.559  0.00  0.00    +0.000 A 
ATOM     11  C   UNL     1      -1.770  10.246  17.655  0.00  0.00    +0.000 A 
ATOM     12  F   UNL     1      -1.355   9.381  16.718  0.00  0.00    +0.000 F 
ATOM     13  C   UNL     1      -0.924  10.586  18.710  0.00  0.00    +0.000 A 
ATOM     14  C   UNL     1       0.472  10.054  18.761  0.00  0.00    +0.000 C 
ENDBRANCH   1   3
BRANCH   1  15
ATOM     15  N   UNL     1       2.334   6.496  19.196  0.00  0.00    +0.000 N 
ATOM     16  C   UNL     1       2.753   5.477  20.042  0.00  0.00    +0.000 A 
ATOM     17  O   UNL     1       2.139   5.116  21.047  0.00  0.00    +0.000 OA
ATOM     18  N   UNL     1       3.938   4.869  19.747  0.00  0.00    +0.000 N 
ATOM     19  C   UNL     1       4.764   5.243  18.693  0.00  0.00    +0.000 A 
ATOM     20  C   UNL     1       5.964   4.569  18.461  0.00  0.00    +0.000 A 
ATOM     21  C   UNL     1       6.775   4.951  17.389  0.00  0.00    +0.000 A 
ATOM     22  C   UNL     1       6.390   6.003  16.558  0.00  0.00    +0.000 A 
ATOM     23  C   UNL     1       5.201   6.689  16.807  0.00  0.00    +0.000 A 
ATOM     24  C   UNL     1       4.392   6.305  17.882  0.00  0.00    +0.000 A 
ATOM     25  C   UNL     1       3.145   7.030  18.199  0.00  0.00    +0.000 A 
ATOM     26  O   UNL     1       2.899   8.065  17.583  0.00  0.00    +0.000 OA
ATOM     27  H   UNL     1       4.216   4.126  20.378  0.00  0.00    +0.000 HD
ENDBRANCH   1  15
TORSDOF 2
ENDMDL
MODEL 6
REMARK VINA RESULT:      -7.4      4.745      8.834
REMARK  Name = 
REMARK  2 active torsions:
REMARK  status: ('A' for Active; 'I' for Inactive)
REMARK    1  A    between atoms: C_2  and  C_3
REMARK    2  A    between atoms: C_3  and  N_4
REMARK                            x       y       z     vdW  Elec       q    Type
REMARK                         _______ _______ _______ _____ _____    ______ ____
ROOT
ATOM      1  C   UNL     1       5.952   5.104  17.646  0.00  0.00    +0.000 C 
ENDROOT
BRANCH   1   3
ATOM      2  O   UNL     1       5.120   7.357  17.854  0.00  0.00    +0.000 OA
ATOM      3  C   UNL     1       4.845   6.153  17.884  0.00  0.00    +0.000 C 
ATOM      4  N   UNL     1       3.591   5.716  18.285  0.00  0.00    +0.000 N 
ATOM      5  C   UNL     1       2.606   6.674  18.790  0.00  0.00    +0.000 C 
ATOM      6  C   UNL     1       1.703   6.126  19.922  0.00  0.00    +0.000 C 
ATOM      7  C   UNL     1       1.787   4.636  20.172  0.00  0.00    +0.000 A 
ATOM      8  C   UNL     1       1.176   4.061  21.295  0.00  0.00    +0.000 A 
ATOM      9  C   UNL     1       1.344   2.701  21.574  0.00  0.00    +0.000 A 
ATOM     10  C   UNL     1       2.125   1.906  20.739  0.00  0.00    +0.000 A 
ATOM     11  C   UNL     1       2.694   2.464  19.603  0.00  0.00    +0.000 A 
ATOM     12  F   UNL     1       3.428   1.688  18.793  0.00  0.00    +0.000 F 
ATOM     13  C   UNL     1       2.520   3.815  19.300  0.00  0.00    +0.000 A 
ATOM     14  C   UNL     1       3.078   4.384  18.037  0.00  0.00    +0.000 C 
ENDBRANCH   1   3
BRANCH   1  15
ATOM     15  N   UNL     1       6.468   4.872  16.297  0.00  0.00    +0.000 N 
ATOM     16  C   UNL     1       7.425   5.765  15.831  0.00  0.00    +0.000 A 
ATOM     17  O   UNL     1       7.958   6.633  16.526  0.00  0.00    +0.000 OA
ATOM     18  N   UNL     1       7.762   5.687  14.512  0.00  0.00    +0.000 N 
ATOM     19  C   UNL     1       7.170   4.812  13.607  0.00  0.00    +0.000 A 
ATOM     20  C   UNL     1       7.571   4.798  12.271  0.00  0.00    +0.000 A 
ATOM     21  C   UNL     1       6.974   3.903  11.380  0.00  0.00    +0.000 A 
ATOM     22  C   UNL     1       5.978   3.031  11.822  0.00  0.00    +0.000 A 
ATOM     23  C   UNL     1       5.565   3.064  13.154  0.00  0.00    +0.000 A 
ATOM     24  C   UNL     1       6.163   3.963  14.043  0.00  0.00    +0.000 A 
ATOM     25  C   UNL     1       5.726   4.053  15.451  0.00  0.00    +0.000 A 
ATOM     26  O   UNL     1       4.731   3.419  15.796  0.00  0.00    +0.000 OA
ATOM     27  H   UNL     1       8.465   6.348  14.201  0.00  0.00    +0.000 HD
ENDBRANCH   1  15
TORSDOF 2
ENDMDL
MODEL 7
REMARK VINA RESULT:      -7.4      1.200      2.069
REMARK  Name = 
REMARK  2 active torsions:
REMARK  status: ('A' for Active; 'I' for Inactive)
REMARK    1  A    between atoms: C_2  and  C_3
REMARK    2  A    between atoms: C_3  and  N_4
REMARK                            x       y       z     vdW  Elec       q    Type
REMARK                         _______ _______ _______ _____ _____    ______ ____
ROOT
ATOM      1  C   UNL     1       0.834   8.701  19.444  0.00  0.00    +0.000 C 
ENDROOT
BRANCH   1   3
ATOM      2  O   UNL     1       2.544   9.385  17.889  0.00  0.00    +0.000 OA
ATOM      3  C   UNL     1       2.138   8.496  18.643  0.00  0.00    +0.000 C 
ATOM      4  N   UNL     1       2.745   7.248  18.670  0.00  0.00    +0.000 N 
ATOM      5  C   UNL     1       3.809   6.930  17.716  0.00  0.00    +0.000 C 
ATOM      6  C   UNL     1       3.814   5.458  17.235  0.00  0.00    +0.000 C 
ATOM      7  C   UNL     1       2.904   4.512  17.986  0.00  0.00    +0.000 A 
ATOM      8  C   UNL     1       2.671   3.212  17.514  0.00  0.00    +0.000 A 
ATOM      9  C   UNL     1       1.750   2.379  18.157  0.00  0.00    +0.000 A 
ATOM     10  C   UNL     1       1.050   2.838  19.271  0.00  0.00    +0.000 A 
ATOM     11  C   UNL     1       1.311   4.109  19.765  0.00  0.00    +0.000 A 
ATOM     12  F   UNL     1       0.648   4.535  20.849  0.00  0.00    +0.000 F 
ATOM     13  C   UNL     1       2.241   4.944  19.147  0.00  0.00    +0.000 A 
ATOM     14  C   UNL     1       2.563   6.280  19.731  0.00  0.00    +0.000 C 
ENDBRANCH   1   3
BRANCH   1  15
ATOM     15  N   UNL     1       0.213  10.023  19.512  0.00  0.00    +0.000 N 
ATOM     16  C   UNL     1      -0.467  10.454  18.379  0.00  0.00    +0.000 A 
ATOM     17  O   UNL     1      -0.696   9.744  17.398  0.00  0.00    +0.000 OA
ATOM     18  N   UNL     1      -0.871  11.756  18.352  0.00  0.00    +0.000 N 
ATOM     19  C   UNL     1      -0.598  12.678  19.356  0.00  0.00    +0.000 A 
ATOM     20  C   UNL     1      -1.046  13.995  19.248  0.00  0.00    +0.000 A 
ATOM     21  C   UNL     1      -0.773  14.904  20.274  0.00  0.00    +0.000 A 
ATOM     22  C   UNL     1      -0.051  14.499  21.397  0.00  0.00    +0.000 A 
ATOM     23  C   UNL     1       0.415  13.187  21.490  0.00  0.00    +0.000 A 
ATOM     24  C   UNL     1       0.141  12.280  20.460  0.00  0.00    +0.000 A 
ATOM     25  C   UNL     1       0.649  10.894  20.506  0.00  0.00    +0.000 A 
ATOM     26  O   UNL     1       1.434  10.589  21.401  0.00  0.00    +0.000 OA
ATOM     27  H   UNL     1      -1.369  12.041  17.515  0.00  0.00    +0.000 HD
ENDBRANCH   1  15
TORSDOF 2
ENDMDL
MODEL 8
REMARK VINA RESULT:      -7.2      2.377      3.454
REMARK  Name = 
REMARK  2 active torsions:
REMARK  status: ('A' for Active; 'I' for Inactive)
REMARK    1  A    between atoms: C_2  and  C_3
REMARK    2  A    between atoms: C_3  and  N_4
REMARK                            x       y       z     vdW  Elec       q    Type
REMARK                         _______ _______ _______ _____ _____    ______ ____
ROOT
ATOM      1  C   UNL     1       1.923   9.120  19.513  0.00  0.00    +0.000 C 
ENDROOT
BRANCH   1   3
ATOM      2  O   UNL     1       1.284   7.668  21.328  0.00  0.00    +0.000 OA
ATOM      3  C   UNL     1       1.760   7.743  20.191  0.00  0.00    +0.000 C 
ATOM      4  N   UNL     1       2.300   6.627  19.567  0.00  0.00    +0.000 N 
ATOM      5  C   UNL     1       2.418   5.364  20.297  0.00  0.00    +0.000 C 
ATOM      6  C   UNL     1       3.677   4.536  19.941  0.00  0.00    +0.000 C 
ATOM      7  C   UNL     1       4.462   5.009  18.737  0.00  0.00    +0.000 A 
ATOM      8  C   UNL     1       5.722   4.468  18.443  0.00  0.00    +0.000 A 
ATOM      9  C   UNL     1       6.485   4.981  17.389  0.00  0.00    +0.000 A 
ATOM     10  C   UNL     1       6.001   6.041  16.626  0.00  0.00    +0.000 A 
ATOM     11  C   UNL     1       4.736   6.548  16.888  0.00  0.00    +0.000 A 
ATOM     12  F   UNL     1       4.268   7.555  16.136  0.00  0.00    +0.000 F 
ATOM     13  C   UNL     1       3.954   6.034  17.922  0.00  0.00    +0.000 A 
ATOM     14  C   UNL     1       2.568   6.542  18.147  0.00  0.00    +0.000 C 
ENDBRANCH   1   3
BRANCH   1  15
ATOM     15  N   UNL     1       0.755   9.969  19.281  0.00  0.00    +0.000 N 
ATOM     16  C   UNL     1       0.313  10.733  20.353  0.00  0.00    +0.000 A 
ATOM     17  O   UNL     1       0.921  10.845  21.419  0.00  0.00    +0.000 OA
ATOM     18  N   UNL     1      -0.888  11.365  20.217  0.00  0.00    +0.000 N 
ATOM     19  C   UNL     1      -1.708  11.247  19.100  0.00  0.00    +0.000 A 
ATOM     20  C   UNL     1      -2.925  11.927  19.041  0.00  0.00    +0.000 A 
ATOM     21  C   UNL     1      -3.730  11.805  17.905  0.00  0.00    +0.000 A 
ATOM     22  C   UNL     1      -3.322  11.004  16.838  0.00  0.00    +0.000 A 
ATOM     23  C   UNL     1      -2.115  10.309  16.911  0.00  0.00    +0.000 A 
ATOM     24  C   UNL     1      -1.312  10.431  18.050  0.00  0.00    +0.000 A 
ATOM     25  C   UNL     1      -0.047   9.681  18.179  0.00  0.00    +0.000 A 
ATOM     26  O   UNL     1       0.224   8.840  17.325  0.00  0.00    +0.000 OA
ATOM     27  H   UNL     1      -1.182  11.919  21.013  0.00  0.00    +0.000 HD
ENDBRANCH   1  15
TORSDOF 2
ENDMDL
MODEL 9
REMARK VINA RESULT:      -7.2      1.566      1.885
REMARK  Name = 
REMARK  2 active torsions:
REMARK  status: ('A' for Active; 'I' for Inactive)
REMARK    1  A    between atoms: C_2  and  C_3
REMARK    2  A    between atoms: C_3  and  N_4
REMARK                            x       y       z     vdW  Elec       q    Type
REMARK                         _______ _______ _______ _____ _____    ______ ____
ROOT
ATOM      1  C   UNL     1       1.804   7.958  18.440  0.00  0.00    +0.000 C 
ENDROOT
BRANCH   1   3
ATOM      2  O   UNL     1       3.998   8.049  17.445  0.00  0.00    +0.000 OA
ATOM      3  C   UNL     1       3.223   7.415  18.168  0.00  0.00    +0.000 C 
ATOM      4  N   UNL     1       3.546   6.142  18.617  0.00  0.00    +0.000 N 
ATOM      5  C   UNL     1       4.764   5.483  18.143  0.00  0.00    +0.000 C 
ATOM      6  C   UNL     1       4.632   3.951  17.962  0.00  0.00    +0.000 C 
ATOM      7  C   UNL     1       3.376   3.324  18.525  0.00  0.00    +0.000 A 
ATOM      8  C   UNL     1       3.051   1.989  18.243  0.00  0.00    +0.000 A 
ATOM      9  C   UNL     1       1.839   1.447  18.681  0.00  0.00    +0.000 A 
ATOM     10  C   UNL     1       0.940   2.233  19.399  0.00  0.00    +0.000 A 
ATOM     11  C   UNL     1       1.279   3.540  19.716  0.00  0.00    +0.000 A 
ATOM     12  F   UNL     1       0.417   4.284  20.424  0.00  0.00    +0.000 F 
ATOM     13  C   UNL     1       2.493   4.089  19.303  0.00  0.00    +0.000 A 
ATOM     14  C   UNL     1       2.874   5.474  19.713  0.00  0.00    +0.000 C 
ENDBRANCH   1   3
BRANCH   1  15
ATOM     15  N   UNL     1       1.623   9.196  19.198  0.00  0.00    +0.000 N 
ATOM     16  C   UNL     1       1.071   9.077  20.467  0.00  0.00    +0.000 A 
ATOM     17  O   UNL     1       0.868   8.003  21.035  0.00  0.00    +0.000 OA
ATOM     18  N   UNL     1       0.706  10.229  21.099  0.00  0.00    +0.000 N 
ATOM     19  C   UNL     1       0.804  11.494  20.530  0.00  0.00    +0.000 A 
ATOM     20  C   UNL     1       0.405  12.624  21.245  0.00  0.00    +0.000 A 
ATOM     21  C   UNL     1       0.522  13.888  20.661  0.00  0.00    +0.000 A 
ATOM     22  C   UNL     1       1.031  14.020  19.369  0.00  0.00    +0.000 A 
ATOM     23  C   UNL     1       1.408  12.886  18.649  0.00  0.00    +0.000 A 
ATOM     24  C   UNL     1       1.287  11.622  19.236  0.00  0.00    +0.000 A 
ATOM     25  C   UNL     1       1.641  10.396  18.492  0.00  0.00    +0.000 A 
ATOM     26  O   UNL     1       1.914  10.495  17.298  0.00  0.00    +0.000 OA
ATOM     27  H   UNL     1       0.312  10.113  22.026  0.00  0.00    +0.000 HD
ENDBRANCH   1  15
TORSDOF 2
ENDMDL
