MODEL 1
REMARK VINA RESULT:      -8.9      0.000      0.000
REMARK  Name = 
REMARK  5 active torsions:
REMARK  status: ('A' for Active; 'I' for Inactive)
REMARK    1  A    between atoms: C_1  and  C_2
REMARK    2  A    between atoms: C_8  and  C_9
REMARK    3  A    between atoms: N_11  and  C_12
REMARK    4  A    between atoms: C_12  and  C_13
REMARK    5  A    between atoms: C_12  and  C_14
REMARK                            x       y       z     vdW  Elec       q    Type
REMARK                         _______ _______ _______ _____ _____    ______ ____
ROOT
ATOM      1  C   UNL     1       2.070   6.813  19.431  0.00  0.00    +0.000 C 
ATOM      2  O   UNL     1       1.874   6.370  20.562  0.00  0.00    +0.000 OA
ATOM      3  N   UNL     1       2.509   5.978  18.426  0.00  0.00    +0.000 N 
ATOM      4  H   UNL     1       2.633   6.344  17.494  0.00  0.00    +0.000 HD
ENDROOT
BRANCH   1  12
ATOM      5  C   UNL     1      -0.635  10.139  22.993  0.00  0.00    +0.000 C 
ATOM      6  C   UNL     1       0.048  10.164  21.661  0.00  0.00    +0.000 A 
ATOM      7  C   UNL     1       0.128  11.430  20.939  0.00  0.00    +0.000 A 
ATOM      8  C   UNL     1       0.724  11.525  19.732  0.00  0.00    +0.000 A 
ATOM      9  C   UNL     1       1.298  10.365  19.137  0.00  0.00    +0.000 A 
ATOM     10  N   UNL     1       1.910  10.222  17.984  0.00  0.00    +0.000 NA
ATOM     11  C   UNL     1       2.272   8.899  17.938  0.00  0.00    +0.000 A 
ATOM     12  C   UNL     1       1.880   8.194  19.062  0.00  0.00    +0.000 A 
ATOM     13  N   UNL     1       1.223   9.161  19.841  0.00  0.00    +0.000 N 
ATOM     14  C   UNL     1       0.593   9.073  21.090  0.00  0.00    +0.000 A 
ENDBRANCH   1  12
BRANCH   3  15
ATOM     15  C   UNL     1       2.746   4.540  18.621  0.00  0.00    +0.000 C 
ATOM     16  C   UNL     1       1.684   3.728  17.884  0.00  0.00    +0.000 C 
BRANCH  15  17
ATOM     17  C   UNL     1       4.173   4.238  18.182  0.00  0.00    +0.000 A 
ATOM     18  C   UNL     1       5.241   4.785  18.943  0.00  0.00    +0.000 A 
ATOM     19  C   UNL     1       6.499   4.988  18.377  0.00  0.00    +0.000 A 
ATOM     20  C   UNL     1       6.637   4.627  17.057  0.00  0.00    +0.000 A 
ATOM     21  C   UNL     1       5.689   3.872  16.374  0.00  0.00    +0.000 A 
ATOM     22  C   UNL     1       4.440   3.668  16.922  0.00  0.00    +0.000 A 
ATOM     23  C   UNL     1       6.129   3.716  14.951  0.00  0.00    +0.000 C 
ATOM     24  C   UNL     1       7.041   4.935  14.834  0.00  0.00    +0.000 C 
ATOM     25  O   UNL     1       7.289   5.571  13.825  0.00  0.00    +0.000 OA
ATOM     26  N   UNL     1       7.488   5.223  16.128  0.00  0.00    +0.000 N 
ATOM     27  H   UNL     1       8.016   6.061  16.320  0.00  0.00    +0.000 HD
ENDBRANCH  15  17
ENDBRANCH   3  15
TORSDOF 3
ENDMDL
MODEL 2
REMARK VINA RESULT:      -8.2      2.218      8.346
REMARK  Name = 
REMARK  5 active torsions:
REMARK  status: ('A' for Active; 'I' for Inactive)
REMARK    1  A    between atoms: C_1  and  C_2
REMARK    2  A    between atoms: C_8  and  C_9
REMARK    3  A    between atoms: N_11  and  C_12
REMARK    4  A    between atoms: C_12  and  C_13
REMARK    5  A    between atoms: C_12  and  C_14
REMARK                            x       y       z     vdW  Elec       q    Type
REMARK                         _______ _______ _______ _____ _____    ______ ____
ROOT
ATOM      1  C   UNL     1       4.449   4.613  16.648  0.00  0.00    +0.000 C 
ATOM      2  O   UNL     1       3.883   3.521  16.637  0.00  0.00    +0.000 OA
ATOM      3  N   UNL     1       3.934   5.653  17.392  0.00  0.00    +0.000 N 
ATOM      4  H   UNL     1       4.425   6.534  17.423  0.00  0.00    +0.000 HD
ENDROOT
BRANCH   1  12
ATOM      5  C   UNL     1       4.822   2.761  11.405  0.00  0.00    +0.000 C 
ATOM      6  C   UNL     1       5.590   3.545  12.424  0.00  0.00    +0.000 A 
ATOM      7  C   UNL     1       6.891   4.091  12.052  0.00  0.00    +0.000 A 
ATOM      8  C   UNL     1       7.639   4.801  12.921  0.00  0.00    +0.000 A 
ATOM      9  C   UNL     1       7.155   5.035  14.240  0.00  0.00    +0.000 A 
ATOM     10  N   UNL     1       7.709   5.680  15.241  0.00  0.00    +0.000 NA
ATOM     11  C   UNL     1       6.790   5.609  16.258  0.00  0.00    +0.000 A 
ATOM     12  C   UNL     1       5.651   4.906  15.906  0.00  0.00    +0.000 A 
ATOM     13  N   UNL     1       5.904   4.515  14.582  0.00  0.00    +0.000 N 
ATOM     14  C   UNL     1       5.141   3.771  13.673  0.00  0.00    +0.000 A 
ENDBRANCH   1  12
BRANCH   3  15
ATOM     15  C   UNL     1       2.723   5.529  18.216  0.00  0.00    +0.000 C 
ATOM     16  C   UNL     1       2.869   4.365  19.193  0.00  0.00    +0.000 C 
BRANCH  15  17
ATOM     17  C   UNL     1       2.475   6.874  18.887  0.00  0.00    +0.000 A 
ATOM     18  C   UNL     1       2.201   6.891  20.281  0.00  0.00    +0.000 A 
ATOM     19  C   UNL     1       1.498   7.945  20.865  0.00  0.00    +0.000 A 
ATOM     20  C   UNL     1       1.098   8.951  20.018  0.00  0.00    +0.000 A 
ATOM     21  C   UNL     1       1.563   9.075  18.713  0.00  0.00    +0.000 A 
ATOM     22  C   UNL     1       2.254   8.037  18.123  0.00  0.00    +0.000 A 
ATOM     23  C   UNL     1       0.879  10.238  18.064  0.00  0.00    +0.000 C 
ATOM     24  C   UNL     1      -0.377  10.308  18.929  0.00  0.00    +0.000 C 
ATOM     25  O   UNL     1      -1.475  10.721  18.598  0.00  0.00    +0.000 OA
ATOM     26  N   UNL     1      -0.041   9.741  20.163  0.00  0.00    +0.000 N 
ATOM     27  H   UNL     1      -0.746   9.570  20.866  0.00  0.00    +0.000 HD
ENDBRANCH  15  17
ENDBRANCH   3  15
TORSDOF 3
ENDMDL
MODEL 3
REMARK VINA RESULT:      -7.9      2.119      3.199
REMARK  Name = 
REMARK  5 active torsions:
REMARK  status: ('A' for Active; 'I' for Inactive)
REMARK    1  A    between atoms: C_1  and  C_2
REMARK    2  A    between atoms: C_8  and  C_9
REMARK    3  A    between atoms: N_11  and  C_12
REMARK    4  A    between atoms: C_12  and  C_13
REMARK    5  A    between atoms: C_12  and  C_14
REMARK                            x       y       z     vdW  Elec       q    Type
REMARK                         _______ _______ _______ _____ _____    ______ ____
ROOT
ATOM      1  C   UNL     1       1.104   9.151  20.064  0.00  0.00    +0.000 C 
ATOM      2  O   UNL     1       1.365   9.102  21.265  0.00  0.00    +0.000 OA
ATOM      3  N   UNL     1       1.598   8.189  19.208  0.00  0.00    +0.000 N 
ATOM      4  H   UNL     1       1.349   8.218  18.231  0.00  0.00    +0.000 HD
ENDROOT
BRANCH   1  12
ATOM      5  C   UNL     1       3.139  14.338  19.925  0.00  0.00    +0.000 C 
ATOM      6  C   UNL     1       1.943  13.541  19.504  0.00  0.00    +0.000 A 
ATOM      7  C   UNL     1       0.870  14.217  18.782  0.00  0.00    +0.000 A 
ATOM      8  C   UNL     1      -0.238  13.562  18.378  0.00  0.00    +0.000 A 
ATOM      9  C   UNL     1      -0.374  12.171  18.654  0.00  0.00    +0.000 A 
ATOM     10  N   UNL     1      -1.356  11.346  18.369  0.00  0.00    +0.000 NA
ATOM     11  C   UNL     1      -0.944  10.129  18.851  0.00  0.00    +0.000 A 
ATOM     12  C   UNL     1       0.300  10.182  19.454  0.00  0.00    +0.000 A 
ATOM     13  N   UNL     1       0.663  11.533  19.337  0.00  0.00    +0.000 N 
ATOM     14  C   UNL     1       1.805  12.226  19.761  0.00  0.00    +0.000 A 
ENDBRANCH   1  12
BRANCH   3  15
ATOM     15  C   UNL     1       2.425   7.061  19.658  0.00  0.00    +0.000 C 
ATOM     16  C   UNL     1       1.619   6.155  20.586  0.00  0.00    +0.000 C 
BRANCH  15  17
ATOM     17  C   UNL     1       2.967   6.357  18.421  0.00  0.00    +0.000 A 
ATOM     18  C   UNL     1       2.503   5.045  18.136  0.00  0.00    +0.000 A 
ATOM     19  C   UNL     1       3.263   4.162  17.368  0.00  0.00    +0.000 A 
ATOM     20  C   UNL     1       4.469   4.639  16.910  0.00  0.00    +0.000 A 
ATOM     21  C   UNL     1       4.826   5.982  16.968  0.00  0.00    +0.000 A 
ATOM     22  C   UNL     1       4.085   6.863  17.728  0.00  0.00    +0.000 A 
ATOM     23  C   UNL     1       6.219   6.136  16.441  0.00  0.00    +0.000 C 
ATOM     24  C   UNL     1       6.736   4.719  16.677  0.00  0.00    +0.000 C 
ATOM     25  O   UNL     1       7.890   4.385  16.884  0.00  0.00    +0.000 OA
ATOM     26  N   UNL     1       5.616   3.882  16.678  0.00  0.00    +0.000 N 
ATOM     27  H   UNL     1       5.696   2.908  16.931  0.00  0.00    +0.000 HD
ENDBRANCH  15  17
ENDBRANCH   3  15
TORSDOF 3
ENDMDL
MODEL 4
REMARK VINA RESULT:      -7.8      1.614      2.219
REMARK  Name = 
REMARK  5 active torsions:
REMARK  status: ('A' for Active; 'I' for Inactive)
REMARK    1  A    between atoms: C_1  and  C_2
REMARK    2  A    between atoms: C_8  and  C_9
REMARK    3  A    between atoms: N_11  and  C_12
REMARK    4  A    between atoms: C_12  and  C_13
REMARK    5  A    between atoms: C_12  and  C_14
REMARK                            x       y       z     vdW  Elec       q    Type
REMARK                         _______ _______ _______ _____ _____    ______ ____
ROOT
ATOM      1  C   UNL     1       1.553   8.478  20.307  0.00  0.00    +0.000 C 
ATOM      2  O   UNL     1       1.656   8.239  21.510  0.00  0.00    +0.000 OA
ATOM      3  N   UNL     1       1.913   7.526  19.378  0.00  0.00    +0.000 N 
ATOM      4  H   UNL     1       1.791   7.719  18.396  0.00  0.00    +0.000 HD
ENDROOT
BRANCH   1  12
ATOM      5  C   UNL     1      -2.001  11.471  23.385  0.00  0.00    +0.000 C 
ATOM      6  C   UNL     1      -1.276  11.505  22.076  0.00  0.00    +0.000 A 
ATOM      7  C   UNL     1      -1.446  12.668  21.211  0.00  0.00    +0.000 A 
ATOM      8  C   UNL     1      -0.827  12.762  20.015  0.00  0.00    +0.000 A 
ATOM      9  C   UNL     1       0.021  11.705  19.576  0.00  0.00    +0.000 A 
ATOM     10  N   UNL     1       0.705  11.579  18.462  0.00  0.00    +0.000 NA
ATOM     11  C   UNL     1       1.356  10.377  18.582  0.00  0.00    +0.000 A 
ATOM     12  C   UNL     1       1.077   9.730  19.773  0.00  0.00    +0.000 A 
ATOM     13  N   UNL     1       0.183  10.601  20.416  0.00  0.00    +0.000 N 
ATOM     14  C   UNL     1      -0.473  10.511  21.652  0.00  0.00    +0.000 A 
ENDBRANCH   1  12
BRANCH   3  15
ATOM     15  C   UNL     1       2.409   6.192  19.745  0.00  0.00    +0.000 C 
ATOM     16  C   UNL     1       1.313   5.400  20.454  0.00  0.00    +0.000 C 
BRANCH  15  17
ATOM     17  C   UNL     1       2.935   5.526  18.480  0.00  0.00    +0.000 A 
ATOM     18  C   UNL     1       2.717   4.131  18.313  0.00  0.00    +0.000 A 
ATOM     19  C   UNL     1       3.545   3.365  17.493  0.00  0.00    +0.000 A 
ATOM     20  C   UNL     1       4.567   4.036  16.865  0.00  0.00    +0.000 A 
ATOM     21  C   UNL     1       4.649   5.424  16.820  0.00  0.00    +0.000 A 
ATOM     22  C   UNL     1       3.839   6.192  17.629  0.00  0.00    +0.000 A 
ATOM     23  C   UNL     1       5.911   5.811  16.114  0.00  0.00    +0.000 C 
ATOM     24  C   UNL     1       6.729   4.543  16.343  0.00  0.00    +0.000 C 
ATOM     25  O   UNL     1       7.942   4.455  16.415  0.00  0.00    +0.000 OA
ATOM     26  N   UNL     1       5.809   3.504  16.521  0.00  0.00    +0.000 N 
ATOM     27  H   UNL     1       6.113   2.584  16.804  0.00  0.00    +0.000 HD
ENDBRANCH  15  17
ENDBRANCH   3  15
TORSDOF 3
ENDMDL
MODEL 5
REMARK VINA RESULT:      -7.8      3.266      4.480
REMARK  Name = 
REMARK  5 active torsions:
REMARK  status: ('A' for Active; 'I' for Inactive)
REMARK    1  A    between atoms: C_1  and  C_2
REMARK    2  A    between atoms: C_8  and  C_9
REMARK    3  A    between atoms: N_11  and  C_12
REMARK    4  A    between atoms: C_12  and  C_13
REMARK    5  A    between atoms: C_12  and  C_14
REMARK                            x       y       z     vdW  Elec       q    Type
REMARK                         _______ _______ _______ _____ _____    ______ ____
ROOT
ATOM      1  C   UNL     1       1.140   9.448  18.735  0.00  0.00    +0.000 C 
ATOM      2  O   UNL     1       0.518   9.451  17.673  0.00  0.00    +0.000 OA
ATOM      3  N   UNL     1       2.073   8.466  18.988  0.00  0.00    +0.000 N 
ATOM      4  H   UNL     1       2.602   8.493  19.846  0.00  0.00    +0.000 HD
ENDROOT
BRANCH   1  12
ATOM      5  C   UNL     1       3.046  14.616  17.887  0.00  0.00    +0.000 C 
ATOM      6  C   UNL     1       2.324  13.791  18.906  0.00  0.00    +0.000 A 
ATOM      7  C   UNL     1       1.890  14.429  20.145  0.00  0.00    +0.000 A 
ATOM      8  C   UNL     1       1.240  13.744  21.108  0.00  0.00    +0.000 A 
ATOM      9  C   UNL     1       0.959  12.360  20.921  0.00  0.00    +0.000 A 
ATOM     10  N   UNL     1       0.356  11.506  21.717  0.00  0.00    +0.000 NA
ATOM     11  C   UNL     1       0.345  10.324  21.020  0.00  0.00    +0.000 A 
ATOM     12  C   UNL     1       0.953  10.423  19.781  0.00  0.00    +0.000 A 
ATOM     13  N   UNL     1       1.370  11.762  19.728  0.00  0.00    +0.000 N 
ATOM     14  C   UNL     1       2.054  12.482  18.739  0.00  0.00    +0.000 A 
ENDBRANCH   1  12
BRANCH   3  15
ATOM     15  C   UNL     1       2.399   7.400  18.030  0.00  0.00    +0.000 C 
ATOM     16  C   UNL     1       3.865   7.496  17.615  0.00  0.00    +0.000 C 
BRANCH  15  17
ATOM     17  C   UNL     1       2.021   6.069  18.667  0.00  0.00    +0.000 A 
ATOM     18  C   UNL     1       2.153   5.936  20.075  0.00  0.00    +0.000 A 
ATOM     19  C   UNL     1       2.314   4.683  20.669  0.00  0.00    +0.000 A 
ATOM     20  C   UNL     1       2.335   3.605  19.816  0.00  0.00    +0.000 A 
ATOM     21  C   UNL     1       1.965   3.689  18.478  0.00  0.00    +0.000 A 
ATOM     22  C   UNL     1       1.807   4.921  17.878  0.00  0.00    +0.000 A 
ATOM     23  C   UNL     1       2.163   2.350  17.837  0.00  0.00    +0.000 C 
ATOM     24  C   UNL     1       3.207   1.767  18.785  0.00  0.00    +0.000 C 
ATOM     25  O   UNL     1       4.062   0.941  18.517  0.00  0.00    +0.000 OA
ATOM     26  N   UNL     1       3.036   2.416  20.012  0.00  0.00    +0.000 N 
ATOM     27  H   UNL     1       3.691   2.280  20.768  0.00  0.00    +0.000 HD
ENDBRANCH  15  17
ENDBRANCH   3  15
TORSDOF 3
ENDMDL
MODEL 6
REMARK VINA RESULT:      -7.8      3.178      8.433
REMARK  Name = 
REMARK  5 active torsions:
REMARK  status: ('A' for Active; 'I' for Inactive)
REMARK    1  A    between atoms: C_1  and  C_2
REMARK    2  A    between atoms: C_8  and  C_9
REMARK    3  A    between atoms: N_11  and  C_12
REMARK    4  A    between atoms: C_12  and  C_13
REMARK    5  A    between atoms: C_12  and  C_14
REMARK                            x       y       z     vdW  Elec       q    Type
REMARK                         _______ _______ _______ _____ _____    ______ ____
ROOT
ATOM      1  C   UNL     1       2.040   7.549  19.548  0.00  0.00    +0.000 C 
ATOM      2  O   UNL     1       1.758   7.232  20.703  0.00  0.00    +0.000 OA
ATOM      3  N   UNL     1       1.541   8.715  19.009  0.00  0.00    +0.000 N 
ATOM      4  H   UNL     1       1.807   8.984  18.073  0.00  0.00    +0.000 HD
ENDROOT
BRANCH   1  12
ATOM      5  C   UNL     1       0.742   2.179  18.812  0.00  0.00    +0.000 C 
ATOM      6  C   UNL     1       1.738   3.210  18.378  0.00  0.00    +0.000 A 
ATOM      7  C   UNL     1       2.770   2.826  17.421  0.00  0.00    +0.000 A 
ATOM      8  C   UNL     1       3.703   3.702  16.991  0.00  0.00    +0.000 A 
ATOM      9  C   UNL     1       3.686   5.041  17.475  0.00  0.00    +0.000 A 
ATOM     10  N   UNL     1       4.489   6.046  17.206  0.00  0.00    +0.000 NA
ATOM     11  C   UNL     1       3.993   7.098  17.934  0.00  0.00    +0.000 A 
ATOM     12  C   UNL     1       2.875   6.760  18.676  0.00  0.00    +0.000 A 
ATOM     13  N   UNL     1       2.688   5.399  18.384  0.00  0.00    +0.000 N 
ATOM     14  C   UNL     1       1.731   4.478  18.830  0.00  0.00    +0.000 A 
ENDBRANCH   1  12
BRANCH   3  15
ATOM     15  C   UNL     1       0.682   9.644  19.757  0.00  0.00    +0.000 C 
ATOM     16  C   UNL     1       1.532  10.527  20.668  0.00  0.00    +0.000 C 
BRANCH  15  17
ATOM     17  C   UNL     1      -0.156  10.420  18.749  0.00  0.00    +0.000 A 
ATOM     18  C   UNL     1      -0.203  11.836  18.861  0.00  0.00    +0.000 A 
ATOM     19  C   UNL     1      -1.275  12.564  18.346  0.00  0.00    +0.000 A 
ATOM     20  C   UNL     1      -2.265  11.835  17.730  0.00  0.00    +0.000 A 
ATOM     21  C   UNL     1      -2.122  10.492  17.395  0.00  0.00    +0.000 A 
ATOM     22  C   UNL     1      -1.069   9.760  17.903  0.00  0.00    +0.000 A 
ATOM     23  C   UNL     1      -3.405  10.004  16.798  0.00  0.00    +0.000 C 
ATOM     24  C   UNL     1      -4.370  11.019  17.404  0.00  0.00    +0.000 C 
ATOM     25  O   UNL     1      -5.550  10.850  17.656  0.00  0.00    +0.000 OA
ATOM     26  N   UNL     1      -3.618  12.166  17.679  0.00  0.00    +0.000 N 
ATOM     27  H   UNL     1      -4.017  12.938  18.193  0.00  0.00    +0.000 HD
ENDBRANCH  15  17
ENDBRANCH   3  15
TORSDOF 3
ENDMDL
MODEL 7
REMARK VINA RESULT:      -7.8      3.621      5.636
REMARK  Name = 
REMARK  5 active torsions:
REMARK  status: ('A' for Active; 'I' for Inactive)
REMARK    1  A    between atoms: C_1  and  C_2
REMARK    2  A    between atoms: C_8  and  C_9
REMARK    3  A    between atoms: N_11  and  C_12
REMARK    4  A    between atoms: C_12  and  C_13
REMARK    5  A    between atoms: C_12  and  C_14
REMARK                            x       y       z     vdW  Elec       q    Type
REMARK                         _______ _______ _______ _____ _____    ______ ____
ROOT
ATOM      1  C   UNL     1      -0.440  10.483  19.102  0.00  0.00    +0.000 C 
ATOM      2  O   UNL     1       0.178  11.497  19.424  0.00  0.00    +0.000 OA
ATOM      3  N   UNL     1      -0.032   9.249  19.560  0.00  0.00    +0.000 N 
ATOM      4  H   UNL     1      -0.566   8.428  19.318  0.00  0.00    +0.000 HD
ENDROOT
BRANCH   1  12
ATOM      5  C   UNL     1      -4.919  13.388  20.702  0.00  0.00    +0.000 C 
ATOM      6  C   UNL     1      -4.424  12.530  19.579  0.00  0.00    +0.000 A 
ATOM      7  C   UNL     1      -5.297  12.306  18.432  0.00  0.00    +0.000 A 
ATOM      8  C   UNL     1      -4.918  11.540  17.388  0.00  0.00    +0.000 A 
ATOM      9  C   UNL     1      -3.630  10.932  17.393  0.00  0.00    +0.000 A 
ATOM     10  N   UNL     1      -3.062  10.150  16.503  0.00  0.00    +0.000 NA
ATOM     11  C   UNL     1      -1.817   9.880  17.013  0.00  0.00    +0.000 A 
ATOM     12  C   UNL     1      -1.595  10.484  18.239  0.00  0.00    +0.000 A 
ATOM     13  N   UNL     1      -2.799  11.161  18.492  0.00  0.00    +0.000 N 
ATOM     14  C   UNL     1      -3.208  11.951  19.575  0.00  0.00    +0.000 A 
ENDBRANCH   1  12
BRANCH   3  15
ATOM     15  C   UNL     1       1.118   9.064  20.456  0.00  0.00    +0.000 C 
ATOM     16  C   UNL     1       0.659   9.082  21.912  0.00  0.00    +0.000 C 
BRANCH  15  17
ATOM     17  C   UNL     1       1.827   7.780  20.046  0.00  0.00    +0.000 A 
ATOM     18  C   UNL     1       2.386   7.707  18.741  0.00  0.00    +0.000 A 
ATOM     19  C   UNL     1       2.595   6.478  18.114  0.00  0.00    +0.000 A 
ATOM     20  C   UNL     1       2.235   5.361  18.830  0.00  0.00    +0.000 A 
ATOM     21  C   UNL     1       1.921   5.397  20.185  0.00  0.00    +0.000 A 
ATOM     22  C   UNL     1       1.707   6.605  20.815  0.00  0.00    +0.000 A 
ATOM     23  C   UNL     1       1.519   4.023  20.625  0.00  0.00    +0.000 C 
ATOM     24  C   UNL     1       1.083   3.445  19.281  0.00  0.00    +0.000 C 
ATOM     25  O   UNL     1       0.251   2.575  19.092  0.00  0.00    +0.000 OA
ATOM     26  N   UNL     1       1.778   4.156  18.298  0.00  0.00    +0.000 N 
ATOM     27  H   UNL     1       1.568   4.030  17.319  0.00  0.00    +0.000 HD
ENDBRANCH  15  17
ENDBRANCH   3  15
TORSDOF 3
ENDMDL
MODEL 8
REMARK VINA RESULT:      -7.8      2.013      2.334
REMARK  Name = 
REMARK  5 active torsions:
REMARK  status: ('A' for Active; 'I' for Inactive)
REMARK    1  A    between atoms: C_1  and  C_2
REMARK    2  A    between atoms: C_8  and  C_9
REMARK    3  A    between atoms: N_11  and  C_12
REMARK    4  A    between atoms: C_12  and  C_13
REMARK    5  A    between atoms: C_12  and  C_14
REMARK                            x       y       z     vdW  Elec       q    Type
REMARK                         _______ _______ _______ _____ _____    ______ ____
ROOT
ATOM      1  C   UNL     1       2.243   7.372  19.284  0.00  0.00    +0.000 C 
ATOM      2  O   UNL     1       2.155   6.853  20.396  0.00  0.00    +0.000 OA
ATOM      3  N   UNL     1       2.832   6.686  18.244  0.00  0.00    +0.000 N 
ATOM      4  H   UNL     1       2.868   7.107  17.328  0.00  0.00    +0.000 HD
ENDROOT
BRANCH   1  12
ATOM      5  C   UNL     1      -0.771  10.055  23.129  0.00  0.00    +0.000 C 
ATOM      6  C   UNL     1      -0.205  10.235  21.755  0.00  0.00    +0.000 A 
ATOM      7  C   UNL     1      -0.418  11.506  21.071  0.00  0.00    +0.000 A 
ATOM      8  C   UNL     1       0.058  11.735  19.829  0.00  0.00    +0.000 A 
ATOM      9  C   UNL     1       0.795  10.717  19.159  0.00  0.00    +0.000 A 
ATOM     10  N   UNL     1       1.336  10.715  17.962  0.00  0.00    +0.000 NA
ATOM     11  C   UNL     1       1.937   9.486  17.849  0.00  0.00    +0.000 A 
ATOM     12  C   UNL     1       1.769   8.698  18.974  0.00  0.00    +0.000 A 
ATOM     13  N   UNL     1       1.001   9.507  19.828  0.00  0.00    +0.000 N 
ATOM     14  C   UNL     1       0.492   9.278  21.113  0.00  0.00    +0.000 A 
ENDBRANCH   1  12
BRANCH   3  15
ATOM     15  C   UNL     1       3.361   5.321  18.378  0.00  0.00    +0.000 C 
ATOM     16  C   UNL     1       2.654   4.385  17.401  0.00  0.00    +0.000 C 
BRANCH  15  17
ATOM     17  C   UNL     1       4.872   5.385  18.192  0.00  0.00    +0.000 A 
ATOM     18  C   UNL     1       5.692   4.650  19.089  0.00  0.00    +0.000 A 
ATOM     19  C   UNL     1       7.018   5.017  19.319  0.00  0.00    +0.000 A 
ATOM     20  C   UNL     1       7.472   6.117  18.631  0.00  0.00    +0.000 A 
ATOM     21  C   UNL     1       6.772   6.695  17.577  0.00  0.00    +0.000 A 
ATOM     22  C   UNL     1       5.459   6.344  17.343  0.00  0.00    +0.000 A 
ATOM     23  C   UNL     1       7.522   7.900  17.102  0.00  0.00    +0.000 C 
ATOM     24  C   UNL     1       8.317   8.219  18.366  0.00  0.00    +0.000 C 
ATOM     25  O   UNL     1       8.715   9.313  18.726  0.00  0.00    +0.000 OA
ATOM     26  N   UNL     1       8.443   7.016  19.069  0.00  0.00    +0.000 N 
ATOM     27  H   UNL     1       8.834   6.997  20.000  0.00  0.00    +0.000 HD
ENDBRANCH  15  17
ENDBRANCH   3  15
TORSDOF 3
ENDMDL
MODEL 9
REMARK VINA RESULT:      -7.8      1.040      1.129
REMARK  Name = 
REMARK  5 active torsions:
REMARK  status: ('A' for Active; 'I' for Inactive)
REMARK    1  A    between atoms: C_1  and  C_2
REMARK    2  A    between atoms: C_8  and  C_9
REMARK    3  A    between atoms: N_11  and  C_12
REMARK    4  A    between atoms: C_12  and  C_13
REMARK    5  A    between atoms: C_12  and  C_14
REMARK                            x       y       z     vdW  Elec       q    Type
REMARK                         _______ _______ _______ _____ _____    ______ ____
ROOT
ATOM      1  C   UNL     1       2.538   6.571  18.657  0.00  0.00    +0.000 C 
ATOM      2  O   UNL     1       2.065   5.669  17.966  0.00  0.00    +0.000 OA
ATOM      3  N   UNL     1       3.440   6.277  19.657  0.00  0.00    +0.000 N 
ATOM      4  H   UNL     1       3.848   7.026  20.194  0.00  0.00    +0.000 HD
ENDROOT
BRANCH   1  12
ATOM      5  C   UNL     1      -0.013   9.138  22.896  0.00  0.00    +0.000 C 
ATOM      6  C   UNL     1       0.516   9.400  21.520  0.00  0.00    +0.000 A 
ATOM      7  C   UNL     1       0.416  10.752  20.977  0.00  0.00    +0.000 A 
ATOM      8  C   UNL     1       0.866  11.057  19.743  0.00  0.00    +0.000 A 
ATOM      9  C   UNL     1       1.461  10.043  18.938  0.00  0.00    +0.000 A 
ATOM     10  N   UNL     1       1.951  10.109  17.722  0.00  0.00    +0.000 NA
ATOM     11  C   UNL     1       2.409   8.843  17.456  0.00  0.00    +0.000 A 
ATOM     12  C   UNL     1       2.199   7.964  18.505  0.00  0.00    +0.000 A 
ATOM     13  N   UNL     1       1.559   8.756  19.472  0.00  0.00    +0.000 N 
ATOM     14  C   UNL     1       1.079   8.448  20.752  0.00  0.00    +0.000 A 
ENDBRANCH   1  12
BRANCH   3  15
ATOM     15  C   UNL     1       3.905   4.912  19.945  0.00  0.00    +0.000 C 
ATOM     16  C   UNL     1       2.779   3.910  19.697  0.00  0.00    +0.000 C 
BRANCH  15  17
ATOM     17  C   UNL     1       5.154   4.659  19.111  0.00  0.00    +0.000 A 
ATOM     18  C   UNL     1       6.323   5.410  19.406  0.00  0.00    +0.000 A 
ATOM     19  C   UNL     1       7.309   5.618  18.441  0.00  0.00    +0.000 A 
ATOM     20  C   UNL     1       7.081   5.055  17.208  0.00  0.00    +0.000 A 
ATOM     21  C   UNL     1       6.076   4.121  16.974  0.00  0.00    +0.000 A 
ATOM     22  C   UNL     1       5.093   3.911  17.919  0.00  0.00    +0.000 A 
ATOM     23  C   UNL     1       6.073   3.768  15.519  0.00  0.00    +0.000 C 
ATOM     24  C   UNL     1       6.738   5.020  14.953  0.00  0.00    +0.000 C 
ATOM     25  O   UNL     1       6.578   5.497  13.843  0.00  0.00    +0.000 OA
ATOM     26  N   UNL     1       7.519   5.555  15.982  0.00  0.00    +0.000 N 
ATOM     27  H   UNL     1       7.966   6.454  15.881  0.00  0.00    +0.000 HD
ENDBRANCH  15  17
ENDBRANCH   3  15
TORSDOF 3
ENDMDL
