MODEL 1
REMARK VINA RESULT:      -9.3      0.000      0.000
REMARK  Name = 
REMARK  3 active torsions:
REMARK  status: ('A' for Active; 'I' for Inactive)
REMARK    1  A    between atoms: C_1  and  C_2
REMARK    2  A    between atoms: C_5  and  C_6
REMARK    3  A    between atoms: C_13  and  C_15
REMARK                            x       y       z     vdW  Elec       q    Type
REMARK                         _______ _______ _______ _____ _____    ______ ____
ROOT
ATOM      1  C   UNL     1       3.635   3.937  18.933  0.00  0.00    +0.000 C 
ATOM      2  C   UNL     1       2.912   3.139  17.823  0.00  0.00    +0.000 C 
ATOM      3  C   UNL     1       1.819   2.181  18.292  0.00  0.00    +0.000 C 
ATOM      4  C   UNL     1       0.696   2.831  19.085  0.00  0.00    +0.000 C 
ATOM      5  C   UNL     1       1.179   3.306  20.448  0.00  0.00    +0.000 C 
ATOM      6  C   UNL     1       1.732   4.725  20.412  0.00  0.00    +0.000 C 
ATOM      7  N   UNL     1       2.784   5.050  19.443  0.00  0.00    +0.000 N 
ATOM      8  C   UNL     1       2.958   6.387  19.008  0.00  0.00    +0.000 C 
ATOM      9  O   UNL     1       3.773   6.763  18.173  0.00  0.00    +0.000 OA
ENDROOT
BRANCH   8  10
ATOM     10  C   UNL     1       2.089   7.500  19.584  0.00  0.00    +0.000 A 
ATOM     11  N   UNL     1       1.770   7.472  20.852  0.00  0.00    +0.000 NA
ATOM     12  N   UNL     1       0.925   8.412  21.359  0.00  0.00    +0.000 N 
ATOM     13  C   UNL     1       0.792   9.666  20.743  0.00  0.00    +0.000 A 
ATOM     14  C   UNL     1       0.199  10.735  21.421  0.00  0.00    +0.000 A 
ATOM     15  C   UNL     1       0.044  11.971  20.789  0.00  0.00    +0.000 A 
ATOM     16  C   UNL     1       0.454  12.146  19.463  0.00  0.00    +0.000 A 
ATOM     17  C   UNL     1       0.997  11.070  18.762  0.00  0.00    +0.000 A 
ATOM     18  C   UNL     1       1.148   9.843  19.409  0.00  0.00    +0.000 A 
ATOM     19  C   UNL     1       1.642   8.659  18.710  0.00  0.00    +0.000 A 
ATOM     20  O   UNL     1       1.677   8.605  17.489  0.00  0.00    +0.000 OA
ATOM     21  H   UNL     1       0.815   8.415  22.372  0.00  0.00    +0.000 HD
ENDBRANCH   8  10
BRANCH   1  26
ATOM     22  C   UNL     1       8.135   5.786  19.389  0.00  0.00    +0.000 C 
ATOM     23  C   UNL     1       7.015   5.201  18.629  0.00  0.00    +0.000 A 
ATOM     24  C   UNL     1       6.845   4.930  17.292  0.00  0.00    +0.000 A 
ATOM     25  C   UNL     1       5.557   4.374  17.163  0.00  0.00    +0.000 A 
ATOM     26  C   UNL     1       4.989   4.372  18.426  0.00  0.00    +0.000 A 
ATOM     27  O   UNL     1       5.896   4.853  19.334  0.00  0.00    +0.000 OA
ENDBRANCH   1  26
TORSDOF 2
ENDMDL
MODEL 2
REMARK VINA RESULT:      -9.3      0.646      1.105
REMARK  Name = 
REMARK  3 active torsions:
REMARK  status: ('A' for Active; 'I' for Inactive)
REMARK    1  A    between atoms: C_1  and  C_2
REMARK    2  A    between atoms: C_5  and  C_6
REMARK    3  A    between atoms: C_13  and  C_15
REMARK                            x       y       z     vdW  Elec       q    Type
REMARK                         _______ _______ _______ _____ _____    ______ ____
ROOT
ATOM      1  C   UNL     1       3.637   4.072  19.019  0.00  0.00    +0.000 C 
ATOM      2  C   UNL     1       2.929   3.222  17.940  0.00  0.00    +0.000 C 
ATOM      3  C   UNL     1       1.839   2.277  18.440  0.00  0.00    +0.000 C 
ATOM      4  C   UNL     1       0.706   2.952  19.198  0.00  0.00    +0.000 C 
ATOM      5  C   UNL     1       1.175   3.487  20.543  0.00  0.00    +0.000 C 
ATOM      6  C   UNL     1       1.719   4.908  20.450  0.00  0.00    +0.000 C 
ATOM      7  N   UNL     1       2.775   5.199  19.476  0.00  0.00    +0.000 N 
ATOM      8  C   UNL     1       2.942   6.517  18.985  0.00  0.00    +0.000 C 
ATOM      9  O   UNL     1       3.762   6.863  18.141  0.00  0.00    +0.000 OA
ENDROOT
BRANCH   8  10
ATOM     10  C   UNL     1       2.062   7.647  19.507  0.00  0.00    +0.000 A 
ATOM     11  N   UNL     1       1.667   7.628  20.753  0.00  0.00    +0.000 NA
ATOM     12  N   UNL     1       0.811   8.584  21.208  0.00  0.00    +0.000 N 
ATOM     13  C   UNL     1       0.738   9.840  20.584  0.00  0.00    +0.000 A 
ATOM     14  C   UNL     1       0.126  10.921  21.224  0.00  0.00    +0.000 A 
ATOM     15  C   UNL     1       0.032  12.159  20.583  0.00  0.00    +0.000 A 
ATOM     16  C   UNL     1       0.525  12.323  19.284  0.00  0.00    +0.000 A 
ATOM     17  C   UNL     1       1.089  11.236  18.618  0.00  0.00    +0.000 A 
ATOM     18  C   UNL     1       1.178  10.007  19.274  0.00  0.00    +0.000 A 
ATOM     19  C   UNL     1       1.690   8.813  18.607  0.00  0.00    +0.000 A 
ATOM     20  O   UNL     1       1.797   8.756  17.391  0.00  0.00    +0.000 OA
ATOM     21  H   UNL     1       0.640   8.591  22.213  0.00  0.00    +0.000 HD
ENDBRANCH   8  10
BRANCH   1  26
ATOM     22  C   UNL     1       7.063   4.675  15.587  0.00  0.00    +0.000 C 
ATOM     23  C   UNL     1       6.534   4.769  16.960  0.00  0.00    +0.000 A 
ATOM     24  C   UNL     1       7.093   5.200  18.140  0.00  0.00    +0.000 A 
ATOM     25  C   UNL     1       6.098   5.050  19.126  0.00  0.00    +0.000 A 
ATOM     26  C   UNL     1       4.992   4.495  18.504  0.00  0.00    +0.000 A 
ATOM     27  O   UNL     1       5.249   4.349  17.165  0.00  0.00    +0.000 OA
ENDBRANCH   1  26
TORSDOF 2
ENDMDL
MODEL 3
REMARK VINA RESULT:      -8.3      2.815      7.889
REMARK  Name = 
REMARK  3 active torsions:
REMARK  status: ('A' for Active; 'I' for Inactive)
REMARK    1  A    between atoms: C_1  and  C_2
REMARK    2  A    between atoms: C_5  and  C_6
REMARK    3  A    between atoms: C_13  and  C_15
REMARK                            x       y       z     vdW  Elec       q    Type
REMARK                         _______ _______ _______ _____ _____    ______ ____
ROOT
ATOM      1  C   UNL     1      -1.467  12.135  18.347  0.00  0.00    +0.000 C 
ATOM      2  C   UNL     1      -2.899  11.988  18.913  0.00  0.00    +0.000 C 
ATOM      3  C   UNL     1      -3.874  11.177  18.062  0.00  0.00    +0.000 C 
ATOM      4  C   UNL     1      -3.433   9.752  17.766  0.00  0.00    +0.000 C 
ATOM      5  C   UNL     1      -2.236   9.724  16.825  0.00  0.00    +0.000 C 
ATOM      6  C   UNL     1      -0.907   9.789  17.568  0.00  0.00    +0.000 C 
ATOM      7  N   UNL     1      -0.682  10.880  18.521  0.00  0.00    +0.000 N 
ATOM      8  C   UNL     1       0.248  10.717  19.577  0.00  0.00    +0.000 C 
ATOM      9  O   UNL     1       0.483  11.544  20.452  0.00  0.00    +0.000 OA
ENDROOT
BRANCH   8  10
ATOM     10  C   UNL     1       1.056   9.430  19.695  0.00  0.00    +0.000 A 
ATOM     11  N   UNL     1       0.873   8.652  20.731  0.00  0.00    +0.000 NA
ATOM     12  N   UNL     1       1.649   7.545  20.892  0.00  0.00    +0.000 N 
ATOM     13  C   UNL     1       2.258   6.926  19.789  0.00  0.00    +0.000 A 
ATOM     14  C   UNL     1       2.769   5.630  19.889  0.00  0.00    +0.000 A 
ATOM     15  C   UNL     1       3.400   5.034  18.795  0.00  0.00    +0.000 A 
ATOM     16  C   UNL     1       3.552   5.737  17.595  0.00  0.00    +0.000 A 
ATOM     17  C   UNL     1       3.092   7.050  17.503  0.00  0.00    +0.000 A 
ATOM     18  C   UNL     1       2.462   7.630  18.605  0.00  0.00    +0.000 A 
ATOM     19  C   UNL     1       2.025   9.023  18.597  0.00  0.00    +0.000 A 
ATOM     20  O   UNL     1       2.429   9.817  17.761  0.00  0.00    +0.000 OA
ATOM     21  H   UNL     1       1.377   6.914  21.645  0.00  0.00    +0.000 HD
ENDBRANCH   8  10
BRANCH   1  26
ATOM     22  C   UNL     1       1.941  15.622  18.677  0.00  0.00    +0.000 C 
ATOM     23  C   UNL     1       0.708  14.932  19.099  0.00  0.00    +0.000 A 
ATOM     24  C   UNL     1      -0.162  15.146  20.142  0.00  0.00    +0.000 A 
ATOM     25  C   UNL     1      -1.158  14.156  20.034  0.00  0.00    +0.000 A 
ATOM     26  C   UNL     1      -0.822  13.361  18.951  0.00  0.00    +0.000 A 
ATOM     27  O   UNL     1       0.310  13.854  18.357  0.00  0.00    +0.000 OA
ENDBRANCH   1  26
TORSDOF 2
ENDMDL
MODEL 4
REMARK VINA RESULT:      -8.2      1.885      3.975
REMARK  Name = 
REMARK  3 active torsions:
REMARK  status: ('A' for Active; 'I' for Inactive)
REMARK    1  A    between atoms: C_1  and  C_2
REMARK    2  A    between atoms: C_5  and  C_6
REMARK    3  A    between atoms: C_13  and  C_15
REMARK                            x       y       z     vdW  Elec       q    Type
REMARK                         _______ _______ _______ _____ _____    ______ ____
ROOT
ATOM      1  C   UNL     1       3.833   4.849  18.247  0.00  0.00    +0.000 C 
ATOM      2  C   UNL     1       5.159   4.668  19.022  0.00  0.00    +0.000 C 
ATOM      3  C   UNL     1       6.426   5.105  18.291  0.00  0.00    +0.000 C 
ATOM      4  C   UNL     1       6.439   6.560  17.848  0.00  0.00    +0.000 C 
ATOM      5  C   UNL     1       5.437   6.812  16.731  0.00  0.00    +0.000 C 
ATOM      6  C   UNL     1       4.053   7.173  17.257  0.00  0.00    +0.000 C 
ATOM      7  N   UNL     1       3.409   6.278  18.224  0.00  0.00    +0.000 N 
ATOM      8  C   UNL     1       2.425   6.783  19.109  0.00  0.00    +0.000 C 
ATOM      9  O   UNL     1       1.855   6.137  19.982  0.00  0.00    +0.000 OA
ENDROOT
BRANCH   8  10
ATOM     10  C   UNL     1       1.994   8.243  19.026  0.00  0.00    +0.000 A 
ATOM     11  N   UNL     1       2.085   8.873  17.884  0.00  0.00    +0.000 NA
ATOM     12  N   UNL     1       1.786  10.200  17.815  0.00  0.00    +0.000 N 
ATOM     13  C   UNL     1       0.920  10.790  18.749  0.00  0.00    +0.000 A 
ATOM     14  C   UNL     1       0.351  12.043  18.503  0.00  0.00    +0.000 A 
ATOM     15  C   UNL     1      -0.486  12.636  19.451  0.00  0.00    +0.000 A 
ATOM     16  C   UNL     1      -0.743  11.996  20.668  0.00  0.00    +0.000 A 
ATOM     17  C   UNL     1      -0.138  10.771  20.944  0.00  0.00    +0.000 A 
ATOM     18  C   UNL     1       0.694  10.191  19.984  0.00  0.00    +0.000 A 
ATOM     19  C   UNL     1       1.414   8.947  20.241  0.00  0.00    +0.000 A 
ATOM     20  O   UNL     1       1.552   8.509  21.374  0.00  0.00    +0.000 OA
ATOM     21  H   UNL     1       1.753  10.604  16.880  0.00  0.00    +0.000 HD
ENDBRANCH   8  10
BRANCH   1  26
ATOM     22  C   UNL     1       1.683   2.259  21.790  0.00  0.00    +0.000 C 
ATOM     23  C   UNL     1       1.829   2.739  20.403  0.00  0.00    +0.000 A 
ATOM     24  C   UNL     1       1.142   2.453  19.248  0.00  0.00    +0.000 A 
ATOM     25  C   UNL     1       1.745   3.217  18.230  0.00  0.00    +0.000 A 
ATOM     26  C   UNL     1       2.799   3.902  18.810  0.00  0.00    +0.000 A 
ATOM     27  O   UNL     1       2.834   3.632  20.154  0.00  0.00    +0.000 OA
ENDBRANCH   1  26
TORSDOF 2
ENDMDL
MODEL 5
REMARK VINA RESULT:      -8.2      1.421      1.745
REMARK  Name = 
REMARK  3 active torsions:
REMARK  status: ('A' for Active; 'I' for Inactive)
REMARK    1  A    between atoms: C_1  and  C_2
REMARK    2  A    between atoms: C_5  and  C_6
REMARK    3  A    between atoms: C_13  and  C_15
REMARK                            x       y       z     vdW  Elec       q    Type
REMARK                         _______ _______ _______ _____ _____    ______ ____
ROOT
ATOM      1  C   UNL     1       3.648   4.201  18.715  0.00  0.00    +0.000 C 
ATOM      2  C   UNL     1       2.990   3.230  17.708  0.00  0.00    +0.000 C 
ATOM      3  C   UNL     1       1.794   2.435  18.228  0.00  0.00    +0.000 C 
ATOM      4  C   UNL     1       0.642   3.280  18.750  0.00  0.00    +0.000 C 
ATOM      5  C   UNL     1       1.016   3.995  20.040  0.00  0.00    +0.000 C 
ATOM      6  C   UNL     1       1.662   5.353  19.791  0.00  0.00    +0.000 C 
ATOM      7  N   UNL     1       2.825   5.430  18.902  0.00  0.00    +0.000 N 
ATOM      8  C   UNL     1       3.129   6.644  18.238  0.00  0.00    +0.000 C 
ATOM      9  O   UNL     1       4.048   6.808  17.442  0.00  0.00    +0.000 OA
ENDROOT
BRANCH   8  10
ATOM     10  C   UNL     1       2.282   7.887  18.486  0.00  0.00    +0.000 A 
ATOM     11  N   UNL     1       1.867   8.593  17.466  0.00  0.00    +0.000 NA
ATOM     12  N   UNL     1       1.184   9.752  17.676  0.00  0.00    +0.000 N 
ATOM     13  C   UNL     1       0.471   9.959  18.868  0.00  0.00    +0.000 A 
ATOM     14  C   UNL     1      -0.486  10.973  18.960  0.00  0.00    +0.000 A 
ATOM     15  C   UNL     1      -1.169  11.192  20.159  0.00  0.00    +0.000 A 
ATOM     16  C   UNL     1      -0.884  10.416  21.288  0.00  0.00    +0.000 A 
ATOM     17  C   UNL     1       0.106   9.438  21.220  0.00  0.00    +0.000 A 
ATOM     18  C   UNL     1       0.777   9.231  20.014  0.00  0.00    +0.000 A 
ATOM     19  C   UNL     1       1.874   8.274  19.897  0.00  0.00    +0.000 A 
ATOM     20  O   UNL     1       2.438   7.823  20.883  0.00  0.00    +0.000 OA
ATOM     21  H   UNL     1       0.779  10.190  16.850  0.00  0.00    +0.000 HD
ENDBRANCH   8  10
BRANCH   1  26
ATOM     22  C   UNL     1       8.195   5.889  19.309  0.00  0.00    +0.000 C 
ATOM     23  C   UNL     1       7.119   5.221  18.554  0.00  0.00    +0.000 A 
ATOM     24  C   UNL     1       7.065   4.704  17.282  0.00  0.00    +0.000 A 
ATOM     25  C   UNL     1       5.761   4.195  17.118  0.00  0.00    +0.000 A 
ATOM     26  C   UNL     1       5.072   4.465  18.288  0.00  0.00    +0.000 A 
ATOM     27  O   UNL     1       5.914   5.070  19.184  0.00  0.00    +0.000 OA
ENDBRANCH   1  26
TORSDOF 2
ENDMDL
MODEL 6
REMARK VINA RESULT:      -8.2      2.922      8.054
REMARK  Name = 
REMARK  3 active torsions:
REMARK  status: ('A' for Active; 'I' for Inactive)
REMARK    1  A    between atoms: C_1  and  C_2
REMARK    2  A    between atoms: C_5  and  C_6
REMARK    3  A    between atoms: C_13  and  C_15
REMARK                            x       y       z     vdW  Elec       q    Type
REMARK                         _______ _______ _______ _____ _____    ______ ____
ROOT
ATOM      1  C   UNL     1      -1.493  12.137  18.326  0.00  0.00    +0.000 C 
ATOM      2  C   UNL     1      -2.930  11.976  18.876  0.00  0.00    +0.000 C 
ATOM      3  C   UNL     1      -3.889  11.160  18.012  0.00  0.00    +0.000 C 
ATOM      4  C   UNL     1      -3.433   9.740  17.716  0.00  0.00    +0.000 C 
ATOM      5  C   UNL     1      -2.226   9.724  16.789  0.00  0.00    +0.000 C 
ATOM      6  C   UNL     1      -0.906   9.798  17.546  0.00  0.00    +0.000 C 
ATOM      7  N   UNL     1      -0.700  10.888  18.504  0.00  0.00    +0.000 N 
ATOM      8  C   UNL     1       0.220  10.729  19.570  0.00  0.00    +0.000 C 
ATOM      9  O   UNL     1       0.438  11.555  20.450  0.00  0.00    +0.000 OA
ENDROOT
BRANCH   8  10
ATOM     10  C   UNL     1       1.037   9.448  19.694  0.00  0.00    +0.000 A 
ATOM     11  N   UNL     1       0.855   8.670  20.729  0.00  0.00    +0.000 NA
ATOM     12  N   UNL     1       1.638   7.568  20.895  0.00  0.00    +0.000 N 
ATOM     13  C   UNL     1       2.258   6.954  19.795  0.00  0.00    +0.000 A 
ATOM     14  C   UNL     1       2.778   5.661  19.899  0.00  0.00    +0.000 A 
ATOM     15  C   UNL     1       3.419   5.070  18.808  0.00  0.00    +0.000 A 
ATOM     16  C   UNL     1       3.571   5.774  17.609  0.00  0.00    +0.000 A 
ATOM     17  C   UNL     1       3.102   7.083  17.513  0.00  0.00    +0.000 A 
ATOM     18  C   UNL     1       2.462   7.658  18.612  0.00  0.00    +0.000 A 
ATOM     19  C   UNL     1       2.014   9.048  18.601  0.00  0.00    +0.000 A 
ATOM     20  O   UNL     1       2.417   9.844  17.766  0.00  0.00    +0.000 OA
ATOM     21  H   UNL     1       1.367   6.936  21.647  0.00  0.00    +0.000 HD
ENDBRANCH   8  10
BRANCH   1  26
ATOM     22  C   UNL     1      -1.134  15.740  21.609  0.00  0.00    +0.000 C 
ATOM     23  C   UNL     1      -0.700  14.986  20.418  0.00  0.00    +0.000 A 
ATOM     24  C   UNL     1       0.321  15.182  19.518  0.00  0.00    +0.000 A 
ATOM     25  C   UNL     1       0.233  14.130  18.585  0.00  0.00    +0.000 A 
ATOM     26  C   UNL     1      -0.866  13.366  18.940  0.00  0.00    +0.000 A 
ATOM     27  O   UNL     1      -1.424  13.874  20.085  0.00  0.00    +0.000 OA
ENDBRANCH   1  26
TORSDOF 2
ENDMDL
MODEL 7
REMARK VINA RESULT:      -8.1      1.532      2.061
REMARK  Name = 
REMARK  3 active torsions:
REMARK  status: ('A' for Active; 'I' for Inactive)
REMARK    1  A    between atoms: C_1  and  C_2
REMARK    2  A    between atoms: C_5  and  C_6
REMARK    3  A    between atoms: C_13  and  C_15
REMARK                            x       y       z     vdW  Elec       q    Type
REMARK                         _______ _______ _______ _____ _____    ______ ____
ROOT
ATOM      1  C   UNL     1       3.611   4.213  18.820  0.00  0.00    +0.000 C 
ATOM      2  C   UNL     1       2.900   3.227  17.865  0.00  0.00    +0.000 C 
ATOM      3  C   UNL     1       1.749   2.424  18.466  0.00  0.00    +0.000 C 
ATOM      4  C   UNL     1       0.624   3.262  19.055  0.00  0.00    +0.000 C 
ATOM      5  C   UNL     1       1.072   3.991  20.313  0.00  0.00    +0.000 C 
ATOM      6  C   UNL     1       1.686   5.353  20.013  0.00  0.00    +0.000 C 
ATOM      7  N   UNL     1       2.789   5.435  19.050  0.00  0.00    +0.000 N 
ATOM      8  C   UNL     1       3.037   6.646  18.359  0.00  0.00    +0.000 C 
ATOM      9  O   UNL     1       3.901   6.814  17.505  0.00  0.00    +0.000 OA
ENDROOT
BRANCH   8  10
ATOM     10  C   UNL     1       2.194   7.883  18.652  0.00  0.00    +0.000 A 
ATOM     11  N   UNL     1       1.717   8.583  17.656  0.00  0.00    +0.000 NA
ATOM     12  N   UNL     1       1.036   9.736  17.902  0.00  0.00    +0.000 N 
ATOM     13  C   UNL     1       0.389   9.941  19.131  0.00  0.00    +0.000 A 
ATOM     14  C   UNL     1      -0.570  10.947  19.275  0.00  0.00    +0.000 A 
ATOM     15  C   UNL     1      -1.186  11.162  20.509  0.00  0.00    +0.000 A 
ATOM     16  C   UNL     1      -0.832  10.391  21.622  0.00  0.00    +0.000 A 
ATOM     17  C   UNL     1       0.161   9.422  21.501  0.00  0.00    +0.000 A 
ATOM     18  C   UNL     1       0.766   9.217  20.259  0.00  0.00    +0.000 A 
ATOM     19  C   UNL     1       1.862   8.269  20.083  0.00  0.00    +0.000 A 
ATOM     20  O   UNL     1       2.485   7.826  21.037  0.00  0.00    +0.000 OA
ATOM     21  H   UNL     1       0.583  10.169  17.098  0.00  0.00    +0.000 HD
ENDBRANCH   8  10
BRANCH   1  26
ATOM     22  C   UNL     1       7.069   4.451  15.376  0.00  0.00    +0.000 C 
ATOM     23  C   UNL     1       6.559   4.598  16.752  0.00  0.00    +0.000 A 
ATOM     24  C   UNL     1       7.165   4.962  17.930  0.00  0.00    +0.000 A 
ATOM     25  C   UNL     1       6.163   4.918  18.920  0.00  0.00    +0.000 A 
ATOM     26  C   UNL     1       5.002   4.488  18.300  0.00  0.00    +0.000 A 
ATOM     27  O   UNL     1       5.236   4.319  16.960  0.00  0.00    +0.000 OA
ENDBRANCH   1  26
TORSDOF 2
ENDMDL
MODEL 8
REMARK VINA RESULT:      -8.0      1.944      4.090
REMARK  Name = 
REMARK  3 active torsions:
REMARK  status: ('A' for Active; 'I' for Inactive)
REMARK    1  A    between atoms: C_1  and  C_2
REMARK    2  A    between atoms: C_5  and  C_6
REMARK    3  A    between atoms: C_13  and  C_15
REMARK                            x       y       z     vdW  Elec       q    Type
REMARK                         _______ _______ _______ _____ _____    ______ ____
ROOT
ATOM      1  C   UNL     1       4.437   4.875  18.353  0.00  0.00    +0.000 C 
ATOM      2  C   UNL     1       5.795   4.948  19.089  0.00  0.00    +0.000 C 
ATOM      3  C   UNL     1       6.957   5.539  18.293  0.00  0.00    +0.000 C 
ATOM      4  C   UNL     1       6.727   6.951  17.777  0.00  0.00    +0.000 C 
ATOM      5  C   UNL     1       5.668   6.979  16.684  0.00  0.00    +0.000 C 
ATOM      6  C   UNL     1       4.258   7.145  17.239  0.00  0.00    +0.000 C 
ATOM      7  N   UNL     1       3.790   6.215  18.271  0.00  0.00    +0.000 N 
ATOM      8  C   UNL     1       2.762   6.607  19.163  0.00  0.00    +0.000 C 
ATOM      9  O   UNL     1       2.325   5.928  20.087  0.00  0.00    +0.000 OA
ENDROOT
BRANCH   8  10
ATOM     10  C   UNL     1       2.102   7.974  19.021  0.00  0.00    +0.000 A 
ATOM     11  N   UNL     1       2.033   8.531  17.840  0.00  0.00    +0.000 NA
ATOM     12  N   UNL     1       1.524   9.788  17.712  0.00  0.00    +0.000 N 
ATOM     13  C   UNL     1       0.625  10.300  18.661  0.00  0.00    +0.000 A 
ATOM     14  C   UNL     1      -0.146  11.429  18.378  0.00  0.00    +0.000 A 
ATOM     15  C   UNL     1      -1.016  11.949  19.339  0.00  0.00    +0.000 A 
ATOM     16  C   UNL     1      -1.105  11.361  20.605  0.00  0.00    +0.000 A 
ATOM     17  C   UNL     1      -0.301  10.266  20.915  0.00  0.00    +0.000 A 
ATOM     18  C   UNL     1       0.561   9.757  19.942  0.00  0.00    +0.000 A 
ATOM     19  C   UNL     1       1.482   8.660  20.226  0.00  0.00    +0.000 A 
ATOM     20  O   UNL     1       1.746   8.327  21.372  0.00  0.00    +0.000 OA
ATOM     21  H   UNL     1       1.379  10.118  16.759  0.00  0.00    +0.000 HD
ENDBRANCH   8  10
BRANCH   1  26
ATOM     22  C   UNL     1       0.479   2.039  18.766  0.00  0.00    +0.000 C 
ATOM     23  C   UNL     1       1.805   2.531  19.184  0.00  0.00    +0.000 A 
ATOM     24  C   UNL     1       2.608   2.227  20.257  0.00  0.00    +0.000 A 
ATOM     25  C   UNL     1       3.761   3.026  20.126  0.00  0.00    +0.000 A 
ATOM     26  C   UNL     1       3.583   3.810  18.998  0.00  0.00    +0.000 A 
ATOM     27  O   UNL     1       2.393   3.485  18.401  0.00  0.00    +0.000 OA
ENDBRANCH   1  26
TORSDOF 2
ENDMDL
MODEL 9
REMARK VINA RESULT:      -7.8      4.549      7.908
REMARK  Name = 
REMARK  3 active torsions:
REMARK  status: ('A' for Active; 'I' for Inactive)
REMARK    1  A    between atoms: C_1  and  C_2
REMARK    2  A    between atoms: C_5  and  C_6
REMARK    3  A    between atoms: C_13  and  C_15
REMARK                            x       y       z     vdW  Elec       q    Type
REMARK                         _______ _______ _______ _____ _____    ______ ____
ROOT
ATOM      1  C   UNL     1       1.176  11.736  19.103  0.00  0.00    +0.000 C 
ATOM      2  C   UNL     1       1.552  12.116  20.554  0.00  0.00    +0.000 C 
ATOM      3  C   UNL     1       1.852  13.592  20.803  0.00  0.00    +0.000 C 
ATOM      4  C   UNL     1       0.723  14.544  20.440  0.00  0.00    +0.000 C 
ATOM      5  C   UNL     1       0.511  14.609  18.934  0.00  0.00    +0.000 C 
ATOM      6  C   UNL     1      -0.465  13.549  18.435  0.00  0.00    +0.000 C 
ATOM      7  N   UNL     1      -0.219  12.145  18.779  0.00  0.00    +0.000 N 
ATOM      8  C   UNL     1      -1.297  11.225  18.809  0.00  0.00    +0.000 C 
ATOM      9  O   UNL     1      -1.213  10.042  19.123  0.00  0.00    +0.000 OA
ENDROOT
BRANCH   8  10
ATOM     10  C   UNL     1      -2.703  11.678  18.434  0.00  0.00    +0.000 A 
ATOM     11  N   UNL     1      -3.127  11.504  17.210  0.00  0.00    +0.000 NA
ATOM     12  N   UNL     1      -4.347  11.982  16.840  0.00  0.00    +0.000 N 
ATOM     13  C   UNL     1      -5.359  12.183  17.793  0.00  0.00    +0.000 A 
ATOM     14  C   UNL     1      -6.689  12.349  17.397  0.00  0.00    +0.000 A 
ATOM     15  C   UNL     1      -7.684  12.579  18.350  0.00  0.00    +0.000 A 
ATOM     16  C   UNL     1      -7.358  12.672  19.708  0.00  0.00    +0.000 A 
ATOM     17  C   UNL     1      -6.027  12.560  20.105  0.00  0.00    +0.000 A 
ATOM     18  C   UNL     1      -5.045  12.328  19.141  0.00  0.00    +0.000 A 
ATOM     19  C   UNL     1      -3.626  12.275  19.483  0.00  0.00    +0.000 A 
ATOM     20  O   UNL     1      -3.209  12.702  20.550  0.00  0.00    +0.000 OA
ATOM     21  H   UNL     1      -4.675  11.707  15.915  0.00  0.00    +0.000 HD
ENDBRANCH   8  10
BRANCH   1  26
ATOM     22  C   UNL     1       1.793   7.103  20.531  0.00  0.00    +0.000 C 
ATOM     23  C   UNL     1       1.736   8.183  19.528  0.00  0.00    +0.000 A 
ATOM     24  C   UNL     1       1.959   8.199  18.172  0.00  0.00    +0.000 A 
ATOM     25  C   UNL     1       1.758   9.530  17.755  0.00  0.00    +0.000 A 
ATOM     26  C   UNL     1       1.461  10.268  18.888  0.00  0.00    +0.000 A 
ATOM     27  O   UNL     1       1.418   9.436  19.976  0.00  0.00    +0.000 OA
ENDBRANCH   1  26
TORSDOF 2
ENDMDL
