MODEL 1
REMARK VINA RESULT:      -9.1      0.000      0.000
REMARK  Name = 
REMARK  3 active torsions:
REMARK  status: ('A' for Active; 'I' for Inactive)
REMARK    1  A    between atoms: C_2  and  C_15
REMARK    2  A    between atoms: N_3  and  C_4
REMARK    3  A    between atoms: C_8  and  C_9
REMARK                            x       y       z     vdW  Elec       q    Type
REMARK                         _______ _______ _______ _____ _____    ______ ____
ROOT
ATOM      1  O   UNL     1       1.869   4.906  17.689  0.00  0.00    +0.000 OA
ATOM      2  C   UNL     1       2.893   5.350  18.172  0.00  0.00    +0.000 C 
ATOM      3  N   UNL     1       3.136   6.590  18.722  0.00  0.00    +0.000 N 
ATOM      4  H   UNL     1       4.079   6.681  19.100  0.00  0.00    +0.000 HD
ENDROOT
BRANCH   2   5
ATOM      5  C   UNL     1       4.213   4.572  18.102  0.00  0.00    +0.000 A 
ATOM      6  N   UNL     1       4.666   4.170  19.261  0.00  0.00    +0.000 NA
ATOM      7  N   UNL     1       6.009   3.941  19.353  0.00  0.00    +0.000 N 
ATOM      8  C   UNL     1       6.899   4.505  18.462  0.00  0.00    +0.000 A 
ATOM      9  O   UNL     1       8.055   4.784  18.768  0.00  0.00    +0.000 OA
ATOM     10  C   UNL     1       6.396   4.669  17.092  0.00  0.00    +0.000 A 
ATOM     11  C   UNL     1       7.272   4.822  16.020  0.00  0.00    +0.000 A 
ATOM     12  C   UNL     1       6.780   4.714  14.721  0.00  0.00    +0.000 A 
ATOM     13  C   UNL     1       5.422   4.453  14.504  0.00  0.00    +0.000 A 
ATOM     14  C   UNL     1       4.530   4.390  15.583  0.00  0.00    +0.000 A 
ATOM     15  C   UNL     1       5.026   4.541  16.878  0.00  0.00    +0.000 A 
ATOM     16  H   UNL     1       6.359   3.796  20.295  0.00  0.00    +0.000 HD
ENDBRANCH   2   5
BRANCH   3  17
ATOM     17  C   UNL     1       2.331   7.731  18.760  0.00  0.00    +0.000 A 
ATOM     18  C   UNL     1       1.996   8.470  17.629  0.00  0.00    +0.000 A 
ATOM     19  C   UNL     1       1.156   9.577  17.757  0.00  0.00    +0.000 A 
ATOM     20  C   UNL     1       0.640   9.933  19.006  0.00  0.00    +0.000 A 
ATOM     21  C   UNL     1       0.980   9.206  20.154  0.00  0.00    +0.000 A 
ATOM     22  C   UNL     1       1.858   8.128  20.020  0.00  0.00    +0.000 A 
BRANCH  21  23
ATOM     23  C   UNL     1       0.404   9.541  21.458  0.00  0.00    +0.000 A 
ATOM     24  C   UNL     1      -0.701  10.293  21.815  0.00  0.00    +0.000 A 
ATOM     25  C   UNL     1      -0.712  10.287  23.224  0.00  0.00    +0.000 A 
ATOM     26  N   UNL     1       0.309   9.600  23.734  0.00  0.00    +0.000 NA
ATOM     27  N   UNL     1       0.976   9.173  22.647  0.00  0.00    +0.000 N 
ATOM     28  H   UNL     1       1.826   8.643  22.786  0.00  0.00    +0.000 HD
ENDBRANCH  21  23
ENDBRANCH   3  17
TORSDOF 3
ENDMDL
MODEL 2
REMARK VINA RESULT:      -8.3      3.334      8.644
REMARK  Name = 
REMARK  3 active torsions:
REMARK  status: ('A' for Active; 'I' for Inactive)
REMARK    1  A    between atoms: C_2  and  C_15
REMARK    2  A    between atoms: N_3  and  C_4
REMARK    3  A    between atoms: C_8  and  C_9
REMARK                            x       y       z     vdW  Elec       q    Type
REMARK                         _______ _______ _______ _____ _____    ______ ____
ROOT
ATOM      1  O   UNL     1       1.394   8.528  20.071  0.00  0.00    +0.000 OA
ATOM      2  C   UNL     1       1.635   8.823  18.916  0.00  0.00    +0.000 C 
ATOM      3  N   UNL     1       2.390   8.149  17.979  0.00  0.00    +0.000 N 
ATOM      4  H   UNL     1       2.386   8.600  17.065  0.00  0.00    +0.000 HD
ENDROOT
BRANCH   2   5
ATOM      5  C   UNL     1       1.212  10.176  18.331  0.00  0.00    +0.000 A 
ATOM      6  N   UNL     1       2.198  11.016  18.143  0.00  0.00    +0.000 NA
ATOM      7  N   UNL     1       1.881  12.344  18.120  0.00  0.00    +0.000 N 
ATOM      8  C   UNL     1       0.718  12.818  18.691  0.00  0.00    +0.000 A 
ATOM      9  O   UNL     1       0.625  13.945  19.167  0.00  0.00    +0.000 OA
ATOM     10  C   UNL     1      -0.435  11.910  18.613  0.00  0.00    +0.000 A 
ATOM     11  C   UNL     1      -1.735  12.387  18.756  0.00  0.00    +0.000 A 
ATOM     12  C   UNL     1      -2.803  11.558  18.421  0.00  0.00    +0.000 A 
ATOM     13  C   UNL     1      -2.564  10.264  17.945  0.00  0.00    +0.000 A 
ATOM     14  C   UNL     1      -1.259   9.757  17.889  0.00  0.00    +0.000 A 
ATOM     15  C   UNL     1      -0.198  10.581  18.266  0.00  0.00    +0.000 A 
ATOM     16  H   UNL     1       2.675  12.977  18.143  0.00  0.00    +0.000 HD
ENDBRANCH   2   5
BRANCH   3  17
ATOM     17  C   UNL     1       3.199   7.020  18.120  0.00  0.00    +0.000 A 
ATOM     18  C   UNL     1       3.127   6.156  19.208  0.00  0.00    +0.000 A 
ATOM     19  C   UNL     1       3.952   5.031  19.248  0.00  0.00    +0.000 A 
ATOM     20  C   UNL     1       4.833   4.763  18.196  0.00  0.00    +0.000 A 
ATOM     21  C   UNL     1       4.926   5.631  17.102  0.00  0.00    +0.000 A 
ATOM     22  C   UNL     1       4.128   6.777  17.095  0.00  0.00    +0.000 A 
BRANCH  21  23
ATOM     23  C   UNL     1       5.809   5.331  15.973  0.00  0.00    +0.000 A 
ATOM     24  C   UNL     1       5.655   4.508  14.872  0.00  0.00    +0.000 A 
ATOM     25  C   UNL     1       6.871   4.604  14.167  0.00  0.00    +0.000 A 
ATOM     26  N   UNL     1       7.742   5.412  14.770  0.00  0.00    +0.000 NA
ATOM     27  N   UNL     1       7.083   5.826  15.865  0.00  0.00    +0.000 N 
ATOM     28  H   UNL     1       7.564   6.438  16.510  0.00  0.00    +0.000 HD
ENDBRANCH  21  23
ENDBRANCH   3  17
TORSDOF 3
ENDMDL
MODEL 3
REMARK VINA RESULT:      -8.3      3.409      5.024
REMARK  Name = 
REMARK  3 active torsions:
REMARK  status: ('A' for Active; 'I' for Inactive)
REMARK    1  A    between atoms: C_2  and  C_15
REMARK    2  A    between atoms: N_3  and  C_4
REMARK    3  A    between atoms: C_8  and  C_9
REMARK                            x       y       z     vdW  Elec       q    Type
REMARK                         _______ _______ _______ _____ _____    ______ ____
ROOT
ATOM      1  O   UNL     1       1.133   7.423  21.212  0.00  0.00    +0.000 OA
ATOM      2  C   UNL     1       1.766   7.512  20.177  0.00  0.00    +0.000 C 
ATOM      3  N   UNL     1       1.756   8.510  19.227  0.00  0.00    +0.000 N 
ATOM      4  H   UNL     1       2.427   8.353  18.476  0.00  0.00    +0.000 HD
ENDROOT
BRANCH   2   5
ATOM      5  C   UNL     1       2.637   6.355  19.671  0.00  0.00    +0.000 A 
ATOM      6  N   UNL     1       3.802   6.720  19.200  0.00  0.00    +0.000 NA
ATOM      7  N   UNL     1       4.397   5.880  18.304  0.00  0.00    +0.000 N 
ATOM      8  C   UNL     1       3.665   4.950  17.592  0.00  0.00    +0.000 A 
ATOM      9  O   UNL     1       3.988   4.572  16.470  0.00  0.00    +0.000 OA
ATOM     10  C   UNL     1       2.518   4.375  18.307  0.00  0.00    +0.000 A 
ATOM     11  C   UNL     1       1.955   3.167  17.904  0.00  0.00    +0.000 A 
ATOM     12  C   UNL     1       1.049   2.526  18.746  0.00  0.00    +0.000 A 
ATOM     13  C   UNL     1       0.714   3.095  19.980  0.00  0.00    +0.000 A 
ATOM     14  C   UNL     1       1.213   4.354  20.340  0.00  0.00    +0.000 A 
ATOM     15  C   UNL     1       2.088   5.007  19.471  0.00  0.00    +0.000 A 
ATOM     16  H   UNL     1       5.209   6.260  17.829  0.00  0.00    +0.000 HD
ENDBRANCH   2   5
BRANCH   3  17
ATOM     17  C   UNL     1       0.927   9.628  19.105  0.00  0.00    +0.000 A 
ATOM     18  C   UNL     1       1.103  10.796  19.841  0.00  0.00    +0.000 A 
ATOM     19  C   UNL     1       0.246  11.877  19.627  0.00  0.00    +0.000 A 
ATOM     20  C   UNL     1      -0.770  11.796  18.672  0.00  0.00    +0.000 A 
ATOM     21  C   UNL     1      -0.967  10.622  17.934  0.00  0.00    +0.000 A 
ATOM     22  C   UNL     1      -0.132   9.532  18.189  0.00  0.00    +0.000 A 
BRANCH  21  23
ATOM     23  C   UNL     1      -1.996  10.546  16.896  0.00  0.00    +0.000 A 
ATOM     24  C   UNL     1      -2.722   9.483  16.389  0.00  0.00    +0.000 A 
ATOM     25  C   UNL     1      -3.525  10.037  15.373  0.00  0.00    +0.000 A 
ATOM     26  N   UNL     1      -3.325  11.346  15.227  0.00  0.00    +0.000 NA
ATOM     27  N   UNL     1      -2.387  11.626  16.148  0.00  0.00    +0.000 N 
ATOM     28  H   UNL     1      -2.043  12.575  16.207  0.00  0.00    +0.000 HD
ENDBRANCH  21  23
ENDBRANCH   3  17
TORSDOF 3
ENDMDL
MODEL 4
REMARK VINA RESULT:      -8.2      3.469      5.327
REMARK  Name = 
REMARK  3 active torsions:
REMARK  status: ('A' for Active; 'I' for Inactive)
REMARK    1  A    between atoms: C_2  and  C_15
REMARK    2  A    between atoms: N_3  and  C_4
REMARK    3  A    between atoms: C_8  and  C_9
REMARK                            x       y       z     vdW  Elec       q    Type
REMARK                         _______ _______ _______ _____ _____    ______ ____
ROOT
ATOM      1  O   UNL     1       1.715   7.800  21.145  0.00  0.00    +0.000 OA
ATOM      2  C   UNL     1       1.969   7.698  19.960  0.00  0.00    +0.000 C 
ATOM      3  N   UNL     1       1.688   8.565  18.925  0.00  0.00    +0.000 N 
ATOM      4  H   UNL     1       2.062   8.252  18.030  0.00  0.00    +0.000 HD
ENDROOT
BRANCH   2   5
ATOM      5  C   UNL     1       2.568   6.411  19.379  0.00  0.00    +0.000 A 
ATOM      6  N   UNL     1       3.152   6.562  18.218  0.00  0.00    +0.000 NA
ATOM      7  N   UNL     1       3.248   5.454  17.427  0.00  0.00    +0.000 N 
ATOM      8  C   UNL     1       2.416   4.367  17.604  0.00  0.00    +0.000 A 
ATOM      9  O   UNL     1       2.084   3.630  16.681  0.00  0.00    +0.000 OA
ATOM     10  C   UNL     1       2.024   4.097  18.994  0.00  0.00    +0.000 A 
ATOM     11  C   UNL     1       1.555   2.843  19.377  0.00  0.00    +0.000 A 
ATOM     12  C   UNL     1       1.441   2.546  20.733  0.00  0.00    +0.000 A 
ATOM     13  C   UNL     1       1.796   3.501  21.693  0.00  0.00    +0.000 A 
ATOM     14  C   UNL     1       2.181   4.790  21.303  0.00  0.00    +0.000 A 
ATOM     15  C   UNL     1       2.252   5.091  19.943  0.00  0.00    +0.000 A 
ATOM     16  H   UNL     1       3.548   5.629  16.473  0.00  0.00    +0.000 HD
ENDBRANCH   2   5
BRANCH   3  17
ATOM     17  C   UNL     1       0.918   9.730  18.913  0.00  0.00    +0.000 A 
ATOM     18  C   UNL     1       1.263  10.884  19.609  0.00  0.00    +0.000 A 
ATOM     19  C   UNL     1       0.451  12.015  19.510  0.00  0.00    +0.000 A 
ATOM     20  C   UNL     1      -0.692  11.996  18.705  0.00  0.00    +0.000 A 
ATOM     21  C   UNL     1      -1.059  10.837  18.010  0.00  0.00    +0.000 A 
ATOM     22  C   UNL     1      -0.263   9.699  18.153  0.00  0.00    +0.000 A 
BRANCH  21  23
ATOM     23  C   UNL     1      -2.225  10.825  17.125  0.00  0.00    +0.000 A 
ATOM     24  C   UNL     1      -2.522  10.081  15.997  0.00  0.00    +0.000 A 
ATOM     25  C   UNL     1      -3.774  10.558  15.561  0.00  0.00    +0.000 A 
ATOM     26  N   UNL     1      -4.241  11.535  16.336  0.00  0.00    +0.000 NA
ATOM     27  N   UNL     1      -3.280  11.688  17.264  0.00  0.00    +0.000 N 
ATOM     28  H   UNL     1      -3.399  12.411  17.960  0.00  0.00    +0.000 HD
ENDBRANCH  21  23
ENDBRANCH   3  17
TORSDOF 3
ENDMDL
MODEL 5
REMARK VINA RESULT:      -8.2      2.270      3.567
REMARK  Name = 
REMARK  3 active torsions:
REMARK  status: ('A' for Active; 'I' for Inactive)
REMARK    1  A    between atoms: C_2  and  C_15
REMARK    2  A    between atoms: N_3  and  C_4
REMARK    3  A    between atoms: C_8  and  C_9
REMARK                            x       y       z     vdW  Elec       q    Type
REMARK                         _______ _______ _______ _____ _____    ______ ____
ROOT
ATOM      1  O   UNL     1       4.651   7.106  17.476  0.00  0.00    +0.000 OA
ATOM      2  C   UNL     1       3.805   6.465  18.071  0.00  0.00    +0.000 C 
ATOM      3  N   UNL     1       2.600   6.880  18.597  0.00  0.00    +0.000 N 
ATOM      4  H   UNL     1       2.059   6.118  19.005  0.00  0.00    +0.000 HD
ENDROOT
BRANCH   2   5
ATOM      5  C   UNL     1       4.047   5.006  18.479  0.00  0.00    +0.000 A 
ATOM      6  N   UNL     1       4.925   4.377  17.742  0.00  0.00    +0.000 NA
ATOM      7  N   UNL     1       4.831   3.016  17.697  0.00  0.00    +0.000 N 
ATOM      8  C   UNL     1       3.658   2.363  18.018  0.00  0.00    +0.000 A 
ATOM      9  O   UNL     1       3.340   1.288  17.518  0.00  0.00    +0.000 OA
ATOM     10  C   UNL     1       2.854   3.001  19.069  0.00  0.00    +0.000 A 
ATOM     11  C   UNL     1       1.897   2.278  19.777  0.00  0.00    +0.000 A 
ATOM     12  C   UNL     1       1.342   2.833  20.928  0.00  0.00    +0.000 A 
ATOM     13  C   UNL     1       1.747   4.101  21.362  0.00  0.00    +0.000 A 
ATOM     14  C   UNL     1       2.641   4.861  20.596  0.00  0.00    +0.000 A 
ATOM     15  C   UNL     1       3.160   4.312  19.423  0.00  0.00    +0.000 A 
ATOM     16  H   UNL     1       5.408   2.566  16.993  0.00  0.00    +0.000 HD
ENDBRANCH   2   5
BRANCH   3  17
ATOM     17  C   UNL     1       2.068   8.165  18.721  0.00  0.00    +0.000 A 
ATOM     18  C   UNL     1       2.069   9.098  17.689  0.00  0.00    +0.000 A 
ATOM     19  C   UNL     1       1.482  10.348  17.892  0.00  0.00    +0.000 A 
ATOM     20  C   UNL     1       0.883  10.657  19.116  0.00  0.00    +0.000 A 
ATOM     21  C   UNL     1       0.887   9.733  20.169  0.00  0.00    +0.000 A 
ATOM     22  C   UNL     1       1.517   8.503  19.968  0.00  0.00    +0.000 A 
BRANCH  21  23
ATOM     23  C   UNL     1       0.218  10.030  21.436  0.00  0.00    +0.000 A 
ATOM     24  C   UNL     1      -0.818  10.889  21.757  0.00  0.00    +0.000 A 
ATOM     25  C   UNL     1      -0.983  10.765  23.150  0.00  0.00    +0.000 A 
ATOM     26  N   UNL     1      -0.118   9.905  23.687  0.00  0.00    +0.000 NA
ATOM     27  N   UNL     1       0.606   9.488  22.634  0.00  0.00    +0.000 N 
ATOM     28  H   UNL     1       1.363   8.839  22.801  0.00  0.00    +0.000 HD
ENDBRANCH  21  23
ENDBRANCH   3  17
TORSDOF 3
ENDMDL
MODEL 6
REMARK VINA RESULT:      -8.1      2.872      8.515
REMARK  Name = 
REMARK  3 active torsions:
REMARK  status: ('A' for Active; 'I' for Inactive)
REMARK    1  A    between atoms: C_2  and  C_15
REMARK    2  A    between atoms: N_3  and  C_4
REMARK    3  A    between atoms: C_8  and  C_9
REMARK                            x       y       z     vdW  Elec       q    Type
REMARK                         _______ _______ _______ _____ _____    ______ ____
ROOT
ATOM      1  O   UNL     1       1.926   7.738  20.642  0.00  0.00    +0.000 OA
ATOM      2  C   UNL     1       1.907   8.095  19.479  0.00  0.00    +0.000 C 
ATOM      3  N   UNL     1       2.392   7.457  18.358  0.00  0.00    +0.000 N 
ATOM      4  H   UNL     1       2.198   7.963  17.495  0.00  0.00    +0.000 HD
ENDROOT
BRANCH   2   5
ATOM      5  C   UNL     1       1.424   9.496  19.081  0.00  0.00    +0.000 A 
ATOM      6  N   UNL     1       1.904   9.931  17.945  0.00  0.00    +0.000 NA
ATOM      7  N   UNL     1       1.946  11.284  17.770  0.00  0.00    +0.000 N 
ATOM      8  C   UNL     1       1.921  12.151  18.844  0.00  0.00    +0.000 A 
ATOM      9  O   UNL     1       2.465  13.250  18.820  0.00  0.00    +0.000 OA
ATOM     10  C   UNL     1       1.120  11.704  19.991  0.00  0.00    +0.000 A 
ATOM     11  C   UNL     1       0.664  12.611  20.944  0.00  0.00    +0.000 A 
ATOM     12  C   UNL     1      -0.299  12.202  21.865  0.00  0.00    +0.000 A 
ATOM     13  C   UNL     1      -0.797  10.895  21.825  0.00  0.00    +0.000 A 
ATOM     14  C   UNL     1      -0.270   9.961  20.924  0.00  0.00    +0.000 A 
ATOM     15  C   UNL     1       0.724  10.369  20.033  0.00  0.00    +0.000 A 
ATOM     16  H   UNL     1       2.473  11.598  16.961  0.00  0.00    +0.000 HD
ENDBRANCH   2   5
BRANCH   3  17
ATOM     17  C   UNL     1       3.159   6.294  18.246  0.00  0.00    +0.000 A 
ATOM     18  C   UNL     1       3.013   5.196  19.088  0.00  0.00    +0.000 A 
ATOM     19  C   UNL     1       3.799   4.062  18.879  0.00  0.00    +0.000 A 
ATOM     20  C   UNL     1       4.714   4.020  17.824  0.00  0.00    +0.000 A 
ATOM     21  C   UNL     1       4.881   5.124  16.977  0.00  0.00    +0.000 A 
ATOM     22  C   UNL     1       4.121   6.269  17.224  0.00  0.00    +0.000 A 
BRANCH  21  23
ATOM     23  C   UNL     1       5.800   5.070  15.839  0.00  0.00    +0.000 A 
ATOM     24  C   UNL     1       5.709   4.451  14.605  0.00  0.00    +0.000 A 
ATOM     25  C   UNL     1       6.933   4.725  13.964  0.00  0.00    +0.000 A 
ATOM     26  N   UNL     1       7.751   5.450  14.725  0.00  0.00    +0.000 NA
ATOM     27  N   UNL     1       7.050   5.631  15.857  0.00  0.00    +0.000 N 
ATOM     28  H   UNL     1       7.488   6.139  16.614  0.00  0.00    +0.000 HD
ENDBRANCH  21  23
ENDBRANCH   3  17
TORSDOF 3
ENDMDL
MODEL 7
REMARK VINA RESULT:      -8.0      2.874      8.413
REMARK  Name = 
REMARK  3 active torsions:
REMARK  status: ('A' for Active; 'I' for Inactive)
REMARK    1  A    between atoms: C_2  and  C_15
REMARK    2  A    between atoms: N_3  and  C_4
REMARK    3  A    between atoms: C_8  and  C_9
REMARK                            x       y       z     vdW  Elec       q    Type
REMARK                         _______ _______ _______ _____ _____    ______ ____
ROOT
ATOM      1  O   UNL     1       1.351   8.959  17.189  0.00  0.00    +0.000 OA
ATOM      2  C   UNL     1       1.701   8.847  18.349  0.00  0.00    +0.000 C 
ATOM      3  N   UNL     1       2.369   7.812  18.967  0.00  0.00    +0.000 N 
ATOM      4  H   UNL     1       2.581   8.002  19.946  0.00  0.00    +0.000 HD
ENDROOT
BRANCH   2   5
ATOM      5  C   UNL     1       1.287   9.873  19.411  0.00  0.00    +0.000 A 
ATOM      6  N   UNL     1       0.715   9.357  20.468  0.00  0.00    +0.000 NA
ATOM      7  N   UNL     1      -0.108  10.176  21.186  0.00  0.00    +0.000 N 
ATOM      8  C   UNL     1      -0.666  11.308  20.627  0.00  0.00    +0.000 A 
ATOM      9  O   UNL     1      -1.752  11.755  20.983  0.00  0.00    +0.000 OA
ATOM     10  C   UNL     1       0.172  11.995  19.635  0.00  0.00    +0.000 A 
ATOM     11  C   UNL     1      -0.056  13.328  19.305  0.00  0.00    +0.000 A 
ATOM     12  C   UNL     1       0.903  14.018  18.566  0.00  0.00    +0.000 A 
ATOM     13  C   UNL     1       2.078  13.372  18.166  0.00  0.00    +0.000 A 
ATOM     14  C   UNL     1       2.261  12.007  18.422  0.00  0.00    +0.000 A 
ATOM     15  C   UNL     1       1.276  11.315  19.127  0.00  0.00    +0.000 A 
ATOM     16  H   UNL     1      -0.668   9.712  21.895  0.00  0.00    +0.000 HD
ENDBRANCH   2   5
BRANCH   3  17
ATOM     17  C   UNL     1       2.711   6.546  18.484  0.00  0.00    +0.000 A 
ATOM     18  C   UNL     1       1.970   5.399  18.749  0.00  0.00    +0.000 A 
ATOM     19  C   UNL     1       2.367   4.181  18.194  0.00  0.00    +0.000 A 
ATOM     20  C   UNL     1       3.490   4.115  17.365  0.00  0.00    +0.000 A 
ATOM     21  C   UNL     1       4.254   5.260  17.101  0.00  0.00    +0.000 A 
ATOM     22  C   UNL     1       3.872   6.463  17.699  0.00  0.00    +0.000 A 
BRANCH  21  23
ATOM     23  C   UNL     1       5.401   5.209  16.194  0.00  0.00    +0.000 A 
ATOM     24  C   UNL     1       5.693   4.392  15.116  0.00  0.00    +0.000 A 
ATOM     25  C   UNL     1       6.967   4.801  14.677  0.00  0.00    +0.000 A 
ATOM     26  N   UNL     1       7.463   5.791  15.418  0.00  0.00    +0.000 NA
ATOM     27  N   UNL     1       6.505   6.008  16.336  0.00  0.00    +0.000 N 
ATOM     28  H   UNL     1       6.672   6.710  17.044  0.00  0.00    +0.000 HD
ENDBRANCH  21  23
ENDBRANCH   3  17
TORSDOF 3
ENDMDL
MODEL 8
REMARK VINA RESULT:      -8.0      2.332      8.342
REMARK  Name = 
REMARK  3 active torsions:
REMARK  status: ('A' for Active; 'I' for Inactive)
REMARK    1  A    between atoms: C_2  and  C_15
REMARK    2  A    between atoms: N_3  and  C_4
REMARK    3  A    between atoms: C_8  and  C_9
REMARK                            x       y       z     vdW  Elec       q    Type
REMARK                         _______ _______ _______ _____ _____    ______ ____
ROOT
ATOM      1  O   UNL     1       1.425   8.627  17.802  0.00  0.00    +0.000 OA
ATOM      2  C   UNL     1       1.788   8.311  18.919  0.00  0.00    +0.000 C 
ATOM      3  N   UNL     1       2.396   7.150  19.347  0.00  0.00    +0.000 N 
ATOM      4  H   UNL     1       2.639   7.168  20.337  0.00  0.00    +0.000 HD
ENDROOT
BRANCH   2   5
ATOM      5  C   UNL     1       1.463   9.179  20.141  0.00  0.00    +0.000 A 
ATOM      6  N   UNL     1       1.667   8.592  21.292  0.00  0.00    +0.000 NA
ATOM      7  N   UNL     1       0.960   9.063  22.359  0.00  0.00    +0.000 N 
ATOM      8  C   UNL     1      -0.205   9.785  22.190  0.00  0.00    +0.000 A 
ATOM      9  O   UNL     1      -1.118   9.770  23.011  0.00  0.00    +0.000 OA
ATOM     10  C   UNL     1      -0.243  10.645  21.000  0.00  0.00    +0.000 A 
ATOM     11  C   UNL     1      -1.133  11.712  20.914  0.00  0.00    +0.000 A 
ATOM     12  C   UNL     1      -0.968  12.653  19.901  0.00  0.00    +0.000 A 
ATOM     13  C   UNL     1       0.082  12.522  18.985  0.00  0.00    +0.000 A 
ATOM     14  C   UNL     1       0.919  11.399  19.020  0.00  0.00    +0.000 A 
ATOM     15  C   UNL     1       0.720  10.440  20.014  0.00  0.00    +0.000 A 
ATOM     16  H   UNL     1       1.006   8.489  23.196  0.00  0.00    +0.000 HD
ENDBRANCH   2   5
BRANCH   3  17
ATOM     17  C   UNL     1       2.644   5.958  18.661  0.00  0.00    +0.000 A 
ATOM     18  C   UNL     1       1.752   4.891  18.633  0.00  0.00    +0.000 A 
ATOM     19  C   UNL     1       2.068   3.752  17.891  0.00  0.00    +0.000 A 
ATOM     20  C   UNL     1       3.262   3.687  17.169  0.00  0.00    +0.000 A 
ATOM     21  C   UNL     1       4.176   4.748  17.201  0.00  0.00    +0.000 A 
ATOM     22  C   UNL     1       3.869   5.864  17.982  0.00  0.00    +0.000 A 
BRANCH  21  23
ATOM     23  C   UNL     1       5.406   4.709  16.407  0.00  0.00    +0.000 A 
ATOM     24  C   UNL     1       5.643   4.905  15.058  0.00  0.00    +0.000 A 
ATOM     25  C   UNL     1       7.025   4.689  14.891  0.00  0.00    +0.000 A 
ATOM     26  N   UNL     1       7.628   4.368  16.035  0.00  0.00    +0.000 NA
ATOM     27  N   UNL     1       6.626   4.372  16.931  0.00  0.00    +0.000 N 
ATOM     28  H   UNL     1       6.839   4.121  17.887  0.00  0.00    +0.000 HD
ENDBRANCH  21  23
ENDBRANCH   3  17
TORSDOF 3
ENDMDL
MODEL 9
REMARK VINA RESULT:      -8.0      2.917      8.611
REMARK  Name = 
REMARK  3 active torsions:
REMARK  status: ('A' for Active; 'I' for Inactive)
REMARK    1  A    between atoms: C_2  and  C_15
REMARK    2  A    between atoms: N_3  and  C_4
REMARK    3  A    between atoms: C_8  and  C_9
REMARK                            x       y       z     vdW  Elec       q    Type
REMARK                         _______ _______ _______ _____ _____    ______ ____
ROOT
ATOM      1  O   UNL     1       0.950   9.168  19.163  0.00  0.00    +0.000 OA
ATOM      2  C   UNL     1       1.220   8.876  20.312  0.00  0.00    +0.000 C 
ATOM      3  N   UNL     1       1.784   7.723  20.815  0.00  0.00    +0.000 N 
ATOM      4  H   UNL     1       1.946   7.763  21.821  0.00  0.00    +0.000 HD
ENDROOT
BRANCH   2   5
ATOM      5  C   UNL     1       0.802   9.774  21.484  0.00  0.00    +0.000 A 
ATOM      6  N   UNL     1       0.377   9.125  22.538  0.00  0.00    +0.000 NA
ATOM      7  N   UNL     1      -0.456   9.800  23.383  0.00  0.00    +0.000 N 
ATOM      8  C   UNL     1      -1.168  10.905  22.964  0.00  0.00    +0.000 A 
ATOM      9  O   UNL     1      -2.258  11.210  23.440  0.00  0.00    +0.000 OA
ATOM     10  C   UNL     1      -0.491  11.746  21.967  0.00  0.00    +0.000 A 
ATOM     11  C   UNL     1      -0.876  13.069  21.765  0.00  0.00    +0.000 A 
ATOM     12  C   UNL     1      -0.057  13.906  21.011  0.00  0.00    +0.000 A 
ATOM     13  C   UNL     1       1.137  13.417  20.468  0.00  0.00    +0.000 A 
ATOM     14  C   UNL     1       1.473  12.064  20.597  0.00  0.00    +0.000 A 
ATOM     15  C   UNL     1       0.625  11.223  21.320  0.00  0.00    +0.000 A 
ATOM     16  H   UNL     1      -0.904   9.230  24.094  0.00  0.00    +0.000 HD
ENDBRANCH   2   5
BRANCH   3  17
ATOM     17  C   UNL     1       2.080   6.515  20.179  0.00  0.00    +0.000 A 
ATOM     18  C   UNL     1       1.516   5.298  20.546  0.00  0.00    +0.000 A 
ATOM     19  C   UNL     1       1.843   4.145  19.829  0.00  0.00    +0.000 A 
ATOM     20  C   UNL     1       2.717   4.213  18.741  0.00  0.00    +0.000 A 
ATOM     21  C   UNL     1       3.304   5.430  18.370  0.00  0.00    +0.000 A 
ATOM     22  C   UNL     1       3.004   6.567  19.123  0.00  0.00    +0.000 A 
BRANCH  21  23
ATOM     23  C   UNL     1       4.181   5.519  17.202  0.00  0.00    +0.000 A 
ATOM     24  C   UNL     1       4.785   4.549  16.422  0.00  0.00    +0.000 A 
ATOM     25  C   UNL     1       5.546   5.259  15.473  0.00  0.00    +0.000 A 
ATOM     26  N   UNL     1       5.452   6.578  15.635  0.00  0.00    +0.000 NA
ATOM     27  N   UNL     1       4.636   6.708  16.694  0.00  0.00    +0.000 N 
ATOM     28  H   UNL     1       4.436   7.640  17.032  0.00  0.00    +0.000 HD
ENDBRANCH  21  23
ENDBRANCH   3  17
TORSDOF 3
ENDMDL
