MODEL 1
REMARK VINA RESULT:      -8.6      0.000      0.000
REMARK  Name = 
REMARK  4 active torsions:
REMARK  status: ('A' for Active; 'I' for Inactive)
REMARK    1  A    between atoms: C_1  and  C_2
REMARK    2  A    between atoms: C_8  and  C_9
REMARK    3  A    between atoms: N_11  and  C_12
REMARK    4  A    between atoms: C_12  and  C_13
REMARK                            x       y       z     vdW  Elec       q    Type
REMARK                         _______ _______ _______ _____ _____    ______ ____
ROOT
ATOM      1  C   UNL     1       3.490   4.187  19.104  0.00  0.00    +0.000 C 
ATOM      2  C   UNL     1       1.949   4.486  19.112  0.00  0.00    +0.000 C 
ATOM      3  C   UNL     1       1.091   3.234  19.119  0.00  0.00    +0.000 C 
ATOM      4  C   UNL     1       1.969   2.134  18.625  0.00  0.00    +0.000 C 
ATOM      5  C   UNL     1       3.331   2.784  18.380  0.00  0.00    +0.000 C 
ATOM      6  C   UNL     1       3.453   2.935  16.855  0.00  0.00    +0.000 C 
ATOM      7  N   UNL     1       4.477   3.908  16.729  0.00  0.00    +0.000 N 
ATOM      8  C   UNL     1       5.283   4.123  15.624  0.00  0.00    +0.000 A 
ATOM      9  C   UNL     1       4.902   3.514  14.297  0.00  0.00    +0.000 A 
ATOM     10  C   UNL     1       5.664   3.753  13.220  0.00  0.00    +0.000 A 
ATOM     11  C   UNL     1       6.801   4.553  13.367  0.00  0.00    +0.000 A 
ATOM     12  N   UNL     1       7.733   4.987  12.546  0.00  0.00    +0.000 NA
ATOM     13  N   UNL     1       8.577   5.761  13.315  0.00  0.00    +0.000 NA
ATOM     14  N   UNL     1       8.164   5.810  14.577  0.00  0.00    +0.000 NA
ATOM     15  N   UNL     1       7.051   5.054  14.632  0.00  0.00    +0.000 N 
ATOM     16  N   UNL     1       6.347   4.872  15.766  0.00  0.00    +0.000 NA
ATOM     17  C   UNL     1       4.809   4.352  18.063  0.00  0.00    +0.000 C 
ENDROOT
BRANCH   1  18
ATOM     18  C   UNL     1       3.904   5.615  19.642  0.00  0.00    +0.000 C 
BRANCH  18  21
ATOM     19  C   UNL     1       2.601   7.643  18.842  0.00  0.00    +0.000 C 
ATOM     20  O   UNL     1       3.343   7.836  17.885  0.00  0.00    +0.000 OA
ATOM     21  N   UNL     1       2.761   6.581  19.703  0.00  0.00    +0.000 N 
ATOM     22  H   UNL     1       1.993   6.386  20.338  0.00  0.00    +0.000 HD
BRANCH  19  30
ATOM     23  C   UNL     1       1.404   8.425  21.649  0.00  0.00    +0.000 C 
ATOM     24  C   UNL     1       0.916   8.956  20.331  0.00  0.00    +0.000 A 
ATOM     25  C   UNL     1      -0.084   9.955  20.385  0.00  0.00    +0.000 A 
ATOM     26  C   UNL     1      -0.555  10.546  19.216  0.00  0.00    +0.000 A 
ATOM     27  F   UNL     1      -1.498  11.498  19.298  0.00  0.00    +0.000 F 
ATOM     28  C   UNL     1      -0.058  10.179  17.982  0.00  0.00    +0.000 A 
ATOM     29  C   UNL     1       0.944   9.204  17.910  0.00  0.00    +0.000 A 
ATOM     30  C   UNL     1       1.445   8.578  19.072  0.00  0.00    +0.000 A 
ENDBRANCH  19  30
ENDBRANCH  18  21
ENDBRANCH   1  18
TORSDOF 3
ENDMDL
MODEL 2
REMARK VINA RESULT:      -8.5      3.608      6.743
REMARK  Name = 
REMARK  4 active torsions:
REMARK  status: ('A' for Active; 'I' for Inactive)
REMARK    1  A    between atoms: C_1  and  C_2
REMARK    2  A    between atoms: C_8  and  C_9
REMARK    3  A    between atoms: N_11  and  C_12
REMARK    4  A    between atoms: C_12  and  C_13
REMARK                            x       y       z     vdW  Elec       q    Type
REMARK                         _______ _______ _______ _____ _____    ______ ____
ROOT
ATOM      1  C   UNL     1       2.562   3.013  19.492  0.00  0.00    +0.000 C 
ATOM      2  C   UNL     1       3.481   2.395  20.604  0.00  0.00    +0.000 C 
ATOM      3  C   UNL     1       2.705   1.799  21.765  0.00  0.00    +0.000 C 
ATOM      4  C   UNL     1       1.350   2.421  21.714  0.00  0.00    +0.000 C 
ATOM      5  C   UNL     1       1.374   3.339  20.490  0.00  0.00    +0.000 C 
ATOM      6  C   UNL     1       1.497   4.768  21.044  0.00  0.00    +0.000 C 
ATOM      7  N   UNL     1       1.953   5.491  19.912  0.00  0.00    +0.000 N 
ATOM      8  C   UNL     1       1.836   6.855  19.699  0.00  0.00    +0.000 A 
ATOM      9  C   UNL     1       1.475   7.758  20.852  0.00  0.00    +0.000 A 
ATOM     10  C   UNL     1       1.398   9.082  20.652  0.00  0.00    +0.000 A 
ATOM     11  C   UNL     1       1.643   9.581  19.370  0.00  0.00    +0.000 A 
ATOM     12  N   UNL     1       1.665  10.786  18.841  0.00  0.00    +0.000 NA
ATOM     13  N   UNL     1       1.994  10.605  17.514  0.00  0.00    +0.000 NA
ATOM     14  N   UNL     1       2.181   9.318  17.239  0.00  0.00    +0.000 NA
ATOM     15  N   UNL     1       1.961   8.658  18.391  0.00  0.00    +0.000 N 
ATOM     16  N   UNL     1       2.065   7.318  18.497  0.00  0.00    +0.000 NA
ATOM     17  C   UNL     1       2.183   4.532  18.858  0.00  0.00    +0.000 C 
ENDROOT
BRANCH   1  18
ATOM     18  C   UNL     1       3.671   2.966  18.365  0.00  0.00    +0.000 C 
BRANCH  18  21
ATOM     19  C   UNL     1       5.540   4.402  17.418  0.00  0.00    +0.000 C 
ATOM     20  O   UNL     1       5.704   3.677  16.443  0.00  0.00    +0.000 OA
ATOM     21  N   UNL     1       4.562   4.170  18.359  0.00  0.00    +0.000 N 
ATOM     22  H   UNL     1       4.369   4.922  19.013  0.00  0.00    +0.000 HD
BRANCH  19  30
ATOM     23  C   UNL     1       5.122   7.170  15.974  0.00  0.00    +0.000 C 
ATOM     24  C   UNL     1       6.218   6.874  16.957  0.00  0.00    +0.000 A 
ATOM     25  C   UNL     1       7.046   7.959  17.324  0.00  0.00    +0.000 A 
ATOM     26  C   UNL     1       8.052   7.791  18.272  0.00  0.00    +0.000 A 
ATOM     27  F   UNL     1       8.817   8.842  18.607  0.00  0.00    +0.000 F 
ATOM     28  C   UNL     1       8.260   6.570  18.880  0.00  0.00    +0.000 A 
ATOM     29  C   UNL     1       7.439   5.488  18.542  0.00  0.00    +0.000 A 
ATOM     30  C   UNL     1       6.413   5.616  17.582  0.00  0.00    +0.000 A 
ENDBRANCH  19  30
ENDBRANCH  18  21
ENDBRANCH   1  18
TORSDOF 3
ENDMDL
MODEL 3
REMARK VINA RESULT:      -8.5      5.012      8.977
REMARK  Name = 
REMARK  4 active torsions:
REMARK  status: ('A' for Active; 'I' for Inactive)
REMARK    1  A    between atoms: C_1  and  C_2
REMARK    2  A    between atoms: C_8  and  C_9
REMARK    3  A    between atoms: N_11  and  C_12
REMARK    4  A    between atoms: C_12  and  C_13
REMARK                            x       y       z     vdW  Elec       q    Type
REMARK                         _______ _______ _______ _____ _____    ______ ____
ROOT
ATOM      1  C   UNL     1       0.858   9.661  19.629  0.00  0.00    +0.000 C 
ATOM      2  C   UNL     1       1.336   8.730  20.798  0.00  0.00    +0.000 C 
ATOM      3  C   UNL     1       0.300   8.554  21.893  0.00  0.00    +0.000 C 
ATOM      4  C   UNL     1      -0.644   9.701  21.751  0.00  0.00    +0.000 C 
ATOM      5  C   UNL     1      -0.138  10.491  20.543  0.00  0.00    +0.000 C 
ATOM      6  C   UNL     1       0.553  11.737  21.120  0.00  0.00    +0.000 C 
ATOM      7  N   UNL     1       1.355  12.167  20.033  0.00  0.00    +0.000 N 
ATOM      8  C   UNL     1       1.857  13.442  19.828  0.00  0.00    +0.000 A 
ATOM      9  C   UNL     1       1.844  14.437  20.962  0.00  0.00    +0.000 A 
ATOM     10  C   UNL     1       2.363  15.659  20.773  0.00  0.00    +0.000 A 
ATOM     11  C   UNL     1       2.890  15.975  19.517  0.00  0.00    +0.000 A 
ATOM     12  N   UNL     1       3.469  17.040  19.005  0.00  0.00    +0.000 NA
ATOM     13  N   UNL     1       3.779  16.706  17.703  0.00  0.00    +0.000 NA
ATOM     14  N   UNL     1       3.409  15.460  17.428  0.00  0.00    +0.000 NA
ATOM     15  N   UNL     1       2.844  14.984  18.553  0.00  0.00    +0.000 N 
ATOM     16  N   UNL     1       2.348  13.734  18.651  0.00  0.00    +0.000 NA
ATOM     17  C   UNL     1       1.221  11.181  18.987  0.00  0.00    +0.000 C 
ENDROOT
BRANCH   1  18
ATOM     18  C   UNL     1       1.912   9.115  18.585  0.00  0.00    +0.000 C 
BRANCH  18  21
ATOM     19  C   UNL     1       3.101   6.955  17.977  0.00  0.00    +0.000 C 
ATOM     20  O   UNL     1       3.904   7.517  17.239  0.00  0.00    +0.000 OA
ATOM     21  N   UNL     1       2.150   7.640  18.697  0.00  0.00    +0.000 N 
ATOM     22  H   UNL     1       1.667   7.124  19.426  0.00  0.00    +0.000 HD
BRANCH  19  30
ATOM     23  C   UNL     1       5.543   5.353  19.158  0.00  0.00    +0.000 C 
ATOM     24  C   UNL     1       4.258   4.733  18.689  0.00  0.00    +0.000 A 
ATOM     25  C   UNL     1       4.116   3.342  18.898  0.00  0.00    +0.000 A 
ATOM     26  C   UNL     1       2.936   2.692  18.548  0.00  0.00    +0.000 A 
ATOM     27  F   UNL     1       2.826   1.372  18.767  0.00  0.00    +0.000 F 
ATOM     28  C   UNL     1       1.878   3.385  17.997  0.00  0.00    +0.000 A 
ATOM     29  C   UNL     1       1.993   4.766  17.799  0.00  0.00    +0.000 A 
ATOM     30  C   UNL     1       3.175   5.461  18.135  0.00  0.00    +0.000 A 
ENDBRANCH  19  30
ENDBRANCH  18  21
ENDBRANCH   1  18
TORSDOF 3
ENDMDL
MODEL 4
REMARK VINA RESULT:      -8.5      3.432      6.286
REMARK  Name = 
REMARK  4 active torsions:
REMARK  status: ('A' for Active; 'I' for Inactive)
REMARK    1  A    between atoms: C_1  and  C_2
REMARK    2  A    between atoms: C_8  and  C_9
REMARK    3  A    between atoms: N_11  and  C_12
REMARK    4  A    between atoms: C_12  and  C_13
REMARK                            x       y       z     vdW  Elec       q    Type
REMARK                         _______ _______ _______ _____ _____    ______ ____
ROOT
ATOM      1  C   UNL     1       0.865   9.789  20.246  0.00  0.00    +0.000 C 
ATOM      2  C   UNL     1      -0.631   9.910  20.705  0.00  0.00    +0.000 C 
ATOM      3  C   UNL     1      -0.792  10.060  22.207  0.00  0.00    +0.000 C 
ATOM      4  C   UNL     1       0.477   9.556  22.806  0.00  0.00    +0.000 C 
ATOM      5  C   UNL     1       1.355   9.162  21.618  0.00  0.00    +0.000 C 
ATOM      6  C   UNL     1       1.319   7.626  21.565  0.00  0.00    +0.000 C 
ATOM      7  N   UNL     1       1.752   7.360  20.241  0.00  0.00    +0.000 N 
ATOM      8  C   UNL     1       2.307   6.180  19.772  0.00  0.00    +0.000 A 
ATOM      9  C   UNL     1       2.198   4.926  20.605  0.00  0.00    +0.000 A 
ATOM     10  C   UNL     1       2.703   3.777  20.134  0.00  0.00    +0.000 A 
ATOM     11  C   UNL     1       3.331   3.783  18.885  0.00  0.00    +0.000 A 
ATOM     12  N   UNL     1       3.906   2.864  18.140  0.00  0.00    +0.000 NA
ATOM     13  N   UNL     1       4.318   3.514  16.996  0.00  0.00    +0.000 NA
ATOM     14  N   UNL     1       3.991   4.802  17.034  0.00  0.00    +0.000 NA
ATOM     15  N   UNL     1       3.374   4.992  18.214  0.00  0.00    +0.000 N 
ATOM     16  N   UNL     1       2.894   6.191  18.603  0.00  0.00    +0.000 NA
ATOM     17  C   UNL     1       1.897   8.633  19.576  0.00  0.00    +0.000 C 
ENDROOT
BRANCH   1  18
ATOM     18  C   UNL     1       0.578  10.209  18.749  0.00  0.00    +0.000 C 
BRANCH  18  21
ATOM     19  C   UNL     1      -1.451  11.606  18.131  0.00  0.00    +0.000 C 
ATOM     20  O   UNL     1      -0.791  12.628  17.969  0.00  0.00    +0.000 OA
ATOM     21  N   UNL     1      -0.878  10.397  18.453  0.00  0.00    +0.000 N 
ATOM     22  H   UNL     1      -1.468   9.574  18.370  0.00  0.00    +0.000 HD
BRANCH  19  30
ATOM     23  C   UNL     1      -2.981  10.867  15.478  0.00  0.00    +0.000 C 
ATOM     24  C   UNL     1      -3.641  11.304  16.755  0.00  0.00    +0.000 A 
ATOM     25  C   UNL     1      -5.054  11.275  16.776  0.00  0.00    +0.000 A 
ATOM     26  C   UNL     1      -5.750  11.607  17.934  0.00  0.00    +0.000 A 
ATOM     27  F   UNL     1      -7.092  11.561  17.928  0.00  0.00    +0.000 F 
ATOM     28  C   UNL     1      -5.083  11.966  19.088  0.00  0.00    +0.000 A 
ATOM     29  C   UNL     1      -3.683  11.985  19.091  0.00  0.00    +0.000 A 
ATOM     30  C   UNL     1      -2.942  11.659  17.935  0.00  0.00    +0.000 A 
ENDBRANCH  19  30
ENDBRANCH  18  21
ENDBRANCH   1  18
TORSDOF 3
ENDMDL
MODEL 5
REMARK VINA RESULT:      -8.4      3.095      5.472
REMARK  Name = 
REMARK  4 active torsions:
REMARK  status: ('A' for Active; 'I' for Inactive)
REMARK    1  A    between atoms: C_1  and  C_2
REMARK    2  A    between atoms: C_8  and  C_9
REMARK    3  A    between atoms: N_11  and  C_12
REMARK    4  A    between atoms: C_12  and  C_13
REMARK                            x       y       z     vdW  Elec       q    Type
REMARK                         _______ _______ _______ _____ _____    ______ ____
ROOT
ATOM      1  C   UNL     1       1.049   9.613  19.696  0.00  0.00    +0.000 C 
ATOM      2  C   UNL     1      -0.444   9.273  20.044  0.00  0.00    +0.000 C 
ATOM      3  C   UNL     1      -0.654   8.902  21.501  0.00  0.00    +0.000 C 
ATOM      4  C   UNL     1       0.687   8.506  22.020  0.00  0.00    +0.000 C 
ATOM      5  C   UNL     1       1.647   8.697  20.845  0.00  0.00    +0.000 C 
ATOM      6  C   UNL     1       1.951   7.284  20.321  0.00  0.00    +0.000 C 
ATOM      7  N   UNL     1       2.450   7.547  19.020  0.00  0.00    +0.000 N 
ATOM      8  C   UNL     1       3.258   6.717  18.260  0.00  0.00    +0.000 A 
ATOM      9  C   UNL     1       3.417   5.269  18.657  0.00  0.00    +0.000 A 
ATOM     10  C   UNL     1       4.170   4.458  17.900  0.00  0.00    +0.000 A 
ATOM     11  C   UNL     1       4.798   4.989  16.769  0.00  0.00    +0.000 A 
ATOM     12  N   UNL     1       5.572   4.491  15.829  0.00  0.00    +0.000 NA
ATOM     13  N   UNL     1       5.846   5.541  14.977  0.00  0.00    +0.000 NA
ATOM     14  N   UNL     1       5.243   6.654  15.380  0.00  0.00    +0.000 NA
ATOM     15  N   UNL     1       4.583   6.330  16.507  0.00  0.00    +0.000 N 
ATOM     16  N   UNL     1       3.845   7.218  17.203  0.00  0.00    +0.000 NA
ATOM     17  C   UNL     1       2.320   8.967  18.792  0.00  0.00    +0.000 C 
ENDROOT
BRANCH   1  18
ATOM     18  C   UNL     1       0.697  10.418  18.381  0.00  0.00    +0.000 C 
BRANCH  18  21
ATOM     19  C   UNL     1      -1.445  11.738  18.035  0.00  0.00    +0.000 C 
ATOM     20  O   UNL     1      -0.868  12.820  18.050  0.00  0.00    +0.000 OA
ATOM     21  N   UNL     1      -0.775  10.539  18.135  0.00  0.00    +0.000 N 
ATOM     22  H   UNL     1      -1.303   9.700  17.913  0.00  0.00    +0.000 HD
BRANCH  19  30
ATOM     23  C   UNL     1      -2.975  10.861  15.425  0.00  0.00    +0.000 C 
ATOM     24  C   UNL     1      -3.637  11.289  16.703  0.00  0.00    +0.000 A 
ATOM     25  C   UNL     1      -5.046  11.185  16.749  0.00  0.00    +0.000 A 
ATOM     26  C   UNL     1      -5.741  11.505  17.912  0.00  0.00    +0.000 A 
ATOM     27  F   UNL     1      -7.078  11.387  17.929  0.00  0.00    +0.000 F 
ATOM     28  C   UNL     1      -5.075  11.924  19.046  0.00  0.00    +0.000 A 
ATOM     29  C   UNL     1      -3.679  12.017  19.025  0.00  0.00    +0.000 A 
ATOM     30  C   UNL     1      -2.939  11.707  17.864  0.00  0.00    +0.000 A 
ENDBRANCH  19  30
ENDBRANCH  18  21
ENDBRANCH   1  18
TORSDOF 3
ENDMDL
MODEL 6
REMARK VINA RESULT:      -8.3      3.600      6.797
REMARK  Name = 
REMARK  4 active torsions:
REMARK  status: ('A' for Active; 'I' for Inactive)
REMARK    1  A    between atoms: C_1  and  C_2
REMARK    2  A    between atoms: C_8  and  C_9
REMARK    3  A    between atoms: N_11  and  C_12
REMARK    4  A    between atoms: C_12  and  C_13
REMARK                            x       y       z     vdW  Elec       q    Type
REMARK                         _______ _______ _______ _____ _____    ______ ____
ROOT
ATOM      1  C   UNL     1       2.818   3.399  19.385  0.00  0.00    +0.000 C 
ATOM      2  C   UNL     1       3.712   2.778  20.516  0.00  0.00    +0.000 C 
ATOM      3  C   UNL     1       2.913   2.076  21.599  0.00  0.00    +0.000 C 
ATOM      4  C   UNL     1       1.527   2.618  21.502  0.00  0.00    +0.000 C 
ATOM      5  C   UNL     1       1.559   3.600  20.330  0.00  0.00    +0.000 C 
ATOM      6  C   UNL     1       1.562   5.002  20.960  0.00  0.00    +0.000 C 
ATOM      7  N   UNL     1       2.032   5.810  19.894  0.00  0.00    +0.000 N 
ATOM      8  C   UNL     1       1.841   7.174  19.743  0.00  0.00    +0.000 A 
ATOM      9  C   UNL     1       1.363   7.992  20.918  0.00  0.00    +0.000 A 
ATOM     10  C   UNL     1       1.214   9.317  20.781  0.00  0.00    +0.000 A 
ATOM     11  C   UNL     1       1.496   9.898  19.541  0.00  0.00    +0.000 A 
ATOM     12  N   UNL     1       1.471  11.128  19.075  0.00  0.00    +0.000 NA
ATOM     13  N   UNL     1       1.882  11.039  17.762  0.00  0.00    +0.000 NA
ATOM     14  N   UNL     1       2.164   9.782  17.434  0.00  0.00    +0.000 NA
ATOM     15  N   UNL     1       1.924   9.049  18.537  0.00  0.00    +0.000 N 
ATOM     16  N   UNL     1       2.106   7.714  18.581  0.00  0.00    +0.000 NA
ATOM     17  C   UNL     1       2.379   4.925  18.808  0.00  0.00    +0.000 C 
ENDROOT
BRANCH   1  18
ATOM     18  C   UNL     1       3.986   3.479  18.322  0.00  0.00    +0.000 C 
BRANCH  18  21
ATOM     19  C   UNL     1       5.868   5.031  17.615  0.00  0.00    +0.000 C 
ATOM     20  O   UNL     1       6.135   4.374  16.615  0.00  0.00    +0.000 OA
ATOM     21  N   UNL     1       4.830   4.710  18.460  0.00  0.00    +0.000 N 
ATOM     22  H   UNL     1       4.558   5.413  19.140  0.00  0.00    +0.000 HD
BRANCH  19  30
ATOM     23  C   UNL     1       8.211   5.208  19.714  0.00  0.00    +0.000 C 
ATOM     24  C   UNL     1       7.752   6.343  18.845  0.00  0.00    +0.000 A 
ATOM     25  C   UNL     1       8.508   7.536  18.915  0.00  0.00    +0.000 A 
ATOM     26  C   UNL     1       8.192   8.622  18.103  0.00  0.00    +0.000 A 
ATOM     27  F   UNL     1       8.932   9.738  18.185  0.00  0.00    +0.000 F 
ATOM     28  C   UNL     1       7.143   8.559  17.208  0.00  0.00    +0.000 A 
ATOM     29  C   UNL     1       6.395   7.380  17.111  0.00  0.00    +0.000 A 
ATOM     30  C   UNL     1       6.680   6.260  17.921  0.00  0.00    +0.000 A 
ENDBRANCH  19  30
ENDBRANCH  18  21
ENDBRANCH   1  18
TORSDOF 3
ENDMDL
MODEL 7
REMARK VINA RESULT:      -8.3      3.752      7.023
REMARK  Name = 
REMARK  4 active torsions:
REMARK  status: ('A' for Active; 'I' for Inactive)
REMARK    1  A    between atoms: C_1  and  C_2
REMARK    2  A    between atoms: C_8  and  C_9
REMARK    3  A    between atoms: N_11  and  C_12
REMARK    4  A    between atoms: C_12  and  C_13
REMARK                            x       y       z     vdW  Elec       q    Type
REMARK                         _______ _______ _______ _____ _____    ______ ____
ROOT
ATOM      1  C   UNL     1       3.207   3.884  17.728  0.00  0.00    +0.000 C 
ATOM      2  C   UNL     1       4.246   3.015  18.519  0.00  0.00    +0.000 C 
ATOM      3  C   UNL     1       3.614   1.866  19.284  0.00  0.00    +0.000 C 
ATOM      4  C   UNL     1       2.173   2.220  19.435  0.00  0.00    +0.000 C 
ATOM      5  C   UNL     1       2.008   3.558  18.714  0.00  0.00    +0.000 C 
ATOM      6  C   UNL     1       1.903   4.618  19.822  0.00  0.00    +0.000 C 
ATOM      7  N   UNL     1       2.199   5.816  19.122  0.00  0.00    +0.000 N 
ATOM      8  C   UNL     1       1.848   7.102  19.497  0.00  0.00    +0.000 A 
ATOM      9  C   UNL     1       1.372   7.361  20.905  0.00  0.00    +0.000 A 
ATOM     10  C   UNL     1       1.067   8.613  21.278  0.00  0.00    +0.000 A 
ATOM     11  C   UNL     1       1.190   9.640  20.337  0.00  0.00    +0.000 A 
ATOM     12  N   UNL     1       0.993  10.941  20.365  0.00  0.00    +0.000 NA
ATOM     13  N   UNL     1       1.312  11.394  19.102  0.00  0.00    +0.000 NA
ATOM     14  N   UNL     1       1.707  10.394  18.321  0.00  0.00    +0.000 NA
ATOM     15  N   UNL     1       1.633   9.283  19.077  0.00  0.00    +0.000 N 
ATOM     16  N   UNL     1       1.964   8.061  18.614  0.00  0.00    +0.000 NA
ATOM     17  C   UNL     1       2.560   5.444  17.775  0.00  0.00    +0.000 C 
ENDROOT
BRANCH   1  18
ATOM     18  C   UNL     1       4.277   4.501  16.739  0.00  0.00    +0.000 C 
BRANCH  18  21
ATOM     19  C   UNL     1       6.219   6.137  16.756  0.00  0.00    +0.000 C 
ATOM     20  O   UNL     1       6.494   5.939  15.577  0.00  0.00    +0.000 OA
ATOM     21  N   UNL     1       5.150   5.535  17.381  0.00  0.00    +0.000 N 
ATOM     22  H   UNL     1       4.881   5.907  18.286  0.00  0.00    +0.000 HD
BRANCH  19  30
ATOM     23  C   UNL     1       8.062   5.390  19.199  0.00  0.00    +0.000 C 
ATOM     24  C   UNL     1       7.908   6.773  18.634  0.00  0.00    +0.000 A 
ATOM     25  C   UNL     1       8.738   7.775  19.186  0.00  0.00    +0.000 A 
ATOM     26  C   UNL     1       8.705   9.074  18.685  0.00  0.00    +0.000 A 
ATOM     27  F   UNL     1       9.511  10.003  19.223  0.00  0.00    +0.000 F 
ATOM     28  C   UNL     1       7.872   9.413  17.639  0.00  0.00    +0.000 A 
ATOM     29  C   UNL     1       7.056   8.429  17.067  0.00  0.00    +0.000 A 
ATOM     30  C   UNL     1       7.056   7.103  17.550  0.00  0.00    +0.000 A 
ENDBRANCH  19  30
ENDBRANCH  18  21
ENDBRANCH   1  18
TORSDOF 3
ENDMDL
MODEL 8
REMARK VINA RESULT:      -8.3      6.278     11.545
REMARK  Name = 
REMARK  4 active torsions:
REMARK  status: ('A' for Active; 'I' for Inactive)
REMARK    1  A    between atoms: C_1  and  C_2
REMARK    2  A    between atoms: C_8  and  C_9
REMARK    3  A    between atoms: N_11  and  C_12
REMARK    4  A    between atoms: C_12  and  C_13
REMARK                            x       y       z     vdW  Elec       q    Type
REMARK                         _______ _______ _______ _____ _____    ______ ____
ROOT
ATOM      1  C   UNL     1      -2.308  11.324  17.866  0.00  0.00    +0.000 C 
ATOM      2  C   UNL     1      -2.030   9.875  17.329  0.00  0.00    +0.000 C 
ATOM      3  C   UNL     1      -2.578   9.633  15.934  0.00  0.00    +0.000 C 
ATOM      4  C   UNL     1      -3.621  10.677  15.718  0.00  0.00    +0.000 C 
ATOM      5  C   UNL     1      -3.618  11.521  16.993  0.00  0.00    +0.000 C 
ATOM      6  C   UNL     1      -4.870  11.097  17.777  0.00  0.00    +0.000 C 
ATOM      7  N   UNL     1      -4.577  11.557  19.086  0.00  0.00    +0.000 N 
ATOM      8  C   UNL     1      -5.489  11.828  20.092  0.00  0.00    +0.000 A 
ATOM      9  C   UNL     1      -6.909  11.332  19.961  0.00  0.00    +0.000 A 
ATOM     10  C   UNL     1      -7.781  11.565  20.952  0.00  0.00    +0.000 A 
ATOM     11  C   UNL     1      -7.346  12.275  22.075  0.00  0.00    +0.000 A 
ATOM     12  N   UNL     1      -7.914  12.656  23.199  0.00  0.00    +0.000 NA
ATOM     13  N   UNL     1      -6.933  13.315  23.909  0.00  0.00    +0.000 NA
ATOM     14  N   UNL     1      -5.785  13.327  23.239  0.00  0.00    +0.000 NA
ATOM     15  N   UNL     1      -6.025  12.682  22.082  0.00  0.00    +0.000 N 
ATOM     16  N   UNL     1      -5.078  12.494  21.141  0.00  0.00    +0.000 NA
ATOM     17  C   UNL     1      -3.231  12.078  19.062  0.00  0.00    +0.000 C 
ENDROOT
BRANCH   1  18
ATOM     18  C   UNL     1      -1.166  11.281  18.959  0.00  0.00    +0.000 C 
BRANCH  18  21
ATOM     19  C   UNL     1       0.548   9.662  19.904  0.00  0.00    +0.000 C 
ATOM     20  O   UNL     1       0.750  10.344  20.904  0.00  0.00    +0.000 OA
ATOM     21  N   UNL     1      -0.383  10.004  18.949  0.00  0.00    +0.000 N 
ATOM     22  H   UNL     1      -0.625   9.290  18.269  0.00  0.00    +0.000 HD
BRANCH  19  30
ATOM     23  C   UNL     1       2.369   8.948  17.436  0.00  0.00    +0.000 C 
ATOM     24  C   UNL     1       2.158   8.062  18.629  0.00  0.00    +0.000 A 
ATOM     25  C   UNL     1       2.923   6.873  18.675  0.00  0.00    +0.000 A 
ATOM     26  C   UNL     1       2.836   6.019  19.771  0.00  0.00    +0.000 A 
ATOM     27  F   UNL     1       3.580   4.902  19.791  0.00  0.00    +0.000 F 
ATOM     28  C   UNL     1       2.011   6.312  20.838  0.00  0.00    +0.000 A 
ATOM     29  C   UNL     1       1.260   7.492  20.819  0.00  0.00    +0.000 A 
ATOM     30  C   UNL     1       1.316   8.381  19.724  0.00  0.00    +0.000 A 
ENDBRANCH  19  30
ENDBRANCH  18  21
ENDBRANCH   1  18
TORSDOF 3
ENDMDL
MODEL 9
REMARK VINA RESULT:      -8.2      3.618      8.388
REMARK  Name = 
REMARK  4 active torsions:
REMARK  status: ('A' for Active; 'I' for Inactive)
REMARK    1  A    between atoms: C_1  and  C_2
REMARK    2  A    between atoms: C_8  and  C_9
REMARK    3  A    between atoms: N_11  and  C_12
REMARK    4  A    between atoms: C_12  and  C_13
REMARK                            x       y       z     vdW  Elec       q    Type
REMARK                         _______ _______ _______ _____ _____    ______ ____
ROOT
ATOM      1  C   UNL     1       3.899   4.638  18.256  0.00  0.00    +0.000 C 
ATOM      2  C   UNL     1       4.900   3.882  19.199  0.00  0.00    +0.000 C 
ATOM      3  C   UNL     1       4.311   2.630  19.824  0.00  0.00    +0.000 C 
ATOM      4  C   UNL     1       2.831   2.783  19.731  0.00  0.00    +0.000 C 
ATOM      5  C   UNL     1       2.608   4.116  19.016  0.00  0.00    +0.000 C 
ATOM      6  C   UNL     1       2.173   5.108  20.107  0.00  0.00    +0.000 C 
ATOM      7  N   UNL     1       2.415   6.361  19.489  0.00  0.00    +0.000 N 
ATOM      8  C   UNL     1       1.832   7.573  19.820  0.00  0.00    +0.000 A 
ATOM      9  C   UNL     1       1.095   7.710  21.129  0.00  0.00    +0.000 A 
ATOM     10  C   UNL     1       0.563   8.894  21.465  0.00  0.00    +0.000 A 
ATOM     11  C   UNL     1       0.699   9.966  20.577  0.00  0.00    +0.000 A 
ATOM     12  N   UNL     1       0.324  11.227  20.593  0.00  0.00    +0.000 NA
ATOM     13  N   UNL     1       0.785  11.769  19.412  0.00  0.00    +0.000 NA
ATOM     14  N   UNL     1       1.439  10.862  18.693  0.00  0.00    +0.000 NA
ATOM     15  N   UNL     1       1.393   9.721  19.406  0.00  0.00    +0.000 N 
ATOM     16  N   UNL     1       1.962   8.573  18.986  0.00  0.00    +0.000 NA
ATOM     17  C   UNL     1       3.045   6.095  18.217  0.00  0.00    +0.000 C 
ENDROOT
BRANCH   1  18
ATOM     18  C   UNL     1       5.024   5.430  17.477  0.00  0.00    +0.000 C 
BRANCH  18  21
ATOM     19  C   UNL     1       5.580   5.425  14.999  0.00  0.00    +0.000 C 
ATOM     20  O   UNL     1       5.459   6.641  14.893  0.00  0.00    +0.000 OA
ATOM     21  N   UNL     1       5.441   4.767  16.200  0.00  0.00    +0.000 N 
ATOM     22  H   UNL     1       5.753   3.802  16.232  0.00  0.00    +0.000 HD
BRANCH  19  30
ATOM     23  C   UNL     1       8.248   5.664  13.342  0.00  0.00    +0.000 C 
ATOM     24  C   UNL     1       7.138   4.697  13.043  0.00  0.00    +0.000 A 
ATOM     25  C   UNL     1       7.373   3.768  12.004  0.00  0.00    +0.000 A 
ATOM     26  C   UNL     1       6.424   2.798  11.696  0.00  0.00    +0.000 A 
ATOM     27  F   UNL     1       6.679   1.923  10.710  0.00  0.00    +0.000 F 
ATOM     28  C   UNL     1       5.238   2.714  12.397  0.00  0.00    +0.000 A 
ATOM     29  C   UNL     1       4.995   3.614  13.440  0.00  0.00    +0.000 A 
ATOM     30  C   UNL     1       5.929   4.615  13.780  0.00  0.00    +0.000 A 
ENDBRANCH  19  30
ENDBRANCH  18  21
ENDBRANCH   1  18
TORSDOF 3
ENDMDL
