MODEL 1
REMARK VINA RESULT:      -8.7      0.000      0.000
REMARK  Name = 
REMARK  8 active torsions:
REMARK  status: ('A' for Active; 'I' for Inactive)
REMARK    1  A    between atoms: C_1  and  C_2
REMARK    2  A    between atoms: C_2  and  C_3
REMARK    3  A    between atoms: C_2  and  C_4
REMARK    4  A    between atoms: N_12  and  C_13
REMARK    5  A    between atoms: C_13  and  C_14
REMARK    6  A    between atoms: C_17  and  C_18
REMARK    7  A    between atoms: C_18  and  C_19
REMARK    8  A    between atoms: C_19  and  C_20
REMARK                            x       y       z     vdW  Elec       q    Type
REMARK                         _______ _______ _______ _____ _____    ______ ____
ROOT
ATOM      1  C   UNL     1       2.779   7.448  18.613  0.00  0.00    +0.000 A 
ATOM      2  N   UNL     1       2.555   6.890  19.811  0.00  0.00    +0.000 NA
ATOM      3  O   UNL     1       1.696   7.802  20.434  0.00  0.00    +0.000 OA
ATOM      4  C   UNL     1       1.475   8.816  19.543  0.00  0.00    +0.000 A 
ATOM      5  N   UNL     1       2.100   8.625  18.400  0.00  0.00    +0.000 NA
ENDROOT
BRANCH   4   6
ATOM      6  C   UNL     1       0.556  10.033  19.817  0.00  0.00    +0.000 C 
ATOM      7  C   UNL     1       0.810  10.746  21.152  0.00  0.00    +0.000 C 
ATOM      8  C   UNL     1      -0.414   9.918  20.995  0.00  0.00    +0.000 C 
BRANCH   6   9
ATOM      9  C   UNL     1       0.182  10.914  18.641  0.00  0.00    +0.000 C 
BRANCH   9  10
ATOM     10  C   UNL     1      -1.271  10.817  18.238  0.00  0.00    +0.000 A 
ATOM     11  C   UNL     1      -2.228  11.722  18.717  0.00  0.00    +0.000 A 
ATOM     12  C   UNL     1      -3.558  11.638  18.300  0.00  0.00    +0.000 A 
ATOM     13  C   UNL     1      -3.946  10.655  17.390  0.00  0.00    +0.000 A 
ATOM     14  C   UNL     1      -3.006   9.756  16.900  0.00  0.00    +0.000 A 
ATOM     15  C   UNL     1      -1.676   9.837  17.318  0.00  0.00    +0.000 A 
ENDBRANCH   9  10
ENDBRANCH   6   9
ENDBRANCH   4   6
BRANCH   1  16
ATOM     16  C   UNL     1       3.558   6.780  17.541  0.00  0.00    +0.000 C 
BRANCH  16  25
ATOM     17  C   UNL     1       5.376   5.200  18.346  0.00  0.00    +0.000 A 
ATOM     18  N   UNL     1       5.458   3.970  18.816  0.00  0.00    +0.000 NA
ATOM     19  C   UNL     1       4.210   3.428  18.699  0.00  0.00    +0.000 A 
ATOM     20  C   UNL     1       3.765   2.150  19.065  0.00  0.00    +0.000 A 
ATOM     21  C   UNL     1       2.425   1.814  18.851  0.00  0.00    +0.000 A 
ATOM     22  C   UNL     1       1.544   2.740  18.292  0.00  0.00    +0.000 A 
ATOM     23  C   UNL     1       1.969   4.026  17.938  0.00  0.00    +0.000 A 
ATOM     24  C   UNL     1       3.319   4.343  18.148  0.00  0.00    +0.000 A 
ATOM     25  N   UNL     1       4.082   5.478  17.932  0.00  0.00    +0.000 N 
BRANCH  17  27
ATOM     26  C   UNL     1       7.601   5.745  19.333  0.00  0.00    +0.000 C 
ATOM     27  C   UNL     1       6.536   6.162  18.317  0.00  0.00    +0.000 C 
ATOM     28  C   UNL     1       7.155   6.223  16.916  0.00  0.00    +0.000 C 
ENDBRANCH  17  27
ENDBRANCH  16  25
ENDBRANCH   1  16
TORSDOF 6
ENDMDL
MODEL 2
REMARK VINA RESULT:      -8.7      1.379      1.883
REMARK  Name = 
REMARK  8 active torsions:
REMARK  status: ('A' for Active; 'I' for Inactive)
REMARK    1  A    between atoms: C_1  and  C_2
REMARK    2  A    between atoms: C_2  and  C_3
REMARK    3  A    between atoms: C_2  and  C_4
REMARK    4  A    between atoms: N_12  and  C_13
REMARK    5  A    between atoms: C_13  and  C_14
REMARK    6  A    between atoms: C_17  and  C_18
REMARK    7  A    between atoms: C_18  and  C_19
REMARK    8  A    between atoms: C_19  and  C_20
REMARK                            x       y       z     vdW  Elec       q    Type
REMARK                         _______ _______ _______ _____ _____    ______ ____
ROOT
ATOM      1  C   UNL     1       2.959   7.614  18.387  0.00  0.00    +0.000 A 
ATOM      2  N   UNL     1       2.827   8.236  17.207  0.00  0.00    +0.000 NA
ATOM      3  O   UNL     1       1.869   9.221  17.469  0.00  0.00    +0.000 OA
ATOM      4  C   UNL     1       1.527   9.106  18.789  0.00  0.00    +0.000 A 
ATOM      5  N   UNL     1       2.194   8.147  19.398  0.00  0.00    +0.000 NA
ENDROOT
BRANCH   4   6
ATOM      6  C   UNL     1       0.510  10.024  19.511  0.00  0.00    +0.000 C 
ATOM      7  C   UNL     1       0.794  10.255  21.002  0.00  0.00    +0.000 C 
ATOM      8  C   UNL     1      -0.344   9.385  20.607  0.00  0.00    +0.000 C 
BRANCH   6   9
ATOM      9  C   UNL     1      -0.048  11.203  18.739  0.00  0.00    +0.000 C 
BRANCH   9  10
ATOM     10  C   UNL     1      -1.459  10.998  18.238  0.00  0.00    +0.000 A 
ATOM     11  C   UNL     1      -1.761  10.025  17.274  0.00  0.00    +0.000 A 
ATOM     12  C   UNL     1      -3.078   9.825  16.854  0.00  0.00    +0.000 A 
ATOM     13  C   UNL     1      -4.110  10.587  17.400  0.00  0.00    +0.000 A 
ATOM     14  C   UNL     1      -3.826  11.548  18.364  0.00  0.00    +0.000 A 
ATOM     15  C   UNL     1      -2.510  11.751  18.783  0.00  0.00    +0.000 A 
ENDBRANCH   9  10
ENDBRANCH   6   9
ENDBRANCH   4   6
BRANCH   1  16
ATOM     16  C   UNL     1       3.962   6.548  18.633  0.00  0.00    +0.000 C 
BRANCH  16  25
ATOM     17  C   UNL     1       4.247   4.571  17.064  0.00  0.00    +0.000 A 
ATOM     18  N   UNL     1       3.760   3.351  16.938  0.00  0.00    +0.000 NA
ATOM     19  C   UNL     1       2.760   3.237  17.860  0.00  0.00    +0.000 A 
ATOM     20  C   UNL     1       1.935   2.137  18.136  0.00  0.00    +0.000 A 
ATOM     21  C   UNL     1       0.970   2.252  19.141  0.00  0.00    +0.000 A 
ATOM     22  C   UNL     1       0.835   3.439  19.861  0.00  0.00    +0.000 A 
ATOM     23  C   UNL     1       1.662   4.540  19.608  0.00  0.00    +0.000 A 
ATOM     24  C   UNL     1       2.618   4.412  18.590  0.00  0.00    +0.000 A 
ATOM     25  N   UNL     1       3.585   5.257  18.071  0.00  0.00    +0.000 N 
BRANCH  17  27
ATOM     26  C   UNL     1       6.729   4.759  16.909  0.00  0.00    +0.000 C 
ATOM     27  C   UNL     1       5.394   5.102  16.245  0.00  0.00    +0.000 C 
ATOM     28  C   UNL     1       5.362   4.523  14.826  0.00  0.00    +0.000 C 
ENDBRANCH  17  27
ENDBRANCH  16  25
ENDBRANCH   1  16
TORSDOF 6
ENDMDL
MODEL 3
REMARK VINA RESULT:      -8.6      1.451      2.001
REMARK  Name = 
REMARK  8 active torsions:
REMARK  status: ('A' for Active; 'I' for Inactive)
REMARK    1  A    between atoms: C_1  and  C_2
REMARK    2  A    between atoms: C_2  and  C_3
REMARK    3  A    between atoms: C_2  and  C_4
REMARK    4  A    between atoms: N_12  and  C_13
REMARK    5  A    between atoms: C_13  and  C_14
REMARK    6  A    between atoms: C_17  and  C_18
REMARK    7  A    between atoms: C_18  and  C_19
REMARK    8  A    between atoms: C_19  and  C_20
REMARK                            x       y       z     vdW  Elec       q    Type
REMARK                         _______ _______ _______ _____ _____    ______ ____
ROOT
ATOM      1  C   UNL     1       2.551   7.893  18.597  0.00  0.00    +0.000 A 
ATOM      2  N   UNL     1       2.542   8.365  17.343  0.00  0.00    +0.000 NA
ATOM      3  O   UNL     1       1.624   9.419  17.404  0.00  0.00    +0.000 OA
ATOM      4  C   UNL     1       1.179   9.488  18.696  0.00  0.00    +0.000 A 
ATOM      5  N   UNL     1       1.744   8.585  19.470  0.00  0.00    +0.000 NA
ENDROOT
BRANCH   4   6
ATOM      6  C   UNL     1       0.164  10.536  19.214  0.00  0.00    +0.000 C 
ATOM      7  C   UNL     1       0.423  11.974  18.741  0.00  0.00    +0.000 C 
ATOM      8  C   UNL     1       0.701  11.615  20.157  0.00  0.00    +0.000 C 
BRANCH   6   9
ATOM      9  C   UNL     1      -1.288  10.116  19.332  0.00  0.00    +0.000 C 
BRANCH   9  10
ATOM     10  C   UNL     1      -2.115  10.415  18.102  0.00  0.00    +0.000 A 
ATOM     11  C   UNL     1      -1.870   9.774  16.880  0.00  0.00    +0.000 A 
ATOM     12  C   UNL     1      -2.672  10.036  15.767  0.00  0.00    +0.000 A 
ATOM     13  C   UNL     1      -3.735  10.933  15.865  0.00  0.00    +0.000 A 
ATOM     14  C   UNL     1      -3.995  11.568  17.074  0.00  0.00    +0.000 A 
ATOM     15  C   UNL     1      -3.193  11.309  18.187  0.00  0.00    +0.000 A 
ENDBRANCH   9  10
ENDBRANCH   6   9
ENDBRANCH   4   6
BRANCH   1  16
ATOM     16  C   UNL     1       3.472   6.821  19.053  0.00  0.00    +0.000 C 
BRANCH  16  25
ATOM     17  C   UNL     1       4.131   5.170  17.239  0.00  0.00    +0.000 A 
ATOM     18  N   UNL     1       3.865   3.918  16.920  0.00  0.00    +0.000 NA
ATOM     19  C   UNL     1       2.877   3.505  17.767  0.00  0.00    +0.000 A 
ATOM     20  C   UNL     1       2.248   2.255  17.847  0.00  0.00    +0.000 A 
ATOM     21  C   UNL     1       1.253   2.059  18.809  0.00  0.00    +0.000 A 
ATOM     22  C   UNL     1       0.898   3.089  19.680  0.00  0.00    +0.000 A 
ATOM     23  C   UNL     1       1.529   4.338  19.625  0.00  0.00    +0.000 A 
ATOM     24  C   UNL     1       2.517   4.521  18.647  0.00  0.00    +0.000 A 
ATOM     25  N   UNL     1       3.336   5.582  18.298  0.00  0.00    +0.000 N 
BRANCH  17  27
ATOM     26  C   UNL     1       6.491   5.968  17.363  0.00  0.00    +0.000 C 
ATOM     27  C   UNL     1       5.189   5.999  16.559  0.00  0.00    +0.000 C 
ATOM     28  C   UNL     1       5.450   5.487  15.138  0.00  0.00    +0.000 C 
ENDBRANCH  17  27
ENDBRANCH  16  25
ENDBRANCH   1  16
TORSDOF 6
ENDMDL
MODEL 4
REMARK VINA RESULT:      -8.4      2.829      5.249
REMARK  Name = 
REMARK  8 active torsions:
REMARK  status: ('A' for Active; 'I' for Inactive)
REMARK    1  A    between atoms: C_1  and  C_2
REMARK    2  A    between atoms: C_2  and  C_3
REMARK    3  A    between atoms: C_2  and  C_4
REMARK    4  A    between atoms: N_12  and  C_13
REMARK    5  A    between atoms: C_13  and  C_14
REMARK    6  A    between atoms: C_17  and  C_18
REMARK    7  A    between atoms: C_18  and  C_19
REMARK    8  A    between atoms: C_19  and  C_20
REMARK                            x       y       z     vdW  Elec       q    Type
REMARK                         _______ _______ _______ _____ _____    ______ ____
ROOT
ATOM      1  C   UNL     1       4.230   3.622  17.277  0.00  0.00    +0.000 A 
ATOM      2  N   UNL     1       3.153   3.905  16.533  0.00  0.00    +0.000 NA
ATOM      3  O   UNL     1       2.247   4.424  17.464  0.00  0.00    +0.000 OA
ATOM      4  C   UNL     1       2.875   4.415  18.680  0.00  0.00    +0.000 A 
ATOM      5  N   UNL     1       4.106   3.955  18.606  0.00  0.00    +0.000 NA
ENDROOT
BRANCH   4   6
ATOM      6  C   UNL     1       2.238   4.932  19.994  0.00  0.00    +0.000 C 
ATOM      7  C   UNL     1       1.922   3.843  21.029  0.00  0.00    +0.000 C 
ATOM      8  C   UNL     1       0.804   4.488  20.292  0.00  0.00    +0.000 C 
BRANCH   6   9
ATOM      9  C   UNL     1       2.723   6.260  20.540  0.00  0.00    +0.000 C 
BRANCH   9  10
ATOM     10  C   UNL     1       2.168   7.463  19.813  0.00  0.00    +0.000 A 
ATOM     11  C   UNL     1       2.429   7.683  18.453  0.00  0.00    +0.000 A 
ATOM     12  C   UNL     1       1.872   8.780  17.791  0.00  0.00    +0.000 A 
ATOM     13  C   UNL     1       1.039   9.663  18.476  0.00  0.00    +0.000 A 
ATOM     14  C   UNL     1       0.764   9.451  19.823  0.00  0.00    +0.000 A 
ATOM     15  C   UNL     1       1.321   8.357  20.487  0.00  0.00    +0.000 A 
ENDBRANCH   9  10
ENDBRANCH   6   9
ENDBRANCH   4   6
BRANCH   1  16
ATOM     16  C   UNL     1       5.511   3.142  16.700  0.00  0.00    +0.000 C 
BRANCH  16  25
ATOM     17  C   UNL     1       6.912   5.227  16.322  0.00  0.00    +0.000 A 
ATOM     18  N   UNL     1       7.547   5.803  15.319  0.00  0.00    +0.000 NA
ATOM     19  C   UNL     1       7.221   5.097  14.198  0.00  0.00    +0.000 A 
ATOM     20  C   UNL     1       7.641   5.297  12.875  0.00  0.00    +0.000 A 
ATOM     21  C   UNL     1       7.174   4.434  11.879  0.00  0.00    +0.000 A 
ATOM     22  C   UNL     1       6.310   3.386  12.200  0.00  0.00    +0.000 A 
ATOM     23  C   UNL     1       5.896   3.162  13.518  0.00  0.00    +0.000 A 
ATOM     24  C   UNL     1       6.365   4.044  14.503  0.00  0.00    +0.000 A 
ATOM     25  N   UNL     1       6.181   4.138  15.872  0.00  0.00    +0.000 N 
BRANCH  17  27
ATOM     26  C   UNL     1       7.989   4.786  18.528  0.00  0.00    +0.000 C 
ATOM     27  C   UNL     1       7.021   5.683  17.753  0.00  0.00    +0.000 C 
ATOM     28  C   UNL     1       7.499   7.138  17.824  0.00  0.00    +0.000 C 
ENDBRANCH  17  27
ENDBRANCH  16  25
ENDBRANCH   1  16
TORSDOF 6
ENDMDL
MODEL 5
REMARK VINA RESULT:      -8.3      1.791      8.291
REMARK  Name = 
REMARK  8 active torsions:
REMARK  status: ('A' for Active; 'I' for Inactive)
REMARK    1  A    between atoms: C_1  and  C_2
REMARK    2  A    between atoms: C_2  and  C_3
REMARK    3  A    between atoms: C_2  and  C_4
REMARK    4  A    between atoms: N_12  and  C_13
REMARK    5  A    between atoms: C_13  and  C_14
REMARK    6  A    between atoms: C_17  and  C_18
REMARK    7  A    between atoms: C_18  and  C_19
REMARK    8  A    between atoms: C_19  and  C_20
REMARK                            x       y       z     vdW  Elec       q    Type
REMARK                         _______ _______ _______ _____ _____    ______ ____
ROOT
ATOM      1  C   UNL     1       1.716   8.994  18.713  0.00  0.00    +0.000 A 
ATOM      2  N   UNL     1       1.541   8.681  20.004  0.00  0.00    +0.000 NA
ATOM      3  O   UNL     1       1.980   7.354  20.075  0.00  0.00    +0.000 OA
ATOM      4  C   UNL     1       2.390   7.001  18.818  0.00  0.00    +0.000 A 
ATOM      5  N   UNL     1       2.270   7.989  17.955  0.00  0.00    +0.000 NA
ENDROOT
BRANCH   4   6
ATOM      6  C   UNL     1       2.977   5.616  18.449  0.00  0.00    +0.000 C 
ATOM      7  C   UNL     1       1.968   4.459  18.479  0.00  0.00    +0.000 C 
ATOM      8  C   UNL     1       2.994   4.554  19.550  0.00  0.00    +0.000 C 
BRANCH   6   9
ATOM      9  C   UNL     1       4.031   5.563  17.361  0.00  0.00    +0.000 C 
BRANCH   9  10
ATOM     10  C   UNL     1       5.410   5.975  17.822  0.00  0.00    +0.000 A 
ATOM     11  C   UNL     1       6.071   5.296  18.856  0.00  0.00    +0.000 A 
ATOM     12  C   UNL     1       7.362   5.668  19.238  0.00  0.00    +0.000 A 
ATOM     13  C   UNL     1       8.012   6.715  18.587  0.00  0.00    +0.000 A 
ATOM     14  C   UNL     1       7.372   7.391  17.553  0.00  0.00    +0.000 A 
ATOM     15  C   UNL     1       6.081   7.022  17.171  0.00  0.00    +0.000 A 
ENDBRANCH   9  10
ENDBRANCH   6   9
ENDBRANCH   4   6
BRANCH   1  16
ATOM     16  C   UNL     1       1.488  10.357  18.172  0.00  0.00    +0.000 C 
BRANCH  16  25
ATOM     17  C   UNL     1       0.219  12.088  19.530  0.00  0.00    +0.000 A 
ATOM     18  N   UNL     1      -1.022  12.522  19.636  0.00  0.00    +0.000 NA
ATOM     19  C   UNL     1      -1.788  11.696  18.866  0.00  0.00    +0.000 A 
ATOM     20  C   UNL     1      -3.170  11.735  18.633  0.00  0.00    +0.000 A 
ATOM     21  C   UNL     1      -3.742  10.775  17.793  0.00  0.00    +0.000 A 
ATOM     22  C   UNL     1      -2.948   9.799  17.191  0.00  0.00    +0.000 A 
ATOM     23  C   UNL     1      -1.563   9.756  17.400  0.00  0.00    +0.000 A 
ATOM     24  C   UNL     1      -1.008  10.720  18.254  0.00  0.00    +0.000 A 
ATOM     25  N   UNL     1       0.280  10.989  18.686  0.00  0.00    +0.000 N 
BRANCH  17  27
ATOM     26  C   UNL     1       2.159  13.625  19.220  0.00  0.00    +0.000 C 
ATOM     27  C   UNL     1       1.395  12.742  20.209  0.00  0.00    +0.000 C 
ATOM     28  C   UNL     1       0.932  13.586  21.402  0.00  0.00    +0.000 C 
ENDBRANCH  17  27
ENDBRANCH  16  25
ENDBRANCH   1  16
TORSDOF 6
ENDMDL
MODEL 6
REMARK VINA RESULT:      -8.2      1.349      3.350
REMARK  Name = 
REMARK  8 active torsions:
REMARK  status: ('A' for Active; 'I' for Inactive)
REMARK    1  A    between atoms: C_1  and  C_2
REMARK    2  A    between atoms: C_2  and  C_3
REMARK    3  A    between atoms: C_2  and  C_4
REMARK    4  A    between atoms: N_12  and  C_13
REMARK    5  A    between atoms: C_13  and  C_14
REMARK    6  A    between atoms: C_17  and  C_18
REMARK    7  A    between atoms: C_18  and  C_19
REMARK    8  A    between atoms: C_19  and  C_20
REMARK                            x       y       z     vdW  Elec       q    Type
REMARK                         _______ _______ _______ _____ _____    ______ ____
ROOT
ATOM      1  C   UNL     1       2.303   7.421  19.325  0.00  0.00    +0.000 A 
ATOM      2  N   UNL     1       2.309   7.772  18.031  0.00  0.00    +0.000 NA
ATOM      3  O   UNL     1       1.567   8.958  18.018  0.00  0.00    +0.000 OA
ATOM      4  C   UNL     1       1.197   9.213  19.310  0.00  0.00    +0.000 A 
ATOM      5  N   UNL     1       1.651   8.307  20.151  0.00  0.00    +0.000 NA
ENDROOT
BRANCH   4   6
ATOM      6  C   UNL     1       0.378  10.450  19.755  0.00  0.00    +0.000 C 
ATOM      7  C   UNL     1       0.856  11.105  21.059  0.00  0.00    +0.000 C 
ATOM      8  C   UNL     1      -0.410  10.327  21.061  0.00  0.00    +0.000 C 
BRANCH   6   9
ATOM      9  C   UNL     1      -0.130  11.386  18.677  0.00  0.00    +0.000 C 
BRANCH   9  10
ATOM     10  C   UNL     1      -1.548  11.104  18.236  0.00  0.00    +0.000 A 
ATOM     11  C   UNL     1      -1.849  10.046  17.367  0.00  0.00    +0.000 A 
ATOM     12  C   UNL     1      -3.171   9.778  17.005  0.00  0.00    +0.000 A 
ATOM     13  C   UNL     1      -4.209  10.557  17.514  0.00  0.00    +0.000 A 
ATOM     14  C   UNL     1      -3.925  11.603  18.385  0.00  0.00    +0.000 A 
ATOM     15  C   UNL     1      -2.605  11.874  18.746  0.00  0.00    +0.000 A 
ENDBRANCH   9  10
ENDBRANCH   6   9
ENDBRANCH   4   6
BRANCH   1  16
ATOM     16  C   UNL     1       3.069   6.264  19.854  0.00  0.00    +0.000 C 
BRANCH  16  25
ATOM     17  C   UNL     1       2.529   4.163  18.534  0.00  0.00    +0.000 A 
ATOM     18  N   UNL     1       2.971   3.554  17.451  0.00  0.00    +0.000 NA
ATOM     19  C   UNL     1       4.090   4.230  17.057  0.00  0.00    +0.000 A 
ATOM     20  C   UNL     1       4.926   3.989  15.957  0.00  0.00    +0.000 A 
ATOM     21  C   UNL     1       6.027   4.826  15.749  0.00  0.00    +0.000 A 
ATOM     22  C   UNL     1       6.283   5.887  16.618  0.00  0.00    +0.000 A 
ATOM     23  C   UNL     1       5.448   6.150  17.711  0.00  0.00    +0.000 A 
ATOM     24  C   UNL     1       4.355   5.295  17.911  0.00  0.00    +0.000 A 
ATOM     25  N   UNL     1       3.339   5.242  18.851  0.00  0.00    +0.000 N 
BRANCH  17  27
ATOM     26  C   UNL     1       0.720   2.452  18.691  0.00  0.00    +0.000 C 
ATOM     27  C   UNL     1       1.286   3.747  19.278  0.00  0.00    +0.000 C 
ATOM     28  C   UNL     1       1.586   3.549  20.768  0.00  0.00    +0.000 C 
ENDBRANCH  17  27
ENDBRANCH  16  25
ENDBRANCH   1  16
TORSDOF 6
ENDMDL
MODEL 7
REMARK VINA RESULT:      -8.2      2.276      8.939
REMARK  Name = 
REMARK  8 active torsions:
REMARK  status: ('A' for Active; 'I' for Inactive)
REMARK    1  A    between atoms: C_1  and  C_2
REMARK    2  A    between atoms: C_2  and  C_3
REMARK    3  A    between atoms: C_2  and  C_4
REMARK    4  A    between atoms: N_12  and  C_13
REMARK    5  A    between atoms: C_13  and  C_14
REMARK    6  A    between atoms: C_17  and  C_18
REMARK    7  A    between atoms: C_18  and  C_19
REMARK    8  A    between atoms: C_19  and  C_20
REMARK                            x       y       z     vdW  Elec       q    Type
REMARK                         _______ _______ _______ _____ _____    ______ ____
ROOT
ATOM      1  C   UNL     1       1.556   9.243  18.971  0.00  0.00    +0.000 A 
ATOM      2  N   UNL     1       1.868   9.553  17.705  0.00  0.00    +0.000 NA
ATOM      3  O   UNL     1       2.516   8.403  17.243  0.00  0.00    +0.000 OA
ATOM      4  C   UNL     1       2.518   7.503  18.274  0.00  0.00    +0.000 A 
ATOM      5  N   UNL     1       1.913   7.969  19.348  0.00  0.00    +0.000 NA
ENDROOT
BRANCH   4   6
ATOM      6  C   UNL     1       3.116   6.077  18.187  0.00  0.00    +0.000 C 
ATOM      7  C   UNL     1       2.106   4.940  18.399  0.00  0.00    +0.000 C 
ATOM      8  C   UNL     1       3.096   5.238  19.466  0.00  0.00    +0.000 C 
BRANCH   6   9
ATOM      9  C   UNL     1       4.205   5.830  17.163  0.00  0.00    +0.000 C 
BRANCH   9  10
ATOM     10  C   UNL     1       5.595   6.171  17.650  0.00  0.00    +0.000 A 
ATOM     11  C   UNL     1       6.298   7.275  17.148  0.00  0.00    +0.000 A 
ATOM     12  C   UNL     1       7.565   7.595  17.641  0.00  0.00    +0.000 A 
ATOM     13  C   UNL     1       8.140   6.823  18.649  0.00  0.00    +0.000 A 
ATOM     14  C   UNL     1       7.449   5.731  19.163  0.00  0.00    +0.000 A 
ATOM     15  C   UNL     1       6.184   5.407  18.670  0.00  0.00    +0.000 A 
ENDBRANCH   9  10
ENDBRANCH   6   9
ENDBRANCH   4   6
BRANCH   1  16
ATOM     16  C   UNL     1       0.748  10.129  19.847  0.00  0.00    +0.000 C 
BRANCH  16  25
ATOM     17  C   UNL     1      -0.871  11.630  18.594  0.00  0.00    +0.000 A 
ATOM     18  N   UNL     1      -0.976  12.910  18.292  0.00  0.00    +0.000 NA
ATOM     19  C   UNL     1       0.189  13.498  18.691  0.00  0.00    +0.000 A 
ATOM     20  C   UNL     1       0.574  14.844  18.604  0.00  0.00    +0.000 A 
ATOM     21  C   UNL     1       1.831  15.220  19.089  0.00  0.00    +0.000 A 
ATOM     22  C   UNL     1       2.682  14.273  19.657  0.00  0.00    +0.000 A 
ATOM     23  C   UNL     1       2.305  12.928  19.767  0.00  0.00    +0.000 A 
ATOM     24  C   UNL     1       1.046  12.566  19.266  0.00  0.00    +0.000 A 
ATOM     25  N   UNL     1       0.348  11.372  19.201  0.00  0.00    +0.000 N 
BRANCH  17  27
ATOM     26  C   UNL     1      -3.326  11.310  18.284  0.00  0.00    +0.000 C 
ATOM     27  C   UNL     1      -1.961  10.620  18.342  0.00  0.00    +0.000 C 
ATOM     28  C   UNL     1      -1.709   9.866  17.031  0.00  0.00    +0.000 C 
ENDBRANCH  17  27
ENDBRANCH  16  25
ENDBRANCH   1  16
TORSDOF 6
ENDMDL
MODEL 8
REMARK VINA RESULT:      -8.2      1.016      3.129
REMARK  Name = 
REMARK  8 active torsions:
REMARK  status: ('A' for Active; 'I' for Inactive)
REMARK    1  A    between atoms: C_1  and  C_2
REMARK    2  A    between atoms: C_2  and  C_3
REMARK    3  A    between atoms: C_2  and  C_4
REMARK    4  A    between atoms: N_12  and  C_13
REMARK    5  A    between atoms: C_13  and  C_14
REMARK    6  A    between atoms: C_17  and  C_18
REMARK    7  A    between atoms: C_18  and  C_19
REMARK    8  A    between atoms: C_19  and  C_20
REMARK                            x       y       z     vdW  Elec       q    Type
REMARK                         _______ _______ _______ _____ _____    ______ ____
ROOT
ATOM      1  C   UNL     1       2.009   7.906  18.702  0.00  0.00    +0.000 A 
ATOM      2  N   UNL     1       2.050   7.593  20.004  0.00  0.00    +0.000 NA
ATOM      3  O   UNL     1       1.458   8.701  20.619  0.00  0.00    +0.000 OA
ATOM      4  C   UNL     1       1.105   9.570  19.623  0.00  0.00    +0.000 A 
ATOM      5  N   UNL     1       1.401   9.108  18.426  0.00  0.00    +0.000 NA
ENDROOT
BRANCH   4   6
ATOM      6  C   UNL     1       0.392  10.924  19.859  0.00  0.00    +0.000 C 
ATOM      7  C   UNL     1       1.044  11.820  20.921  0.00  0.00    +0.000 C 
ATOM      8  C   UNL     1      -0.242  11.144  21.234  0.00  0.00    +0.000 C 
BRANCH   6   9
ATOM      9  C   UNL     1      -0.203  11.629  18.655  0.00  0.00    +0.000 C 
BRANCH   9  10
ATOM     10  C   UNL     1      -1.633  11.239  18.360  0.00  0.00    +0.000 A 
ATOM     11  C   UNL     1      -2.713  11.985  18.853  0.00  0.00    +0.000 A 
ATOM     12  C   UNL     1      -4.026  11.630  18.535  0.00  0.00    +0.000 A 
ATOM     13  C   UNL     1      -4.276  10.533  17.713  0.00  0.00    +0.000 A 
ATOM     14  C   UNL     1      -3.213   9.790  17.209  0.00  0.00    +0.000 A 
ATOM     15  C   UNL     1      -1.901  10.141  17.528  0.00  0.00    +0.000 A 
ENDBRANCH   9  10
ENDBRANCH   6   9
ENDBRANCH   4   6
BRANCH   1  16
ATOM     16  C   UNL     1       2.432   6.970  17.630  0.00  0.00    +0.000 C 
BRANCH  16  25
ATOM     17  C   UNL     1       3.121   4.704  18.548  0.00  0.00    +0.000 A 
ATOM     18  N   UNL     1       4.231   4.002  18.674  0.00  0.00    +0.000 NA
ATOM     19  C   UNL     1       5.253   4.824  18.296  0.00  0.00    +0.000 A 
ATOM     20  C   UNL     1       6.628   4.555  18.241  0.00  0.00    +0.000 A 
ATOM     21  C   UNL     1       7.497   5.563  17.813  0.00  0.00    +0.000 A 
ATOM     22  C   UNL     1       7.003   6.813  17.441  0.00  0.00    +0.000 A 
ATOM     23  C   UNL     1       5.630   7.092  17.474  0.00  0.00    +0.000 A 
ATOM     24  C   UNL     1       4.774   6.073  17.915  0.00  0.00    +0.000 A 
ATOM     25  N   UNL     1       3.402   5.978  18.077  0.00  0.00    +0.000 N 
BRANCH  17  27
ATOM     26  C   UNL     1       1.623   2.722  18.319  0.00  0.00    +0.000 C 
ATOM     27  C   UNL     1       1.748   4.156  18.840  0.00  0.00    +0.000 C 
ATOM     28  C   UNL     1       1.461   4.184  20.345  0.00  0.00    +0.000 C 
ENDBRANCH  17  27
ENDBRANCH  16  25
ENDBRANCH   1  16
TORSDOF 6
ENDMDL
MODEL 9
REMARK VINA RESULT:      -8.1      2.216      8.457
REMARK  Name = 
REMARK  8 active torsions:
REMARK  status: ('A' for Active; 'I' for Inactive)
REMARK    1  A    between atoms: C_1  and  C_2
REMARK    2  A    between atoms: C_2  and  C_3
REMARK    3  A    between atoms: C_2  and  C_4
REMARK    4  A    between atoms: N_12  and  C_13
REMARK    5  A    between atoms: C_13  and  C_14
REMARK    6  A    between atoms: C_17  and  C_18
REMARK    7  A    between atoms: C_18  and  C_19
REMARK    8  A    between atoms: C_19  and  C_20
REMARK                            x       y       z     vdW  Elec       q    Type
REMARK                         _______ _______ _______ _____ _____    ______ ____
ROOT
ATOM      1  C   UNL     1       1.489   9.068  18.741  0.00  0.00    +0.000 A 
ATOM      2  N   UNL     1       1.687   9.348  17.445  0.00  0.00    +0.000 NA
ATOM      3  O   UNL     1       2.653   8.414  17.059  0.00  0.00    +0.000 OA
ATOM      4  C   UNL     1       2.935   7.650  18.159  0.00  0.00    +0.000 A 
ATOM      5  N   UNL     1       2.221   8.001  19.209  0.00  0.00    +0.000 NA
ENDROOT
BRANCH   4   6
ATOM      6  C   UNL     1       3.940   6.472  18.170  0.00  0.00    +0.000 C 
ATOM      7  C   UNL     1       5.319   6.795  17.577  0.00  0.00    +0.000 C 
ATOM      8  C   UNL     1       4.385   5.928  16.811  0.00  0.00    +0.000 C 
BRANCH   6   9
ATOM      9  C   UNL     1       3.921   5.539  19.364  0.00  0.00    +0.000 C 
BRANCH   9  10
ATOM     10  C   UNL     1       2.836   4.488  19.306  0.00  0.00    +0.000 A 
ATOM     11  C   UNL     1       1.745   4.510  20.186  0.00  0.00    +0.000 A 
ATOM     12  C   UNL     1       0.733   3.553  20.088  0.00  0.00    +0.000 A 
ATOM     13  C   UNL     1       0.793   2.568  19.102  0.00  0.00    +0.000 A 
ATOM     14  C   UNL     1       1.864   2.541  18.216  0.00  0.00    +0.000 A 
ATOM     15  C   UNL     1       2.878   3.495  18.314  0.00  0.00    +0.000 A 
ENDBRANCH   9  10
ENDBRANCH   6   9
ENDBRANCH   4   6
BRANCH   1  16
ATOM     16  C   UNL     1       0.453   9.737  19.566  0.00  0.00    +0.000 C 
BRANCH  16  25
ATOM     17  C   UNL     1      -1.200  11.249  18.368  0.00  0.00    +0.000 A 
ATOM     18  N   UNL     1      -1.371  12.542  18.174  0.00  0.00    +0.000 NA
ATOM     19  C   UNL     1      -0.265  13.159  18.682  0.00  0.00    +0.000 A 
ATOM     20  C   UNL     1       0.039  14.527  18.733  0.00  0.00    +0.000 A 
ATOM     21  C   UNL     1       1.246  14.931  19.312  0.00  0.00    +0.000 A 
ATOM     22  C   UNL     1       2.129  13.988  19.837  0.00  0.00    +0.000 A 
ATOM     23  C   UNL     1       1.832  12.619  19.810  0.00  0.00    +0.000 A 
ATOM     24  C   UNL     1       0.623  12.231  19.216  0.00  0.00    +0.000 A 
ATOM     25  N   UNL     1       0.005  11.009  19.012  0.00  0.00    +0.000 N 
BRANCH  17  27
ATOM     26  C   UNL     1      -3.632  10.749  18.131  0.00  0.00    +0.000 C 
ATOM     27  C   UNL     1      -2.211  10.203  17.974  0.00  0.00    +0.000 C 
ATOM     28  C   UNL     1      -1.990   9.753  16.526  0.00  0.00    +0.000 C 
ENDBRANCH  17  27
ENDBRANCH  16  25
ENDBRANCH   1  16
TORSDOF 6
ENDMDL
