MODEL 1
REMARK VINA RESULT:      -9.0      0.000      0.000
REMARK  Name = 
REMARK  5 active torsions:
REMARK  status: ('A' for Active; 'I' for Inactive)
REMARK    1  A    between atoms: C_1  and  C_2
REMARK    2  A    between atoms: C_4  and  C_5
REMARK    3  A    between atoms: C_13  and  O_14
REMARK    4  A    between atoms: C_13  and  C_15
REMARK    5  A    between atoms: C_15  and  C_16
REMARK                            x       y       z     vdW  Elec       q    Type
REMARK                         _______ _______ _______ _____ _____    ______ ____
ROOT
ATOM      1  C   UNL     1       5.583   4.399  18.150  0.00  0.00    +0.000 C 
ATOM      2  O   UNL     1       6.395   4.289  19.085  0.00  0.00    +0.000 OA
ATOM      3  N   UNL     1       4.230   4.149  18.350  0.00  0.00    +0.000 N 
ATOM      4  C   UNL     1       2.948   4.312  17.588  0.00  0.00    +0.000 C 
ATOM      5  C   UNL     1       2.741   2.941  16.953  0.00  0.00    +0.000 C 
ATOM      6  C   UNL     1       3.583   2.038  17.863  0.00  0.00    +0.000 C 
ATOM      7  C   UNL     1       4.035   2.918  19.064  0.00  0.00    +0.000 C 
ATOM      8  C   UNL     1       3.083   3.254  20.224  0.00  0.00    +0.000 C 
ATOM      9  C   UNL     1       2.220   4.545  20.036  0.00  0.00    +0.000 C 
ATOM     10  C   UNL     1       1.723   4.476  18.580  0.00  0.00    +0.000 C 
ENDROOT
BRANCH   1  14
ATOM     11  C   UNL     1       5.920   3.473  13.251  0.00  0.00    +0.000 C 
ATOM     12  C   UNL     1       6.339   4.197  14.492  0.00  0.00    +0.000 A 
ATOM     13  C   UNL     1       5.769   3.871  15.714  0.00  0.00    +0.000 A 
ATOM     14  C   UNL     1       6.179   4.584  16.826  0.00  0.00    +0.000 A 
ATOM     15  C   UNL     1       7.132   5.607  16.685  0.00  0.00    +0.000 A 
ATOM     16  C   UNL     1       7.651   5.857  15.432  0.00  0.00    +0.000 A 
ATOM     17  N   UNL     1       7.281   5.164  14.339  0.00  0.00    +0.000 NA
ENDBRANCH   1  14
BRANCH   9  18
ATOM     18  O   UNL     1       1.118   4.437  20.948  0.00  0.00    +0.000 OA
ATOM     19  H   UNL     1       0.494   3.779  20.585  0.00  0.00    +0.000 HD
ENDBRANCH   9  18
BRANCH   9  20
ATOM     20  C   UNL     1       2.744   6.015  20.120  0.00  0.00    +0.000 C 
BRANCH  20  21
ATOM     21  C   UNL     1       1.945   7.258  19.872  0.00  0.00    +0.000 A 
ATOM     22  C   UNL     1       1.220   7.869  20.897  0.00  0.00    +0.000 A 
ATOM     23  C   UNL     1       0.763   9.179  20.744  0.00  0.00    +0.000 A 
ATOM     24  C   UNL     1       1.020   9.875  19.567  0.00  0.00    +0.000 A 
ATOM     25  F   UNL     1       0.617  11.147  19.451  0.00  0.00    +0.000 F 
ATOM     26  C   UNL     1       1.720   9.287  18.528  0.00  0.00    +0.000 A 
ATOM     27  C   UNL     1       2.179   7.988  18.690  0.00  0.00    +0.000 A 
ATOM     28  F   UNL     1       2.934   7.462  17.713  0.00  0.00    +0.000 F 
ENDBRANCH  20  21
ENDBRANCH   9  20
TORSDOF 4
ENDMDL
MODEL 2
REMARK VINA RESULT:      -8.5      0.975      1.344
REMARK  Name = 
REMARK  5 active torsions:
REMARK  status: ('A' for Active; 'I' for Inactive)
REMARK    1  A    between atoms: C_1  and  C_2
REMARK    2  A    between atoms: C_4  and  C_5
REMARK    3  A    between atoms: C_13  and  O_14
REMARK    4  A    between atoms: C_13  and  C_15
REMARK    5  A    between atoms: C_15  and  C_16
REMARK                            x       y       z     vdW  Elec       q    Type
REMARK                         _______ _______ _______ _____ _____    ______ ____
ROOT
ATOM      1  C   UNL     1       5.540   4.418  18.118  0.00  0.00    +0.000 C 
ATOM      2  O   UNL     1       6.320   4.198  19.060  0.00  0.00    +0.000 OA
ATOM      3  N   UNL     1       4.165   4.310  18.292  0.00  0.00    +0.000 N 
ATOM      4  C   UNL     1       2.920   4.629  17.518  0.00  0.00    +0.000 C 
ATOM      5  C   UNL     1       2.578   3.306  16.842  0.00  0.00    +0.000 C 
ATOM      6  C   UNL     1       3.303   2.294  17.738  0.00  0.00    +0.000 C 
ATOM      7  C   UNL     1       3.827   3.089  18.970  0.00  0.00    +0.000 C 
ATOM      8  C   UNL     1       2.898   3.495  20.125  0.00  0.00    +0.000 C 
ATOM      9  C   UNL     1       2.181   4.876  19.961  0.00  0.00    +0.000 C 
ATOM     10  C   UNL     1       1.704   4.899  18.497  0.00  0.00    +0.000 C 
ENDROOT
BRANCH   1  14
ATOM     11  C   UNL     1       5.983   3.419  13.242  0.00  0.00    +0.000 C 
ATOM     12  C   UNL     1       6.385   4.150  14.483  0.00  0.00    +0.000 A 
ATOM     13  C   UNL     1       5.777   3.853  15.694  0.00  0.00    +0.000 A 
ATOM     14  C   UNL     1       6.173   4.572  16.807  0.00  0.00    +0.000 A 
ATOM     15  C   UNL     1       7.152   5.572  16.678  0.00  0.00    +0.000 A 
ATOM     16  C   UNL     1       7.709   5.793  15.435  0.00  0.00    +0.000 A 
ATOM     17  N   UNL     1       7.353   5.094  14.342  0.00  0.00    +0.000 NA
ENDBRANCH   1  14
BRANCH   9  18
ATOM     18  O   UNL     1       1.060   4.864  20.855  0.00  0.00    +0.000 OA
ATOM     19  H   UNL     1       0.935   3.945  21.163  0.00  0.00    +0.000 HD
ENDBRANCH   9  18
BRANCH   9  20
ATOM     20  C   UNL     1       2.859   6.279  20.092  0.00  0.00    +0.000 C 
BRANCH  20  21
ATOM     21  C   UNL     1       2.283   7.588  19.644  0.00  0.00    +0.000 A 
ATOM     22  C   UNL     1       2.346   7.986  18.307  0.00  0.00    +0.000 A 
ATOM     23  C   UNL     1       1.533   9.024  17.848  0.00  0.00    +0.000 A 
ATOM     24  C   UNL     1       0.667   9.670  18.724  0.00  0.00    +0.000 A 
ATOM     25  F   UNL     1      -0.142  10.632  18.261  0.00  0.00    +0.000 F 
ATOM     26  C   UNL     1       0.597   9.308  20.058  0.00  0.00    +0.000 A 
ATOM     27  C   UNL     1       1.402   8.270  20.505  0.00  0.00    +0.000 A 
ATOM     28  F   UNL     1       1.260   7.869  21.777  0.00  0.00    +0.000 F 
ENDBRANCH  20  21
ENDBRANCH   9  20
TORSDOF 4
ENDMDL
MODEL 3
REMARK VINA RESULT:      -8.3      2.903      6.111
REMARK  Name = 
REMARK  5 active torsions:
REMARK  status: ('A' for Active; 'I' for Inactive)
REMARK    1  A    between atoms: C_1  and  C_2
REMARK    2  A    between atoms: C_4  and  C_5
REMARK    3  A    between atoms: C_13  and  O_14
REMARK    4  A    between atoms: C_13  and  C_15
REMARK    5  A    between atoms: C_15  and  C_16
REMARK                            x       y       z     vdW  Elec       q    Type
REMARK                         _______ _______ _______ _____ _____    ______ ____
ROOT
ATOM      1  C   UNL     1       2.915   6.493  18.334  0.00  0.00    +0.000 C 
ATOM      2  O   UNL     1       3.463   6.733  17.245  0.00  0.00    +0.000 OA
ATOM      3  N   UNL     1       2.888   5.201  18.847  0.00  0.00    +0.000 N 
ATOM      4  C   UNL     1       2.503   4.524  20.130  0.00  0.00    +0.000 C 
ATOM      5  C   UNL     1       1.072   4.067  19.871  0.00  0.00    +0.000 C 
ATOM      6  C   UNL     1       1.023   4.027  18.338  0.00  0.00    +0.000 C 
ATOM      7  C   UNL     1       2.481   4.258  17.843  0.00  0.00    +0.000 C 
ATOM      8  C   UNL     1       3.532   3.136  17.872  0.00  0.00    +0.000 C 
ATOM      9  C   UNL     1       4.357   3.019  19.196  0.00  0.00    +0.000 C 
ATOM     10  C   UNL     1       3.318   3.179  20.321  0.00  0.00    +0.000 C 
ENDROOT
BRANCH   1  14
ATOM     11  C   UNL     1       0.903   9.037  22.135  0.00  0.00    +0.000 C 
ATOM     12  C   UNL     1       1.201   8.849  20.682  0.00  0.00    +0.000 A 
ATOM     13  C   UNL     1       1.868   7.712  20.250  0.00  0.00    +0.000 A 
ATOM     14  C   UNL     1       2.136   7.597  18.898  0.00  0.00    +0.000 A 
ATOM     15  C   UNL     1       1.744   8.621  18.020  0.00  0.00    +0.000 A 
ATOM     16  C   UNL     1       1.078   9.713  18.538  0.00  0.00    +0.000 A 
ATOM     17  N   UNL     1       0.790   9.839  19.846  0.00  0.00    +0.000 NA
ENDBRANCH   1  14
BRANCH   9  18
ATOM     18  O   UNL     1       4.918   1.698  19.214  0.00  0.00    +0.000 OA
ATOM     19  H   UNL     1       4.290   1.115  19.684  0.00  0.00    +0.000 HD
ENDBRANCH   9  18
BRANCH   9  20
ATOM     20  C   UNL     1       5.480   4.001  19.663  0.00  0.00    +0.000 C 
BRANCH  20  21
ATOM     21  C   UNL     1       6.368   4.819  18.775  0.00  0.00    +0.000 A 
ATOM     22  C   UNL     1       6.069   5.003  17.424  0.00  0.00    +0.000 A 
ATOM     23  C   UNL     1       6.701   6.016  16.701  0.00  0.00    +0.000 A 
ATOM     24  C   UNL     1       7.637   6.837  17.322  0.00  0.00    +0.000 A 
ATOM     25  F   UNL     1       8.201   7.835  16.629  0.00  0.00    +0.000 F 
ATOM     26  C   UNL     1       7.966   6.665  18.655  0.00  0.00    +0.000 A 
ATOM     27  C   UNL     1       7.327   5.662  19.370  0.00  0.00    +0.000 A 
ATOM     28  F   UNL     1       7.586   5.564  20.683  0.00  0.00    +0.000 F 
ENDBRANCH  20  21
ENDBRANCH   9  20
TORSDOF 4
ENDMDL
MODEL 4
REMARK VINA RESULT:      -8.1      2.440      6.133
REMARK  Name = 
REMARK  5 active torsions:
REMARK  status: ('A' for Active; 'I' for Inactive)
REMARK    1  A    between atoms: C_1  and  C_2
REMARK    2  A    between atoms: C_4  and  C_5
REMARK    3  A    between atoms: C_13  and  O_14
REMARK    4  A    between atoms: C_13  and  C_15
REMARK    5  A    between atoms: C_15  and  C_16
REMARK                            x       y       z     vdW  Elec       q    Type
REMARK                         _______ _______ _______ _____ _____    ______ ____
ROOT
ATOM      1  C   UNL     1       3.267   6.263  19.011  0.00  0.00    +0.000 C 
ATOM      2  O   UNL     1       3.260   5.607  20.067  0.00  0.00    +0.000 OA
ATOM      3  N   UNL     1       4.125   5.928  17.970  0.00  0.00    +0.000 N 
ATOM      4  C   UNL     1       4.337   6.321  16.537  0.00  0.00    +0.000 C 
ATOM      5  C   UNL     1       5.432   7.379  16.622  0.00  0.00    +0.000 C 
ATOM      6  C   UNL     1       6.087   7.052  17.971  0.00  0.00    +0.000 C 
ATOM      7  C   UNL     1       5.460   5.712  18.454  0.00  0.00    +0.000 C 
ATOM      8  C   UNL     1       5.901   4.358  17.874  0.00  0.00    +0.000 C 
ATOM      9  C   UNL     1       5.118   3.879  16.607  0.00  0.00    +0.000 C 
ATOM     10  C   UNL     1       4.998   5.134  15.723  0.00  0.00    +0.000 C 
ENDROOT
BRANCH   1  14
ATOM     11  C   UNL     1       0.456   9.699  21.307  0.00  0.00    +0.000 C 
ATOM     12  C   UNL     1       1.187   9.172  20.113  0.00  0.00    +0.000 A 
ATOM     13  C   UNL     1       1.812   7.935  20.169  0.00  0.00    +0.000 A 
ATOM     14  C   UNL     1       2.490   7.504  19.044  0.00  0.00    +0.000 A 
ATOM     15  C   UNL     1       2.536   8.322  17.903  0.00  0.00    +0.000 A 
ATOM     16  C   UNL     1       1.879   9.535  17.934  0.00  0.00    +0.000 A 
ATOM     17  N   UNL     1       1.198   9.967  19.011  0.00  0.00    +0.000 NA
ENDBRANCH   1  14
BRANCH   9  18
ATOM     18  O   UNL     1       5.937   2.890  15.969  0.00  0.00    +0.000 OA
ATOM     19  H   UNL     1       6.058   2.153  16.599  0.00  0.00    +0.000 HD
ENDBRANCH   9  18
BRANCH   9  20
ATOM     20  C   UNL     1       3.650   3.342  16.590  0.00  0.00    +0.000 C 
BRANCH  20  21
ATOM     21  C   UNL     1       2.860   2.877  17.776  0.00  0.00    +0.000 A 
ATOM     22  C   UNL     1       3.454   2.120  18.788  0.00  0.00    +0.000 A 
ATOM     23  C   UNL     1       2.815   1.981  20.021  0.00  0.00    +0.000 A 
ATOM     24  C   UNL     1       1.582   2.586  20.241  0.00  0.00    +0.000 A 
ATOM     25  F   UNL     1       1.001   2.484  21.443  0.00  0.00    +0.000 F 
ATOM     26  C   UNL     1       0.962   3.326  19.248  0.00  0.00    +0.000 A 
ATOM     27  C   UNL     1       1.607   3.468  18.029  0.00  0.00    +0.000 A 
ATOM     28  F   UNL     1       1.041   4.263  17.107  0.00  0.00    +0.000 F 
ENDBRANCH  20  21
ENDBRANCH   9  20
TORSDOF 4
ENDMDL
MODEL 5
REMARK VINA RESULT:      -7.9      2.867      6.121
REMARK  Name = 
REMARK  5 active torsions:
REMARK  status: ('A' for Active; 'I' for Inactive)
REMARK    1  A    between atoms: C_1  and  C_2
REMARK    2  A    between atoms: C_4  and  C_5
REMARK    3  A    between atoms: C_13  and  O_14
REMARK    4  A    between atoms: C_13  and  C_15
REMARK    5  A    between atoms: C_15  and  C_16
REMARK                            x       y       z     vdW  Elec       q    Type
REMARK                         _______ _______ _______ _____ _____    ______ ____
ROOT
ATOM      1  C   UNL     1       2.864   6.484  18.561  0.00  0.00    +0.000 C 
ATOM      2  O   UNL     1       3.359   6.793  17.464  0.00  0.00    +0.000 OA
ATOM      3  N   UNL     1       2.817   5.156  18.971  0.00  0.00    +0.000 N 
ATOM      4  C   UNL     1       2.479   4.392  20.218  0.00  0.00    +0.000 C 
ATOM      5  C   UNL     1       1.019   4.006  20.008  0.00  0.00    +0.000 C 
ATOM      6  C   UNL     1       0.883   4.090  18.482  0.00  0.00    +0.000 C 
ATOM      7  C   UNL     1       2.318   4.312  17.922  0.00  0.00    +0.000 C 
ATOM      8  C   UNL     1       3.326   3.156  17.801  0.00  0.00    +0.000 C 
ATOM      9  C   UNL     1       4.219   2.905  19.061  0.00  0.00    +0.000 C 
ATOM     10  C   UNL     1       3.251   3.009  20.254  0.00  0.00    +0.000 C 
ENDROOT
BRANCH   1  14
ATOM     11  C   UNL     1       0.478  10.872  18.704  0.00  0.00    +0.000 C 
ATOM     12  C   UNL     1       0.989   9.624  19.350  0.00  0.00    +0.000 A 
ATOM     13  C   UNL     1       1.728   8.710  18.613  0.00  0.00    +0.000 A 
ATOM     14  C   UNL     1       2.160   7.564  19.255  0.00  0.00    +0.000 A 
ATOM     15  C   UNL     1       1.833   7.356  20.605  0.00  0.00    +0.000 A 
ATOM     16  C   UNL     1       1.100   8.323  21.262  0.00  0.00    +0.000 A 
ATOM     17  N   UNL     1       0.684   9.454  20.664  0.00  0.00    +0.000 NA
ENDBRANCH   1  14
BRANCH   9  18
ATOM     18  O   UNL     1       4.729   1.570  18.941  0.00  0.00    +0.000 OA
ATOM     19  H   UNL     1       5.402   1.445  19.640  0.00  0.00    +0.000 HD
ENDBRANCH   9  18
BRANCH   9  20
ATOM     20  C   UNL     1       5.402   3.809  19.536  0.00  0.00    +0.000 C 
BRANCH  20  21
ATOM     21  C   UNL     1       6.276   4.660  18.664  0.00  0.00    +0.000 A 
ATOM     22  C   UNL     1       5.992   4.836  17.309  0.00  0.00    +0.000 A 
ATOM     23  C   UNL     1       6.598   5.872  16.597  0.00  0.00    +0.000 A 
ATOM     24  C   UNL     1       7.495   6.724  17.234  0.00  0.00    +0.000 A 
ATOM     25  F   UNL     1       8.034   7.743  16.552  0.00  0.00    +0.000 F 
ATOM     26  C   UNL     1       7.808   6.561  18.572  0.00  0.00    +0.000 A 
ATOM     27  C   UNL     1       7.195   5.535  19.276  0.00  0.00    +0.000 A 
ATOM     28  F   UNL     1       7.436   5.444  20.592  0.00  0.00    +0.000 F 
ENDBRANCH  20  21
ENDBRANCH   9  20
TORSDOF 4
ENDMDL
MODEL 6
REMARK VINA RESULT:      -7.8      2.657      5.947
REMARK  Name = 
REMARK  5 active torsions:
REMARK  status: ('A' for Active; 'I' for Inactive)
REMARK    1  A    between atoms: C_1  and  C_2
REMARK    2  A    between atoms: C_4  and  C_5
REMARK    3  A    between atoms: C_13  and  O_14
REMARK    4  A    between atoms: C_13  and  C_15
REMARK    5  A    between atoms: C_15  and  C_16
REMARK                            x       y       z     vdW  Elec       q    Type
REMARK                         _______ _______ _______ _____ _____    ______ ____
ROOT
ATOM      1  C   UNL     1       2.347   5.813  18.665  0.00  0.00    +0.000 C 
ATOM      2  O   UNL     1       2.359   5.960  17.431  0.00  0.00    +0.000 OA
ATOM      3  N   UNL     1       2.508   4.554  19.233  0.00  0.00    +0.000 N 
ATOM      4  C   UNL     1       2.713   3.972  20.601  0.00  0.00    +0.000 C 
ATOM      5  C   UNL     1       1.302   3.594  21.037  0.00  0.00    +0.000 C 
ATOM      6  C   UNL     1       0.573   3.476  19.692  0.00  0.00    +0.000 C 
ATOM      7  C   UNL     1       1.665   3.587  18.587  0.00  0.00    +0.000 C 
ATOM      8  C   UNL     1       2.580   2.404  18.233  0.00  0.00    +0.000 C 
ATOM      9  C   UNL     1       3.904   2.304  19.059  0.00  0.00    +0.000 C 
ATOM     10  C   UNL     1       3.482   2.590  20.513  0.00  0.00    +0.000 C 
ENDROOT
BRANCH   1  14
ATOM     11  C   UNL     1       1.131  10.641  19.094  0.00  0.00    +0.000 C 
ATOM     12  C   UNL     1       1.318   9.269  19.661  0.00  0.00    +0.000 A 
ATOM     13  C   UNL     1       1.802   8.245  18.861  0.00  0.00    +0.000 A 
ATOM     14  C   UNL     1       1.938   6.992  19.431  0.00  0.00    +0.000 A 
ATOM     15  C   UNL     1       1.576   6.794  20.773  0.00  0.00    +0.000 A 
ATOM     16  C   UNL     1       1.110   7.873  21.496  0.00  0.00    +0.000 A 
ATOM     17  N   UNL     1       0.987   9.105  20.969  0.00  0.00    +0.000 NA
ENDBRANCH   1  14
BRANCH   9  18
ATOM     18  O   UNL     1       4.370   0.954  18.927  0.00  0.00    +0.000 OA
ATOM     19  H   UNL     1       4.903   0.744  19.719  0.00  0.00    +0.000 HD
ENDBRANCH   9  18
BRANCH   9  20
ATOM     20  C   UNL     1       5.150   3.236  18.905  0.00  0.00    +0.000 C 
BRANCH  20  21
ATOM     21  C   UNL     1       5.426   4.167  17.763  0.00  0.00    +0.000 A 
ATOM     22  C   UNL     1       5.066   3.834  16.456  0.00  0.00    +0.000 A 
ATOM     23  C   UNL     1       5.022   4.821  15.470  0.00  0.00    +0.000 A 
ATOM     24  C   UNL     1       5.346   6.137  15.787  0.00  0.00    +0.000 A 
ATOM     25  F   UNL     1       5.255   7.084  14.844  0.00  0.00    +0.000 F 
ATOM     26  C   UNL     1       5.724   6.492  17.070  0.00  0.00    +0.000 A 
ATOM     27  C   UNL     1       5.757   5.506  18.046  0.00  0.00    +0.000 A 
ATOM     28  F   UNL     1       6.035   5.878  19.305  0.00  0.00    +0.000 F 
ENDBRANCH  20  21
ENDBRANCH   9  20
TORSDOF 4
ENDMDL
MODEL 7
REMARK VINA RESULT:      -7.8      0.831      1.352
REMARK  Name = 
REMARK  5 active torsions:
REMARK  status: ('A' for Active; 'I' for Inactive)
REMARK    1  A    between atoms: C_1  and  C_2
REMARK    2  A    between atoms: C_4  and  C_5
REMARK    3  A    between atoms: C_13  and  O_14
REMARK    4  A    between atoms: C_13  and  C_15
REMARK    5  A    between atoms: C_15  and  C_16
REMARK                            x       y       z     vdW  Elec       q    Type
REMARK                         _______ _______ _______ _____ _____    ______ ____
ROOT
ATOM      1  C   UNL     1       5.586   4.421  17.468  0.00  0.00    +0.000 C 
ATOM      2  O   UNL     1       6.577   4.453  18.218  0.00  0.00    +0.000 OA
ATOM      3  N   UNL     1       4.315   4.187  17.979  0.00  0.00    +0.000 N 
ATOM      4  C   UNL     1       2.897   4.227  17.487  0.00  0.00    +0.000 C 
ATOM      5  C   UNL     1       2.619   2.779  17.100  0.00  0.00    +0.000 C 
ATOM      6  C   UNL     1       3.665   2.021  17.928  0.00  0.00    +0.000 C 
ATOM      7  C   UNL     1       4.319   3.067  18.877  0.00  0.00    +0.000 C 
ATOM      8  C   UNL     1       3.613   3.552  20.154  0.00  0.00    +0.000 C 
ATOM      9  C   UNL     1       2.679   4.795  19.978  0.00  0.00    +0.000 C 
ATOM     10  C   UNL     1       1.897   4.517  18.681  0.00  0.00    +0.000 C 
ENDROOT
BRANCH   1  14
ATOM     11  C   UNL     1       8.359   5.677  13.505  0.00  0.00    +0.000 C 
ATOM     12  C   UNL     1       7.204   4.969  14.139  0.00  0.00    +0.000 A 
ATOM     13  C   UNL     1       6.959   5.115  15.497  0.00  0.00    +0.000 A 
ATOM     14  C   UNL     1       5.889   4.424  16.036  0.00  0.00    +0.000 A 
ATOM     15  C   UNL     1       5.105   3.599  15.211  0.00  0.00    +0.000 A 
ATOM     16  C   UNL     1       5.419   3.520  13.869  0.00  0.00    +0.000 A 
ATOM     17  N   UNL     1       6.443   4.198  13.319  0.00  0.00    +0.000 NA
ENDBRANCH   1  14
BRANCH   9  18
ATOM     18  O   UNL     1       1.794   4.805  21.106  0.00  0.00    +0.000 OA
ATOM     19  H   UNL     1       1.725   5.728  21.422  0.00  0.00    +0.000 HD
ENDBRANCH   9  18
BRANCH   9  20
ATOM     20  C   UNL     1       3.151   6.267  19.750  0.00  0.00    +0.000 C 
BRANCH  20  21
ATOM     21  C   UNL     1       2.283   7.430  19.376  0.00  0.00    +0.000 A 
ATOM     22  C   UNL     1       1.497   8.082  20.328  0.00  0.00    +0.000 A 
ATOM     23  C   UNL     1       0.963   9.342  20.049  0.00  0.00    +0.000 A 
ATOM     24  C   UNL     1       1.204   9.945  18.819  0.00  0.00    +0.000 A 
ATOM     25  F   UNL     1       0.726  11.173  18.581  0.00  0.00    +0.000 F 
ATOM     26  C   UNL     1       1.965   9.313  17.850  0.00  0.00    +0.000 A 
ATOM     27  C   UNL     1       2.499   8.065  18.137  0.00  0.00    +0.000 A 
ATOM     28  F   UNL     1       3.308   7.504  17.226  0.00  0.00    +0.000 F 
ENDBRANCH  20  21
ENDBRANCH   9  20
TORSDOF 4
ENDMDL
MODEL 8
REMARK VINA RESULT:      -7.7      1.204      1.926
REMARK  Name = 
REMARK  5 active torsions:
REMARK  status: ('A' for Active; 'I' for Inactive)
REMARK    1  A    between atoms: C_1  and  C_2
REMARK    2  A    between atoms: C_4  and  C_5
REMARK    3  A    between atoms: C_13  and  O_14
REMARK    4  A    between atoms: C_13  and  C_15
REMARK    5  A    between atoms: C_15  and  C_16
REMARK                            x       y       z     vdW  Elec       q    Type
REMARK                         _______ _______ _______ _____ _____    ______ ____
ROOT
ATOM      1  C   UNL     1       5.215   4.489  19.003  0.00  0.00    +0.000 C 
ATOM      2  O   UNL     1       5.859   4.068  19.979  0.00  0.00    +0.000 OA
ATOM      3  N   UNL     1       3.873   4.162  18.842  0.00  0.00    +0.000 N 
ATOM      4  C   UNL     1       2.732   4.564  17.954  0.00  0.00    +0.000 C 
ATOM      5  C   UNL     1       2.752   3.505  16.857  0.00  0.00    +0.000 C 
ATOM      6  C   UNL     1       3.496   2.351  17.541  0.00  0.00    +0.000 C 
ATOM      7  C   UNL     1       3.660   2.755  19.035  0.00  0.00    +0.000 C 
ATOM      8  C   UNL     1       2.497   2.641  20.035  0.00  0.00    +0.000 C 
ATOM      9  C   UNL     1       1.576   3.901  20.144  0.00  0.00    +0.000 C 
ATOM     10  C   UNL     1       1.346   4.346  18.688  0.00  0.00    +0.000 C 
ENDROOT
BRANCH   1  14
ATOM     11  C   UNL     1       8.023   8.224  17.232  0.00  0.00    +0.000 C 
ATOM     12  C   UNL     1       7.381   6.878  17.107  0.00  0.00    +0.000 A 
ATOM     13  C   UNL     1       6.566   6.399  18.121  0.00  0.00    +0.000 A 
ATOM     14  C   UNL     1       6.013   5.141  17.963  0.00  0.00    +0.000 A 
ATOM     15  C   UNL     1       6.298   4.395  16.808  0.00  0.00    +0.000 A 
ATOM     16  C   UNL     1       7.115   4.955  15.846  0.00  0.00    +0.000 A 
ATOM     17  N   UNL     1       7.649   6.183  15.970  0.00  0.00    +0.000 NA
ENDBRANCH   1  14
BRANCH   9  18
ATOM     18  O   UNL     1       0.346   3.459  20.735  0.00  0.00    +0.000 OA
ATOM     19  H   UNL     1      -0.358   3.557  20.065  0.00  0.00    +0.000 HD
ENDBRANCH   9  18
BRANCH   9  20
ATOM     20  C   UNL     1       1.955   5.254  20.829  0.00  0.00    +0.000 C 
BRANCH  20  21
ATOM     21  C   UNL     1       1.346   6.594  20.546  0.00  0.00    +0.000 A 
ATOM     22  C   UNL     1       0.265   7.069  21.292  0.00  0.00    +0.000 A 
ATOM     23  C   UNL     1      -0.073   8.423  21.248  0.00  0.00    +0.000 A 
ATOM     24  C   UNL     1       0.660   9.299  20.453  0.00  0.00    +0.000 A 
ATOM     25  F   UNL     1       0.356  10.603  20.455  0.00  0.00    +0.000 F 
ATOM     26  C   UNL     1       1.724   8.851  19.689  0.00  0.00    +0.000 A 
ATOM     27  C   UNL     1       2.060   7.506  19.745  0.00  0.00    +0.000 A 
ATOM     28  F   UNL     1       3.148   7.102  19.073  0.00  0.00    +0.000 F 
ENDBRANCH  20  21
ENDBRANCH   9  20
TORSDOF 4
ENDMDL
MODEL 9
REMARK VINA RESULT:      -7.7      2.904      6.650
REMARK  Name = 
REMARK  5 active torsions:
REMARK  status: ('A' for Active; 'I' for Inactive)
REMARK    1  A    between atoms: C_1  and  C_2
REMARK    2  A    between atoms: C_4  and  C_5
REMARK    3  A    between atoms: C_13  and  O_14
REMARK    4  A    between atoms: C_13  and  C_15
REMARK    5  A    between atoms: C_15  and  C_16
REMARK                            x       y       z     vdW  Elec       q    Type
REMARK                         _______ _______ _______ _____ _____    ______ ____
ROOT
ATOM      1  C   UNL     1       2.142   6.411  18.597  0.00  0.00    +0.000 C 
ATOM      2  O   UNL     1       1.913   6.540  17.382  0.00  0.00    +0.000 OA
ATOM      3  N   UNL     1       2.462   5.169  19.133  0.00  0.00    +0.000 N 
ATOM      4  C   UNL     1       2.948   4.617  20.441  0.00  0.00    +0.000 C 
ATOM      5  C   UNL     1       1.663   4.189  21.142  0.00  0.00    +0.000 C 
ATOM      6  C   UNL     1       0.698   4.021  19.961  0.00  0.00    +0.000 C 
ATOM      7  C   UNL     1       1.553   4.159  18.668  0.00  0.00    +0.000 C 
ATOM      8  C   UNL     1       2.434   3.008  18.154  0.00  0.00    +0.000 C 
ATOM      9  C   UNL     1       3.894   2.975  18.714  0.00  0.00    +0.000 C 
ATOM     10  C   UNL     1       3.744   3.265  20.218  0.00  0.00    +0.000 C 
ENDROOT
BRANCH   1  14
ATOM     11  C   UNL     1       0.966  11.228  19.213  0.00  0.00    +0.000 C 
ATOM     12  C   UNL     1       1.239   9.857  19.743  0.00  0.00    +0.000 A 
ATOM     13  C   UNL     1       1.614   8.839  18.878  0.00  0.00    +0.000 A 
ATOM     14  C   UNL     1       1.837   7.585  19.417  0.00  0.00    +0.000 A 
ATOM     15  C   UNL     1       1.667   7.380  20.797  0.00  0.00    +0.000 A 
ATOM     16  C   UNL     1       1.300   8.453  21.583  0.00  0.00    +0.000 A 
ATOM     17  N   UNL     1       1.096   9.685  21.083  0.00  0.00    +0.000 NA
ENDBRANCH   1  14
BRANCH   9  18
ATOM     18  O   UNL     1       4.383   1.642  18.505  0.00  0.00    +0.000 OA
ATOM     19  H   UNL     1       5.359   1.684  18.484  0.00  0.00    +0.000 HD
ENDBRANCH   9  18
BRANCH   9  20
ATOM     20  C   UNL     1       5.046   3.954  18.318  0.00  0.00    +0.000 C 
BRANCH  20  21
ATOM     21  C   UNL     1       5.708   4.050  16.976  0.00  0.00    +0.000 A 
ATOM     22  C   UNL     1       4.961   4.014  15.797  0.00  0.00    +0.000 A 
ATOM     23  C   UNL     1       5.533   4.432  14.595  0.00  0.00    +0.000 A 
ATOM     24  C   UNL     1       6.851   4.875  14.566  0.00  0.00    +0.000 A 
ATOM     25  F   UNL     1       7.374   5.318  13.415  0.00  0.00    +0.000 F 
ATOM     26  C   UNL     1       7.621   4.904  15.717  0.00  0.00    +0.000 A 
ATOM     27  C   UNL     1       7.043   4.495  16.910  0.00  0.00    +0.000 A 
ATOM     28  F   UNL     1       7.768   4.614  18.032  0.00  0.00    +0.000 F 
ENDBRANCH  20  21
ENDBRANCH   9  20
TORSDOF 4
ENDMDL
