MODEL 1
REMARK VINA RESULT:      -8.4      0.000      0.000
REMARK  Name = 
REMARK  3 active torsions:
REMARK  status: ('A' for Active; 'I' for Inactive)
REMARK    1  A    between atoms: C_4  and  C_5
REMARK    2  A    between atoms: N_7  and  C_8
REMARK    3  A    between atoms: C_8  and  C_9
REMARK                            x       y       z     vdW  Elec       q    Type
REMARK                         _______ _______ _______ _____ _____    ______ ____
ROOT
ATOM      1  C   UNL     1       2.196   4.886  19.232  0.00  0.00    +0.000 C 
ATOM      2  O   UNL     1       1.120   4.332  19.467  0.00  0.00    +0.000 OA
ATOM      3  N   UNL     1       2.630   5.964  19.960  0.00  0.00    +0.000 N 
ATOM      4  H   UNL     1       3.582   6.305  19.881  0.00  0.00    +0.000 HD
ENDROOT
BRANCH   1   8
ATOM      5  O   UNL     1       4.756   1.859  20.210  0.00  0.00    +0.000 OA
ATOM      6  C   UNL     1       4.656   2.773  19.396  0.00  0.00    +0.000 C 
ATOM      7  C   UNL     1       3.492   2.888  18.445  0.00  0.00    +0.000 C 
ATOM      8  C   UNL     1       3.124   4.337  18.149  0.00  0.00    +0.000 C 
ATOM      9  C   UNL     1       4.345   5.185  17.876  0.00  0.00    +0.000 A 
ATOM     10  C   UNL     1       4.250   6.359  17.114  0.00  0.00    +0.000 A 
ATOM     11  C   UNL     1       5.386   7.136  16.888  0.00  0.00    +0.000 A 
ATOM     12  C   UNL     1       6.607   6.742  17.424  0.00  0.00    +0.000 A 
ATOM     13  F   UNL     1       7.696   7.487  17.199  0.00  0.00    +0.000 F 
ATOM     14  C   UNL     1       6.717   5.589  18.197  0.00  0.00    +0.000 A 
ATOM     15  C   UNL     1       5.582   4.815  18.418  0.00  0.00    +0.000 A 
ATOM     16  N   UNL     1       5.667   3.681  19.229  0.00  0.00    +0.000 N 
ATOM     17  H   UNL     1       6.510   3.496  19.760  0.00  0.00    +0.000 HD
ENDBRANCH   1   8
BRANCH   3  18
ATOM     18  C   UNL     1       1.836   6.454  21.066  0.00  0.00    +0.000 C 
BRANCH  18  19
ATOM     19  C   UNL     1       1.251   7.782  20.758  0.00  0.00    +0.000 A 
ATOM     20  C   UNL     1       0.340   8.582  21.422  0.00  0.00    +0.000 A 
ATOM     21  C   UNL     1       0.224   9.782  20.673  0.00  0.00    +0.000 A 
ATOM     22  C   UNL     1      -0.497  10.985  20.798  0.00  0.00    +0.000 A 
ATOM     23  C   UNL     1      -0.331  11.974  19.817  0.00  0.00    +0.000 A 
ATOM     24  C   UNL     1       0.539  11.782  18.740  0.00  0.00    +0.000 A 
ATOM     25  C   UNL     1       1.269  10.598  18.604  0.00  0.00    +0.000 A 
ATOM     26  C   UNL     1       1.076   9.631  19.587  0.00  0.00    +0.000 A 
ATOM     27  O   UNL     1       1.696   8.419  19.634  0.00  0.00    +0.000 OA
ENDBRANCH  18  19
ENDBRANCH   3  18
TORSDOF 3
ENDMDL
MODEL 2
REMARK VINA RESULT:      -8.4      2.451      3.135
REMARK  Name = 
REMARK  3 active torsions:
REMARK  status: ('A' for Active; 'I' for Inactive)
REMARK    1  A    between atoms: C_4  and  C_5
REMARK    2  A    between atoms: N_7  and  C_8
REMARK    3  A    between atoms: C_8  and  C_9
REMARK                            x       y       z     vdW  Elec       q    Type
REMARK                         _______ _______ _______ _____ _____    ______ ____
ROOT
ATOM      1  C   UNL     1       2.210   7.479  18.717  0.00  0.00    +0.000 C 
ATOM      2  O   UNL     1       2.223   7.388  19.946  0.00  0.00    +0.000 OA
ATOM      3  N   UNL     1       1.782   8.616  18.079  0.00  0.00    +0.000 N 
ATOM      4  H   UNL     1       1.935   8.752  17.086  0.00  0.00    +0.000 HD
ENDROOT
BRANCH   1   8
ATOM      5  O   UNL     1       1.577   3.640  19.959  0.00  0.00    +0.000 OA
ATOM      6  C   UNL     1       2.359   4.281  19.260  0.00  0.00    +0.000 C 
ATOM      7  C   UNL     1       1.910   5.077  18.061  0.00  0.00    +0.000 C 
ATOM      8  C   UNL     1       2.743   6.336  17.855  0.00  0.00    +0.000 C 
ATOM      9  C   UNL     1       4.221   6.065  18.009  0.00  0.00    +0.000 A 
ATOM     10  C   UNL     1       5.173   6.892  17.392  0.00  0.00    +0.000 A 
ATOM     11  C   UNL     1       6.533   6.634  17.561  0.00  0.00    +0.000 A 
ATOM     12  C   UNL     1       6.937   5.559  18.345  0.00  0.00    +0.000 A 
ATOM     13  F   UNL     1       8.244   5.311  18.499  0.00  0.00    +0.000 F 
ATOM     14  C   UNL     1       6.009   4.738  18.977  0.00  0.00    +0.000 A 
ATOM     15  C   UNL     1       4.652   4.996  18.805  0.00  0.00    +0.000 A 
ATOM     16  N   UNL     1       3.709   4.209  19.470  0.00  0.00    +0.000 N 
ATOM     17  H   UNL     1       4.006   3.544  20.175  0.00  0.00    +0.000 HD
ENDBRANCH   1   8
BRANCH   3  18
ATOM     18  C   UNL     1       1.370   9.765  18.855  0.00  0.00    +0.000 C 
BRANCH  18  19
ATOM     19  C   UNL     1      -0.030  10.147  18.543  0.00  0.00    +0.000 A 
ATOM     20  C   UNL     1      -0.941  10.968  19.180  0.00  0.00    +0.000 A 
ATOM     21  C   UNL     1      -2.102  11.004  18.364  0.00  0.00    +0.000 A 
ATOM     22  C   UNL     1      -3.355  11.643  18.418  0.00  0.00    +0.000 A 
ATOM     23  C   UNL     1      -4.268  11.423  17.375  0.00  0.00    +0.000 A 
ATOM     24  C   UNL     1      -3.945  10.596  16.297  0.00  0.00    +0.000 A 
ATOM     25  C   UNL     1      -2.703   9.958  16.223  0.00  0.00    +0.000 A 
ATOM     26  C   UNL     1      -1.821  10.188  17.276  0.00  0.00    +0.000 A 
ATOM     27  O   UNL     1      -0.568   9.665  17.384  0.00  0.00    +0.000 OA
ENDBRANCH  18  19
ENDBRANCH   3  18
TORSDOF 3
ENDMDL
MODEL 3
REMARK VINA RESULT:      -8.3      0.629      1.224
REMARK  Name = 
REMARK  3 active torsions:
REMARK  status: ('A' for Active; 'I' for Inactive)
REMARK    1  A    between atoms: C_4  and  C_5
REMARK    2  A    between atoms: N_7  and  C_8
REMARK    3  A    between atoms: C_8  and  C_9
REMARK                            x       y       z     vdW  Elec       q    Type
REMARK                         _______ _______ _______ _____ _____    ______ ____
ROOT
ATOM      1  C   UNL     1       2.279   4.758  18.900  0.00  0.00    +0.000 C 
ATOM      2  O   UNL     1       1.135   4.304  18.948  0.00  0.00    +0.000 OA
ATOM      3  N   UNL     1       2.696   5.762  19.738  0.00  0.00    +0.000 N 
ATOM      4  H   UNL     1       3.676   6.011  19.815  0.00  0.00    +0.000 HD
ENDROOT
BRANCH   1   8
ATOM      5  O   UNL     1       4.792   1.854  20.288  0.00  0.00    +0.000 OA
ATOM      6  C   UNL     1       4.749   2.712  19.410  0.00  0.00    +0.000 C 
ATOM      7  C   UNL     1       3.669   2.741  18.358  0.00  0.00    +0.000 C 
ATOM      8  C   UNL     1       3.305   4.161  17.939  0.00  0.00    +0.000 C 
ATOM      9  C   UNL     1       4.532   5.014  17.715  0.00  0.00    +0.000 A 
ATOM     10  C   UNL     1       4.486   6.135  16.872  0.00  0.00    +0.000 A 
ATOM     11  C   UNL     1       5.625   6.919  16.693  0.00  0.00    +0.000 A 
ATOM     12  C   UNL     1       6.801   6.585  17.356  0.00  0.00    +0.000 A 
ATOM     13  F   UNL     1       7.894   7.337  17.175  0.00  0.00    +0.000 F 
ATOM     14  C   UNL     1       6.861   5.488  18.208  0.00  0.00    +0.000 A 
ATOM     15  C   UNL     1       5.724   4.705  18.383  0.00  0.00    +0.000 A 
ATOM     16  N   UNL     1       5.756   3.627  19.271  0.00  0.00    +0.000 N 
ATOM     17  H   UNL     1       6.553   3.494  19.882  0.00  0.00    +0.000 HD
ENDBRANCH   1   8
BRANCH   3  18
ATOM     18  C   UNL     1       1.793   6.286  20.738  0.00  0.00    +0.000 C 
BRANCH  18  19
ATOM     19  C   UNL     1       1.450   7.703  20.460  0.00  0.00    +0.000 A 
ATOM     20  C   UNL     1       1.629   8.510  19.351  0.00  0.00    +0.000 A 
ATOM     21  C   UNL     1       1.026   9.760  19.651  0.00  0.00    +0.000 A 
ATOM     22  C   UNL     1       0.841  10.980  18.975  0.00  0.00    +0.000 A 
ATOM     23  C   UNL     1       0.161  12.017  19.631  0.00  0.00    +0.000 A 
ATOM     24  C   UNL     1      -0.335  11.847  20.926  0.00  0.00    +0.000 A 
ATOM     25  C   UNL     1      -0.167  10.639  21.611  0.00  0.00    +0.000 A 
ATOM     26  C   UNL     1       0.519   9.632  20.938  0.00  0.00    +0.000 A 
ATOM     27  O   UNL     1       0.778   8.389  21.431  0.00  0.00    +0.000 OA
ENDBRANCH  18  19
ENDBRANCH   3  18
TORSDOF 3
ENDMDL
MODEL 4
REMARK VINA RESULT:      -8.3      2.827      4.127
REMARK  Name = 
REMARK  3 active torsions:
REMARK  status: ('A' for Active; 'I' for Inactive)
REMARK    1  A    between atoms: C_4  and  C_5
REMARK    2  A    between atoms: N_7  and  C_8
REMARK    3  A    between atoms: C_8  and  C_9
REMARK                            x       y       z     vdW  Elec       q    Type
REMARK                         _______ _______ _______ _____ _____    ______ ____
ROOT
ATOM      1  C   UNL     1       3.324   7.070  18.212  0.00  0.00    +0.000 C 
ATOM      2  O   UNL     1       3.707   7.437  17.100  0.00  0.00    +0.000 OA
ATOM      3  N   UNL     1       2.369   7.762  18.914  0.00  0.00    +0.000 N 
ATOM      4  H   UNL     1       1.934   7.367  19.741  0.00  0.00    +0.000 HD
ENDROOT
BRANCH   1   8
ATOM      5  O   UNL     1       5.824   4.744  15.973  0.00  0.00    +0.000 OA
ATOM      6  C   UNL     1       5.035   4.637  16.909  0.00  0.00    +0.000 C 
ATOM      7  C   UNL     1       5.198   5.403  18.197  0.00  0.00    +0.000 C 
ATOM      8  C   UNL     1       3.860   5.777  18.824  0.00  0.00    +0.000 C 
ATOM      9  C   UNL     1       2.887   4.621  18.807  0.00  0.00    +0.000 A 
ATOM     10  C   UNL     1       1.836   4.551  19.734  0.00  0.00    +0.000 A 
ATOM     11  C   UNL     1       0.938   3.484  19.691  0.00  0.00    +0.000 A 
ATOM     12  C   UNL     1       1.091   2.496  18.724  0.00  0.00    +0.000 A 
ATOM     13  F   UNL     1       0.231   1.470  18.691  0.00  0.00    +0.000 F 
ATOM     14  C   UNL     1       2.117   2.557  17.787  0.00  0.00    +0.000 A 
ATOM     15  C   UNL     1       3.013   3.621  17.834  0.00  0.00    +0.000 A 
ATOM     16  N   UNL     1       4.020   3.720  16.872  0.00  0.00    +0.000 N 
ATOM     17  H   UNL     1       4.021   3.102  16.069  0.00  0.00    +0.000 HD
ENDBRANCH   1   8
BRANCH   3  18
ATOM     18  C   UNL     1       1.754   8.933  18.330  0.00  0.00    +0.000 C 
BRANCH  18  19
ATOM     19  C   UNL     1       0.957   9.677  19.337  0.00  0.00    +0.000 A 
ATOM     20  C   UNL     1       0.174  10.814  19.258  0.00  0.00    +0.000 A 
ATOM     21  C   UNL     1      -0.403  11.005  20.541  0.00  0.00    +0.000 A 
ATOM     22  C   UNL     1      -1.285  11.934  21.123  0.00  0.00    +0.000 A 
ATOM     23  C   UNL     1      -1.636  11.775  22.473  0.00  0.00    +0.000 A 
ATOM     24  C   UNL     1      -1.133  10.713  23.227  0.00  0.00    +0.000 A 
ATOM     25  C   UNL     1      -0.261   9.776  22.664  0.00  0.00    +0.000 A 
ATOM     26  C   UNL     1       0.077   9.965  21.327  0.00  0.00    +0.000 A 
ATOM     27  O   UNL     1       0.903   9.161  20.601  0.00  0.00    +0.000 OA
ENDBRANCH  18  19
ENDBRANCH   3  18
TORSDOF 3
ENDMDL
MODEL 5
REMARK VINA RESULT:      -8.3      2.344      3.253
REMARK  Name = 
REMARK  3 active torsions:
REMARK  status: ('A' for Active; 'I' for Inactive)
REMARK    1  A    between atoms: C_4  and  C_5
REMARK    2  A    between atoms: N_7  and  C_8
REMARK    3  A    between atoms: C_8  and  C_9
REMARK                            x       y       z     vdW  Elec       q    Type
REMARK                         _______ _______ _______ _____ _____    ______ ____
ROOT
ATOM      1  C   UNL     1       2.221   7.670  18.582  0.00  0.00    +0.000 C 
ATOM      2  O   UNL     1       2.163   7.717  19.812  0.00  0.00    +0.000 OA
ATOM      3  N   UNL     1       1.887   8.746  17.799  0.00  0.00    +0.000 N 
ATOM      4  H   UNL     1       2.100   8.763  16.808  0.00  0.00    +0.000 HD
ENDROOT
BRANCH   1   8
ATOM      5  O   UNL     1       1.599   4.048  20.363  0.00  0.00    +0.000 OA
ATOM      6  C   UNL     1       2.372   4.581  19.570  0.00  0.00    +0.000 C 
ATOM      7  C   UNL     1       1.908   5.200  18.277  0.00  0.00    +0.000 C 
ATOM      8  C   UNL     1       2.740   6.415  17.883  0.00  0.00    +0.000 C 
ATOM      9  C   UNL     1       4.220   6.164  18.054  0.00  0.00    +0.000 A 
ATOM     10  C   UNL     1       5.164   6.891  17.314  0.00  0.00    +0.000 A 
ATOM     11  C   UNL     1       6.526   6.656  17.499  0.00  0.00    +0.000 A 
ATOM     12  C   UNL     1       6.940   5.701  18.421  0.00  0.00    +0.000 A 
ATOM     13  F   UNL     1       8.249   5.473  18.591  0.00  0.00    +0.000 F 
ATOM     14  C   UNL     1       6.019   4.981  19.176  0.00  0.00    +0.000 A 
ATOM     15  C   UNL     1       4.661   5.216  18.987  0.00  0.00    +0.000 A 
ATOM     16  N   UNL     1       3.726   4.535  19.769  0.00  0.00    +0.000 N 
ATOM     17  H   UNL     1       4.031   3.976  20.558  0.00  0.00    +0.000 HD
ENDBRANCH   1   8
BRANCH   3  18
ATOM     18  C   UNL     1       1.493   9.992  18.418  0.00  0.00    +0.000 C 
BRANCH  18  19
ATOM     19  C   UNL     1       0.038  10.236  18.252  0.00  0.00    +0.000 A 
ATOM     20  C   UNL     1      -0.940   9.598  17.512  0.00  0.00    +0.000 A 
ATOM     21  C   UNL     1      -2.169  10.242  17.814  0.00  0.00    +0.000 A 
ATOM     22  C   UNL     1      -3.513  10.082  17.430  0.00  0.00    +0.000 A 
ATOM     23  C   UNL     1      -4.476  10.946  17.975  0.00  0.00    +0.000 A 
ATOM     24  C   UNL     1      -4.117  11.940  18.889  0.00  0.00    +0.000 A 
ATOM     25  C   UNL     1      -2.787  12.108  19.288  0.00  0.00    +0.000 A 
ATOM     26  C   UNL     1      -1.854  11.243  18.724  0.00  0.00    +0.000 A 
ATOM     27  O   UNL     1      -0.518  11.244  18.988  0.00  0.00    +0.000 OA
ENDBRANCH  18  19
ENDBRANCH   3  18
TORSDOF 3
ENDMDL
MODEL 6
REMARK VINA RESULT:      -8.3      3.840      7.663
REMARK  Name = 
REMARK  3 active torsions:
REMARK  status: ('A' for Active; 'I' for Inactive)
REMARK    1  A    between atoms: C_4  and  C_5
REMARK    2  A    between atoms: N_7  and  C_8
REMARK    3  A    between atoms: C_8  and  C_9
REMARK                            x       y       z     vdW  Elec       q    Type
REMARK                         _______ _______ _______ _____ _____    ______ ____
ROOT
ATOM      1  C   UNL     1       3.727   5.913  17.605  0.00  0.00    +0.000 C 
ATOM      2  O   UNL     1       4.055   6.960  17.044  0.00  0.00    +0.000 OA
ATOM      3  N   UNL     1       4.634   4.917  17.865  0.00  0.00    +0.000 N 
ATOM      4  H   UNL     1       4.403   4.140  18.476  0.00  0.00    +0.000 HD
ENDROOT
BRANCH   1   8
ATOM      5  O   UNL     1       2.229   8.556  20.334  0.00  0.00    +0.000 OA
ATOM      6  C   UNL     1       2.057   7.398  19.961  0.00  0.00    +0.000 C 
ATOM      7  C   UNL     1       1.696   7.049  18.540  0.00  0.00    +0.000 C 
ATOM      8  C   UNL     1       2.295   5.719  18.098  0.00  0.00    +0.000 C 
ATOM      9  C   UNL     1       2.129   4.648  19.152  0.00  0.00    +0.000 A 
ATOM     10  C   UNL     1       2.129   3.289  18.804  0.00  0.00    +0.000 A 
ATOM     11  C   UNL     1       1.992   2.317  19.793  0.00  0.00    +0.000 A 
ATOM     12  C   UNL     1       1.861   2.702  21.123  0.00  0.00    +0.000 A 
ATOM     13  F   UNL     1       1.722   1.766  22.070  0.00  0.00    +0.000 F 
ATOM     14  C   UNL     1       1.875   4.045  21.489  0.00  0.00    +0.000 A 
ATOM     15  C   UNL     1       2.009   5.013  20.499  0.00  0.00    +0.000 A 
ATOM     16  N   UNL     1       2.072   6.362  20.855  0.00  0.00    +0.000 N 
ATOM     17  H   UNL     1       2.155   6.629  21.830  0.00  0.00    +0.000 HD
ENDBRANCH   1   8
BRANCH   3  18
ATOM     18  C   UNL     1       6.025   5.099  17.515  0.00  0.00    +0.000 C 
BRANCH  18  19
ATOM     19  C   UNL     1       6.270   4.741  16.095  0.00  0.00    +0.000 A 
ATOM     20  C   UNL     1       5.717   3.788  15.260  0.00  0.00    +0.000 A 
ATOM     21  C   UNL     1       6.305   3.973  13.981  0.00  0.00    +0.000 A 
ATOM     22  C   UNL     1       6.178   3.370  12.715  0.00  0.00    +0.000 A 
ATOM     23  C   UNL     1       6.957   3.860  11.655  0.00  0.00    +0.000 A 
ATOM     24  C   UNL     1       7.835   4.930  11.842  0.00  0.00    +0.000 A 
ATOM     25  C   UNL     1       7.969   5.546  13.090  0.00  0.00    +0.000 A 
ATOM     26  C   UNL     1       7.190   5.033  14.124  0.00  0.00    +0.000 A 
ATOM     27  O   UNL     1       7.174   5.497  15.404  0.00  0.00    +0.000 OA
ENDBRANCH  18  19
ENDBRANCH   3  18
TORSDOF 3
ENDMDL
MODEL 7
REMARK VINA RESULT:      -8.2      1.860      2.211
REMARK  Name = 
REMARK  3 active torsions:
REMARK  status: ('A' for Active; 'I' for Inactive)
REMARK    1  A    between atoms: C_4  and  C_5
REMARK    2  A    between atoms: N_7  and  C_8
REMARK    3  A    between atoms: C_8  and  C_9
REMARK                            x       y       z     vdW  Elec       q    Type
REMARK                         _______ _______ _______ _____ _____    ______ ____
ROOT
ATOM      1  C   UNL     1       2.394   6.032  19.477  0.00  0.00    +0.000 C 
ATOM      2  O   UNL     1       2.930   5.288  20.300  0.00  0.00    +0.000 OA
ATOM      3  N   UNL     1       1.841   7.234  19.842  0.00  0.00    +0.000 N 
ATOM      4  H   UNL     1       1.560   7.917  19.146  0.00  0.00    +0.000 HD
ENDROOT
BRANCH   1   8
ATOM      5  O   UNL     1       1.558   2.177  18.424  0.00  0.00    +0.000 OA
ATOM      6  C   UNL     1       2.153   3.158  17.986  0.00  0.00    +0.000 C 
ATOM      7  C   UNL     1       1.469   4.479  17.740  0.00  0.00    +0.000 C 
ATOM      8  C   UNL     1       2.389   5.666  17.994  0.00  0.00    +0.000 C 
ATOM      9  C   UNL     1       3.759   5.458  17.391  0.00  0.00    +0.000 A 
ATOM     10  C   UNL     1       4.572   6.551  17.055  0.00  0.00    +0.000 A 
ATOM     11  C   UNL     1       5.839   6.337  16.516  0.00  0.00    +0.000 A 
ATOM     12  C   UNL     1       6.291   5.036  16.317  0.00  0.00    +0.000 A 
ATOM     13  F   UNL     1       7.506   4.835  15.792  0.00  0.00    +0.000 F 
ATOM     14  C   UNL     1       5.506   3.940  16.659  0.00  0.00    +0.000 A 
ATOM     15  C   UNL     1       4.240   4.157  17.195  0.00  0.00    +0.000 A 
ATOM     16  N   UNL     1       3.459   3.068  17.585  0.00  0.00    +0.000 N 
ATOM     17  H   UNL     1       3.857   2.136  17.606  0.00  0.00    +0.000 HD
ENDBRANCH   1   8
BRANCH   3  18
ATOM     18  C   UNL     1       1.917   7.674  21.217  0.00  0.00    +0.000 C 
BRANCH  18  19
ATOM     19  C   UNL     1       0.927   8.746  21.491  0.00  0.00    +0.000 A 
ATOM     20  C   UNL     1       0.379   9.238  22.661  0.00  0.00    +0.000 A 
ATOM     21  C   UNL     1      -0.462  10.322  22.296  0.00  0.00    +0.000 A 
ATOM     22  C   UNL     1      -1.277  11.242  22.982  0.00  0.00    +0.000 A 
ATOM     23  C   UNL     1      -1.973  12.208  22.238  0.00  0.00    +0.000 A 
ATOM     24  C   UNL     1      -1.856  12.269  20.847  0.00  0.00    +0.000 A 
ATOM     25  C   UNL     1      -1.045  11.368  20.151  0.00  0.00    +0.000 A 
ATOM     26  C   UNL     1      -0.374  10.416  20.913  0.00  0.00    +0.000 A 
ATOM     27  O   UNL     1       0.463   9.460  20.423  0.00  0.00    +0.000 OA
ENDBRANCH  18  19
ENDBRANCH   3  18
TORSDOF 3
ENDMDL
MODEL 8
REMARK VINA RESULT:      -8.2      2.855      3.981
REMARK  Name = 
REMARK  3 active torsions:
REMARK  status: ('A' for Active; 'I' for Inactive)
REMARK    1  A    between atoms: C_4  and  C_5
REMARK    2  A    between atoms: N_7  and  C_8
REMARK    3  A    between atoms: C_8  and  C_9
REMARK                            x       y       z     vdW  Elec       q    Type
REMARK                         _______ _______ _______ _____ _____    ______ ____
ROOT
ATOM      1  C   UNL     1       3.522   6.874  18.240  0.00  0.00    +0.000 C 
ATOM      2  O   UNL     1       4.079   6.988  17.147  0.00  0.00    +0.000 OA
ATOM      3  N   UNL     1       2.545   7.747  18.649  0.00  0.00    +0.000 N 
ATOM      4  H   UNL     1       1.972   7.552  19.462  0.00  0.00    +0.000 HD
ENDROOT
BRANCH   1   8
ATOM      5  O   UNL     1       6.535   4.345  17.146  0.00  0.00    +0.000 OA
ATOM      6  C   UNL     1       5.516   4.344  17.831  0.00  0.00    +0.000 C 
ATOM      7  C   UNL     1       5.316   5.289  18.989  0.00  0.00    +0.000 C 
ATOM      8  C   UNL     1       3.858   5.700  19.158  0.00  0.00    +0.000 C 
ATOM      9  C   UNL     1       2.922   4.520  19.041  0.00  0.00    +0.000 A 
ATOM     10  C   UNL     1       1.653   4.544  19.639  0.00  0.00    +0.000 A 
ATOM     11  C   UNL     1       0.798   3.451  19.504  0.00  0.00    +0.000 A 
ATOM     12  C   UNL     1       1.209   2.342  18.773  0.00  0.00    +0.000 A 
ATOM     13  F   UNL     1       0.388   1.291  18.652  0.00  0.00    +0.000 F 
ATOM     14  C   UNL     1       2.457   2.306  18.158  0.00  0.00    +0.000 A 
ATOM     15  C   UNL     1       3.310   3.397  18.297  0.00  0.00    +0.000 A 
ATOM     16  N   UNL     1       4.547   3.395  17.648  0.00  0.00    +0.000 N 
ATOM     17  H   UNL     1       4.769   2.670  16.976  0.00  0.00    +0.000 HD
ENDBRANCH   1   8
BRANCH   3  18
ATOM     18  C   UNL     1       2.116   8.811  17.769  0.00  0.00    +0.000 C 
BRANCH  18  19
ATOM     19  C   UNL     1       1.021   9.604  18.382  0.00  0.00    +0.000 A 
ATOM     20  C   UNL     1       0.920  10.295  19.576  0.00  0.00    +0.000 A 
ATOM     21  C   UNL     1      -0.354  10.923  19.579  0.00  0.00    +0.000 A 
ATOM     22  C   UNL     1      -1.062  11.764  20.458  0.00  0.00    +0.000 A 
ATOM     23  C   UNL     1      -2.345  12.198  20.087  0.00  0.00    +0.000 A 
ATOM     24  C   UNL     1      -2.910  11.815  18.868  0.00  0.00    +0.000 A 
ATOM     25  C   UNL     1      -2.218  10.986  17.979  0.00  0.00    +0.000 A 
ATOM     26  C   UNL     1      -0.952  10.565  18.378  0.00  0.00    +0.000 A 
ATOM     27  O   UNL     1      -0.123   9.763  17.654  0.00  0.00    +0.000 OA
ENDBRANCH  18  19
ENDBRANCH   3  18
TORSDOF 3
ENDMDL
MODEL 9
REMARK VINA RESULT:      -8.1      1.220      1.781
REMARK  Name = 
REMARK  3 active torsions:
REMARK  status: ('A' for Active; 'I' for Inactive)
REMARK    1  A    between atoms: C_4  and  C_5
REMARK    2  A    between atoms: N_7  and  C_8
REMARK    3  A    between atoms: C_8  and  C_9
REMARK                            x       y       z     vdW  Elec       q    Type
REMARK                         _______ _______ _______ _____ _____    ______ ____
ROOT
ATOM      1  C   UNL     1       2.037   5.195  19.159  0.00  0.00    +0.000 C 
ATOM      2  O   UNL     1       1.513   4.313  19.842  0.00  0.00    +0.000 OA
ATOM      3  N   UNL     1       2.194   6.475  19.626  0.00  0.00    +0.000 N 
ATOM      4  H   UNL     1       2.775   7.147  19.137  0.00  0.00    +0.000 HD
ENDROOT
BRANCH   1   8
ATOM      5  O   UNL     1       3.418   1.416  18.462  0.00  0.00    +0.000 OA
ATOM      6  C   UNL     1       3.577   2.561  18.047  0.00  0.00    +0.000 C 
ATOM      7  C   UNL     1       2.447   3.380  17.477  0.00  0.00    +0.000 C 
ATOM      8  C   UNL     1       2.598   4.867  17.777  0.00  0.00    +0.000 C 
ATOM      9  C   UNL     1       4.010   5.349  17.538  0.00  0.00    +0.000 A 
ATOM     10  C   UNL     1       4.272   6.699  17.257  0.00  0.00    +0.000 A 
ATOM     11  C   UNL     1       5.584   7.127  17.057  0.00  0.00    +0.000 A 
ATOM     12  C   UNL     1       6.627   6.210  17.142  0.00  0.00    +0.000 A 
ATOM     13  F   UNL     1       7.885   6.624  16.942  0.00  0.00    +0.000 F 
ATOM     14  C   UNL     1       6.388   4.872  17.436  0.00  0.00    +0.000 A 
ATOM     15  C   UNL     1       5.077   4.447  17.632  0.00  0.00    +0.000 A 
ATOM     16  N   UNL     1       4.826   3.116  17.973  0.00  0.00    +0.000 N 
ATOM     17  H   UNL     1       5.592   2.496  18.208  0.00  0.00    +0.000 HD
ENDBRANCH   1   8
BRANCH   3  18
ATOM     18  C   UNL     1       1.776   6.808  20.970  0.00  0.00    +0.000 C 
BRANCH  18  19
ATOM     19  C   UNL     1       1.146   8.151  21.018  0.00  0.00    +0.000 A 
ATOM     20  C   UNL     1       0.961   9.133  20.062  0.00  0.00    +0.000 A 
ATOM     21  C   UNL     1       0.223  10.176  20.683  0.00  0.00    +0.000 A 
ATOM     22  C   UNL     1      -0.299  11.420  20.282  0.00  0.00    +0.000 A 
ATOM     23  C   UNL     1      -1.003  12.188  21.222  0.00  0.00    +0.000 A 
ATOM     24  C   UNL     1      -1.195  11.731  22.528  0.00  0.00    +0.000 A 
ATOM     25  C   UNL     1      -0.690  10.494  22.942  0.00  0.00    +0.000 A 
ATOM     26  C   UNL     1       0.012   9.758  21.991  0.00  0.00    +0.000 A 
ATOM     27  O   UNL     1       0.573   8.535  22.197  0.00  0.00    +0.000 OA
ENDBRANCH  18  19
ENDBRANCH   3  18
TORSDOF 3
ENDMDL
