MODEL 1
REMARK VINA RESULT:      -8.1      0.000      0.000
REMARK  Name = 
REMARK  5 active torsions:
REMARK  status: ('A' for Active; 'I' for Inactive)
REMARK    1  A    between atoms: C_2  and  C_17
REMARK    2  A    between atoms: N_3  and  C_4
REMARK    3  A    between atoms: C_8  and  C_10
REMARK    4  A    between atoms: N_25  and  C_26
REMARK    5  A    between atoms: C_26  and  C_27
REMARK                            x       y       z     vdW  Elec       q    Type
REMARK                         _______ _______ _______ _____ _____    ______ ____
ROOT
ATOM      1  O   UNL     1       0.920   8.065  17.435  0.00  0.00    +0.000 OA
ATOM      2  C   UNL     1       2.012   8.453  17.831  0.00  0.00    +0.000 C 
ATOM      3  N   UNL     1       2.158   9.714  18.360  0.00  0.00    +0.000 N 
ATOM      4  H   UNL     1       3.066   9.993  18.700  0.00  0.00    +0.000 HD
ENDROOT
BRANCH   2   5
ATOM      5  C   UNL     1       3.200   7.615  17.790  0.00  0.00    +0.000 A 
ATOM      6  C   UNL     1       4.299   7.652  16.938  0.00  0.00    +0.000 A 
ATOM      7  C   UNL     1       5.240   6.673  17.357  0.00  0.00    +0.000 A 
ATOM      8  C   UNL     1       6.533   6.313  16.926  0.00  0.00    +0.000 A 
ATOM      9  C   UNL     1       7.208   5.268  17.568  0.00  0.00    +0.000 A 
ATOM     10  C   UNL     1       6.602   4.564  18.602  0.00  0.00    +0.000 A 
ATOM     11  C   UNL     1       5.323   4.906  19.047  0.00  0.00    +0.000 A 
ATOM     12  C   UNL     1       4.671   5.987  18.427  0.00  0.00    +0.000 A 
ATOM     13  N   UNL     1       3.457   6.593  18.699  0.00  0.00    +0.000 N 
BRANCH  13  14
ATOM     14  C   UNL     1       2.634   6.261  19.873  0.00  0.00    +0.000 C 
BRANCH  14  15
ATOM     15  C   UNL     1       2.004   4.888  19.817  0.00  0.00    +0.000 A 
ATOM     16  C   UNL     1       1.560   4.317  18.616  0.00  0.00    +0.000 A 
ATOM     17  C   UNL     1       0.990   3.042  18.598  0.00  0.00    +0.000 A 
ATOM     18  C   UNL     1       0.875   2.310  19.777  0.00  0.00    +0.000 A 
ATOM     19  C   UNL     1       1.347   2.845  20.973  0.00  0.00    +0.000 A 
ATOM     20  C   UNL     1       1.912   4.122  20.992  0.00  0.00    +0.000 A 
ENDBRANCH  14  15
ENDBRANCH  13  14
ENDBRANCH   2   5
BRANCH   3  21
ATOM     21  C   UNL     1       1.049  10.656  18.546  0.00  0.00    +0.000 C 
ATOM     22  C   UNL     1       1.520  12.113  18.701  0.00  0.00    +0.000 C 
ATOM     23  C   UNL     1       1.655  12.562  20.151  0.00  0.00    +0.000 C 
ATOM     24  N   UNL     1       0.427  12.273  20.875  0.00  0.00    +0.000 N 
ATOM     25  C   UNL     1      -0.479  13.313  21.132  0.00  0.00    +0.000 C 
ATOM     26  O   UNL     1      -0.293  14.433  20.650  0.00  0.00    +0.000 OA
ATOM     27  C   UNL     1       0.128  10.850  20.981  0.00  0.00    +0.000 C 
ATOM     28  C   UNL     1       0.008  10.210  19.593  0.00  0.00    +0.000 C 
BRANCH  25  29
ATOM     29  C   UNL     1      -1.654  13.043  21.942  0.00  0.00    +0.000 A 
ATOM     30  C   UNL     1      -1.783  12.901  23.314  0.00  0.00    +0.000 A 
ATOM     31  C   UNL     1      -3.152  12.660  23.578  0.00  0.00    +0.000 A 
ATOM     32  C   UNL     1      -3.773  12.617  22.353  0.00  0.00    +0.000 A 
ATOM     33  O   UNL     1      -2.874  12.813  21.358  0.00  0.00    +0.000 OA
ENDBRANCH  25  29
ENDBRANCH   3  21
TORSDOF 5
ENDMDL
MODEL 2
REMARK VINA RESULT:      -8.0      0.495      1.082
REMARK  Name = 
REMARK  5 active torsions:
REMARK  status: ('A' for Active; 'I' for Inactive)
REMARK    1  A    between atoms: C_2  and  C_17
REMARK    2  A    between atoms: N_3  and  C_4
REMARK    3  A    between atoms: C_8  and  C_10
REMARK    4  A    between atoms: N_25  and  C_26
REMARK    5  A    between atoms: C_26  and  C_27
REMARK                            x       y       z     vdW  Elec       q    Type
REMARK                         _______ _______ _______ _____ _____    ______ ____
ROOT
ATOM      1  O   UNL     1       0.991   8.009  17.405  0.00  0.00    +0.000 OA
ATOM      2  C   UNL     1       2.079   8.408  17.800  0.00  0.00    +0.000 C 
ATOM      3  N   UNL     1       2.212   9.671  18.327  0.00  0.00    +0.000 N 
ATOM      4  H   UNL     1       3.118   9.960  18.668  0.00  0.00    +0.000 HD
ENDROOT
BRANCH   2   5
ATOM      5  C   UNL     1       3.275   7.581  17.763  0.00  0.00    +0.000 A 
ATOM      6  C   UNL     1       4.371   7.621  16.908  0.00  0.00    +0.000 A 
ATOM      7  C   UNL     1       5.322   6.654  17.331  0.00  0.00    +0.000 A 
ATOM      8  C   UNL     1       6.617   6.303  16.899  0.00  0.00    +0.000 A 
ATOM      9  C   UNL     1       7.304   5.269  17.546  0.00  0.00    +0.000 A 
ATOM     10  C   UNL     1       6.707   4.567  18.588  0.00  0.00    +0.000 A 
ATOM     11  C   UNL     1       5.426   4.901  19.033  0.00  0.00    +0.000 A 
ATOM     12  C   UNL     1       4.762   5.971  18.408  0.00  0.00    +0.000 A 
ATOM     13  N   UNL     1       3.543   6.568  18.679  0.00  0.00    +0.000 N 
BRANCH  13  14
ATOM     14  C   UNL     1       2.727   6.237  19.857  0.00  0.00    +0.000 C 
BRANCH  14  15
ATOM     15  C   UNL     1       2.088   4.868  19.801  0.00  0.00    +0.000 A 
ATOM     16  C   UNL     1       1.793   4.132  20.958  0.00  0.00    +0.000 A 
ATOM     17  C   UNL     1       1.193   2.874  20.871  0.00  0.00    +0.000 A 
ATOM     18  C   UNL     1       0.859   2.342  19.628  0.00  0.00    +0.000 A 
ATOM     19  C   UNL     1       1.108   3.076  18.472  0.00  0.00    +0.000 A 
ATOM     20  C   UNL     1       1.713   4.332  18.558  0.00  0.00    +0.000 A 
ENDBRANCH  14  15
ENDBRANCH  13  14
ENDBRANCH   2   5
BRANCH   3  21
ATOM     21  C   UNL     1       1.095  10.604  18.510  0.00  0.00    +0.000 C 
ATOM     22  C   UNL     1       1.550  12.069  18.624  0.00  0.00    +0.000 C 
ATOM     23  C   UNL     1       1.703  12.554  20.060  0.00  0.00    +0.000 C 
ATOM     24  N   UNL     1       0.491  12.267  20.812  0.00  0.00    +0.000 N 
ATOM     25  C   UNL     1      -0.423  13.301  21.060  0.00  0.00    +0.000 C 
ATOM     26  O   UNL     1      -0.260  14.411  20.549  0.00  0.00    +0.000 OA
ATOM     27  C   UNL     1       0.213  10.842  20.955  0.00  0.00    +0.000 C 
ATOM     28  C   UNL     1       0.078  10.169  19.585  0.00  0.00    +0.000 C 
BRANCH  25  29
ATOM     29  C   UNL     1      -1.582  13.035  21.896  0.00  0.00    +0.000 A 
ATOM     30  C   UNL     1      -2.890  12.744  21.547  0.00  0.00    +0.000 A 
ATOM     31  C   UNL     1      -3.608  12.560  22.753  0.00  0.00    +0.000 A 
ATOM     32  C   UNL     1      -2.713  12.797  23.768  0.00  0.00    +0.000 A 
ATOM     33  O   UNL     1      -1.497  13.118  23.262  0.00  0.00    +0.000 OA
ENDBRANCH  25  29
ENDBRANCH   3  21
TORSDOF 5
ENDMDL
MODEL 3
REMARK VINA RESULT:      -7.9      1.813      2.588
REMARK  Name = 
REMARK  5 active torsions:
REMARK  status: ('A' for Active; 'I' for Inactive)
REMARK    1  A    between atoms: C_2  and  C_17
REMARK    2  A    between atoms: N_3  and  C_4
REMARK    3  A    between atoms: C_8  and  C_10
REMARK    4  A    between atoms: N_25  and  C_26
REMARK    5  A    between atoms: C_26  and  C_27
REMARK                            x       y       z     vdW  Elec       q    Type
REMARK                         _______ _______ _______ _____ _____    ______ ____
ROOT
ATOM      1  O   UNL     1       2.090   7.102  20.288  0.00  0.00    +0.000 OA
ATOM      2  C   UNL     1       2.369   7.525  19.173  0.00  0.00    +0.000 C 
ATOM      3  N   UNL     1       1.797   8.683  18.700  0.00  0.00    +0.000 N 
ATOM      4  H   UNL     1       2.069   9.018  17.787  0.00  0.00    +0.000 HD
ENDROOT
BRANCH   2   5
ATOM      5  C   UNL     1       3.323   6.858  18.301  0.00  0.00    +0.000 A 
ATOM      6  C   UNL     1       4.582   7.260  17.870  0.00  0.00    +0.000 A 
ATOM      7  C   UNL     1       5.158   6.220  17.092  0.00  0.00    +0.000 A 
ATOM      8  C   UNL     1       6.411   6.043  16.471  0.00  0.00    +0.000 A 
ATOM      9  C   UNL     1       6.665   4.869  15.753  0.00  0.00    +0.000 A 
ATOM     10  C   UNL     1       5.683   3.893  15.621  0.00  0.00    +0.000 A 
ATOM     11  C   UNL     1       4.436   4.047  16.231  0.00  0.00    +0.000 A 
ATOM     12  C   UNL     1       4.205   5.209  16.989  0.00  0.00    +0.000 A 
ATOM     13  N   UNL     1       3.119   5.594  17.756  0.00  0.00    +0.000 N 
BRANCH  13  14
ATOM     14  C   UNL     1       1.976   4.711  18.037  0.00  0.00    +0.000 C 
BRANCH  14  15
ATOM     15  C   UNL     1       2.125   3.890  19.297  0.00  0.00    +0.000 A 
ATOM     16  C   UNL     1       3.353   3.341  19.692  0.00  0.00    +0.000 A 
ATOM     17  C   UNL     1       3.457   2.595  20.868  0.00  0.00    +0.000 A 
ATOM     18  C   UNL     1       2.340   2.405  21.678  0.00  0.00    +0.000 A 
ATOM     19  C   UNL     1       1.122   2.975  21.321  0.00  0.00    +0.000 A 
ATOM     20  C   UNL     1       1.016   3.717  20.142  0.00  0.00    +0.000 A 
ENDBRANCH  14  15
ENDBRANCH  13  14
ENDBRANCH   2   5
BRANCH   3  21
ATOM     21  C   UNL     1       0.878   9.520  19.479  0.00  0.00    +0.000 C 
ATOM     22  C   UNL     1      -0.538   9.572  18.880  0.00  0.00    +0.000 C 
ATOM     23  C   UNL     1      -0.782  10.784  17.989  0.00  0.00    +0.000 C 
ATOM     24  N   UNL     1      -0.410  12.000  18.694  0.00  0.00    +0.000 N 
ATOM     25  C   UNL     1      -1.414  12.802  19.256  0.00  0.00    +0.000 C 
ATOM     26  O   UNL     1      -2.587  12.423  19.253  0.00  0.00    +0.000 OA
ATOM     27  C   UNL     1       1.012  12.084  19.011  0.00  0.00    +0.000 C 
ATOM     28  C   UNL     1       1.453  10.896  19.872  0.00  0.00    +0.000 C 
BRANCH  25  29
ATOM     29  C   UNL     1      -1.047  14.067  19.871  0.00  0.00    +0.000 A 
ATOM     30  C   UNL     1      -1.073  14.457  21.200  0.00  0.00    +0.000 A 
ATOM     31  C   UNL     1      -0.598  15.790  21.248  0.00  0.00    +0.000 A 
ATOM     32  C   UNL     1      -0.359  16.155  19.946  0.00  0.00    +0.000 A 
ATOM     33  O   UNL     1      -0.659  15.136  19.104  0.00  0.00    +0.000 OA
ENDBRANCH  25  29
ENDBRANCH   3  21
TORSDOF 5
ENDMDL
MODEL 4
REMARK VINA RESULT:      -7.9      2.355      9.375
REMARK  Name = 
REMARK  5 active torsions:
REMARK  status: ('A' for Active; 'I' for Inactive)
REMARK    1  A    between atoms: C_2  and  C_17
REMARK    2  A    between atoms: N_3  and  C_4
REMARK    3  A    between atoms: C_8  and  C_10
REMARK    4  A    between atoms: N_25  and  C_26
REMARK    5  A    between atoms: C_26  and  C_27
REMARK                            x       y       z     vdW  Elec       q    Type
REMARK                         _______ _______ _______ _____ _____    ______ ____
ROOT
ATOM      1  O   UNL     1       1.099  12.124  21.439  0.00  0.00    +0.000 OA
ATOM      2  C   UNL     1       0.155  11.344  21.431  0.00  0.00    +0.000 C 
ATOM      3  N   UNL     1       0.312  10.059  20.967  0.00  0.00    +0.000 N 
ATOM      4  H   UNL     1      -0.481   9.434  20.998  0.00  0.00    +0.000 HD
ENDROOT
BRANCH   2   5
ATOM      5  C   UNL     1      -1.163  11.710  21.924  0.00  0.00    +0.000 A 
ATOM      6  C   UNL     1      -1.715  11.586  23.195  0.00  0.00    +0.000 A 
ATOM      7  C   UNL     1      -3.013  12.165  23.193  0.00  0.00    +0.000 A 
ATOM      8  C   UNL     1      -3.986  12.385  24.188  0.00  0.00    +0.000 A 
ATOM      9  C   UNL     1      -5.199  12.994  23.844  0.00  0.00    +0.000 A 
ATOM     10  C   UNL     1      -5.463  13.351  22.527  0.00  0.00    +0.000 A 
ATOM     11  C   UNL     1      -4.511  13.144  21.526  0.00  0.00    +0.000 A 
ATOM     12  C   UNL     1      -3.278  12.575  21.888  0.00  0.00    +0.000 A 
ATOM     13  N   UNL     1      -2.137  12.328  21.145  0.00  0.00    +0.000 N 
BRANCH  13  14
ATOM     14  C   UNL     1      -1.965  12.782  19.756  0.00  0.00    +0.000 C 
BRANCH  14  15
ATOM     15  C   UNL     1      -2.388  11.769  18.717  0.00  0.00    +0.000 A 
ATOM     16  C   UNL     1      -1.469  10.922  18.081  0.00  0.00    +0.000 A 
ATOM     17  C   UNL     1      -1.895   9.990  17.132  0.00  0.00    +0.000 A 
ATOM     18  C   UNL     1      -3.248   9.876  16.821  0.00  0.00    +0.000 A 
ATOM     19  C   UNL     1      -4.178  10.681  17.472  0.00  0.00    +0.000 A 
ATOM     20  C   UNL     1      -3.752  11.617  18.417  0.00  0.00    +0.000 A 
ENDBRANCH  14  15
ENDBRANCH  13  14
ENDBRANCH   2   5
BRANCH   3  21
ATOM     21  C   UNL     1       1.590   9.505  20.509  0.00  0.00    +0.000 C 
ATOM     22  C   UNL     1       1.879   9.809  19.028  0.00  0.00    +0.000 C 
ATOM     23  C   UNL     1       1.478   8.685  18.082  0.00  0.00    +0.000 C 
ATOM     24  N   UNL     1       2.052   7.428  18.534  0.00  0.00    +0.000 N 
ATOM     25  C   UNL     1       3.193   6.924  17.891  0.00  0.00    +0.000 C 
ATOM     26  O   UNL     1       3.769   7.595  17.031  0.00  0.00    +0.000 OA
ATOM     27  C   UNL     1       1.550   6.985  19.829  0.00  0.00    +0.000 C 
ATOM     28  C   UNL     1       1.824   8.035  20.912  0.00  0.00    +0.000 C 
BRANCH  25  29
ATOM     29  C   UNL     1       3.704   5.620  18.277  0.00  0.00    +0.000 A 
ATOM     30  C   UNL     1       3.328   4.353  17.865  0.00  0.00    +0.000 A 
ATOM     31  C   UNL     1       4.161   3.433  18.545  0.00  0.00    +0.000 A 
ATOM     32  C   UNL     1       4.962   4.184  19.370  0.00  0.00    +0.000 A 
ATOM     33  O   UNL     1       4.672   5.502  19.242  0.00  0.00    +0.000 OA
ENDBRANCH  25  29
ENDBRANCH   3  21
TORSDOF 5
ENDMDL
MODEL 5
REMARK VINA RESULT:      -7.9      1.913      2.581
REMARK  Name = 
REMARK  5 active torsions:
REMARK  status: ('A' for Active; 'I' for Inactive)
REMARK    1  A    between atoms: C_2  and  C_17
REMARK    2  A    between atoms: N_3  and  C_4
REMARK    3  A    between atoms: C_8  and  C_10
REMARK    4  A    between atoms: N_25  and  C_26
REMARK    5  A    between atoms: C_26  and  C_27
REMARK                            x       y       z     vdW  Elec       q    Type
REMARK                         _______ _______ _______ _____ _____    ______ ____
ROOT
ATOM      1  O   UNL     1       2.127   7.065  20.197  0.00  0.00    +0.000 OA
ATOM      2  C   UNL     1       2.400   7.506  19.087  0.00  0.00    +0.000 C 
ATOM      3  N   UNL     1       1.811   8.662  18.630  0.00  0.00    +0.000 N 
ATOM      4  H   UNL     1       2.077   9.012  17.721  0.00  0.00    +0.000 HD
ENDROOT
BRANCH   2   5
ATOM      5  C   UNL     1       3.363   6.865  18.207  0.00  0.00    +0.000 A 
ATOM      6  C   UNL     1       4.619   7.288  17.786  0.00  0.00    +0.000 A 
ATOM      7  C   UNL     1       5.208   6.267  16.992  0.00  0.00    +0.000 A 
ATOM      8  C   UNL     1       6.464   6.115  16.371  0.00  0.00    +0.000 A 
ATOM      9  C   UNL     1       6.733   4.956  15.635  0.00  0.00    +0.000 A 
ATOM     10  C   UNL     1       5.763   3.971  15.484  0.00  0.00    +0.000 A 
ATOM     11  C   UNL     1       4.513   4.102  16.093  0.00  0.00    +0.000 A 
ATOM     12  C   UNL     1       4.267   5.248  16.870  0.00  0.00    +0.000 A 
ATOM     13  N   UNL     1       3.175   5.608  17.640  0.00  0.00    +0.000 N 
BRANCH  13  14
ATOM     14  C   UNL     1       2.042   4.707  17.903  0.00  0.00    +0.000 C 
BRANCH  14  15
ATOM     15  C   UNL     1       2.142   3.952  19.209  0.00  0.00    +0.000 A 
ATOM     16  C   UNL     1       1.037   3.764  20.051  0.00  0.00    +0.000 A 
ATOM     17  C   UNL     1       1.162   3.053  21.247  0.00  0.00    +0.000 A 
ATOM     18  C   UNL     1       2.389   2.501  21.607  0.00  0.00    +0.000 A 
ATOM     19  C   UNL     1       3.487   2.644  20.764  0.00  0.00    +0.000 A 
ATOM     20  C   UNL     1       3.363   3.360  19.571  0.00  0.00    +0.000 A 
ENDBRANCH  14  15
ENDBRANCH  13  14
ENDBRANCH   2   5
BRANCH   3  21
ATOM     21  C   UNL     1       0.880   9.474  19.419  0.00  0.00    +0.000 C 
ATOM     22  C   UNL     1      -0.510   9.594  18.770  0.00  0.00    +0.000 C 
ATOM     23  C   UNL     1      -0.694  10.858  17.942  0.00  0.00    +0.000 C 
ATOM     24  N   UNL     1      -0.323  12.025  18.729  0.00  0.00    +0.000 N 
ATOM     25  C   UNL     1      -1.332  12.817  19.296  0.00  0.00    +0.000 C 
ATOM     26  O   UNL     1      -2.512  12.466  19.227  0.00  0.00    +0.000 OA
ATOM     27  C   UNL     1       1.086  12.057  19.103  0.00  0.00    +0.000 C 
ATOM     28  C   UNL     1       1.468  10.812  19.912  0.00  0.00    +0.000 C 
BRANCH  25  29
ATOM     29  C   UNL     1      -0.963  14.036  19.996  0.00  0.00    +0.000 A 
ATOM     30  C   UNL     1      -0.607  15.280  19.501  0.00  0.00    +0.000 A 
ATOM     31  C   UNL     1      -0.359  16.113  20.618  0.00  0.00    +0.000 A 
ATOM     32  C   UNL     1      -0.526  15.321  21.727  0.00  0.00    +0.000 A 
ATOM     33  O   UNL     1      -0.857  14.058  21.363  0.00  0.00    +0.000 OA
ENDBRANCH  25  29
ENDBRANCH   3  21
TORSDOF 5
ENDMDL
MODEL 6
REMARK VINA RESULT:      -7.8      1.707      2.242
REMARK  Name = 
REMARK  5 active torsions:
REMARK  status: ('A' for Active; 'I' for Inactive)
REMARK    1  A    between atoms: C_2  and  C_17
REMARK    2  A    between atoms: N_3  and  C_4
REMARK    3  A    between atoms: C_8  and  C_10
REMARK    4  A    between atoms: N_25  and  C_26
REMARK    5  A    between atoms: C_26  and  C_27
REMARK                            x       y       z     vdW  Elec       q    Type
REMARK                         _______ _______ _______ _____ _____    ______ ____
ROOT
ATOM      1  O   UNL     1       1.828   7.062  20.422  0.00  0.00    +0.000 OA
ATOM      2  C   UNL     1       2.097   7.543  19.329  0.00  0.00    +0.000 C 
ATOM      3  N   UNL     1       1.449   8.671  18.882  0.00  0.00    +0.000 N 
ATOM      4  H   UNL     1       1.713   9.057  17.987  0.00  0.00    +0.000 HD
ENDROOT
BRANCH   2   5
ATOM      5  C   UNL     1       3.116   6.980  18.457  0.00  0.00    +0.000 A 
ATOM      6  C   UNL     1       4.353   7.488  18.074  0.00  0.00    +0.000 A 
ATOM      7  C   UNL     1       5.019   6.522  17.272  0.00  0.00    +0.000 A 
ATOM      8  C   UNL     1       6.295   6.459  16.677  0.00  0.00    +0.000 A 
ATOM      9  C   UNL     1       6.649   5.334  15.923  0.00  0.00    +0.000 A 
ATOM     10  C   UNL     1       5.743   4.297  15.729  0.00  0.00    +0.000 A 
ATOM     11  C   UNL     1       4.475   4.339  16.313  0.00  0.00    +0.000 A 
ATOM     12  C   UNL     1       4.144   5.451  17.107  0.00  0.00    +0.000 A 
ATOM     13  N   UNL     1       3.016   5.727  17.860  0.00  0.00    +0.000 N 
BRANCH  13  14
ATOM     14  C   UNL     1       1.934   4.755  18.078  0.00  0.00    +0.000 C 
BRANCH  14  15
ATOM     15  C   UNL     1       2.108   3.903  19.315  0.00  0.00    +0.000 A 
ATOM     16  C   UNL     1       3.345   3.351  19.675  0.00  0.00    +0.000 A 
ATOM     17  C   UNL     1       3.474   2.577  20.830  0.00  0.00    +0.000 A 
ATOM     18  C   UNL     1       2.372   2.361  21.654  0.00  0.00    +0.000 A 
ATOM     19  C   UNL     1       1.145   2.934  21.333  0.00  0.00    +0.000 A 
ATOM     20  C   UNL     1       1.015   3.705  20.175  0.00  0.00    +0.000 A 
ENDBRANCH  14  15
ENDBRANCH  13  14
ENDBRANCH   2   5
BRANCH   3  21
ATOM     21  C   UNL     1       0.454   9.409  19.667  0.00  0.00    +0.000 C 
ATOM     22  C   UNL     1      -0.674  10.000  18.802  0.00  0.00    +0.000 C 
ATOM     23  C   UNL     1      -0.449  11.455  18.413  0.00  0.00    +0.000 C 
ATOM     24  N   UNL     1      -0.157  12.246  19.598  0.00  0.00    +0.000 N 
ATOM     25  C   UNL     1      -1.168  13.044  20.156  0.00  0.00    +0.000 C 
ATOM     26  O   UNL     1      -2.318  12.987  19.716  0.00  0.00    +0.000 OA
ATOM     27  C   UNL     1       1.084  11.870  20.264  0.00  0.00    +0.000 C 
ATOM     28  C   UNL     1       1.057  10.397  20.686  0.00  0.00    +0.000 C 
BRANCH  25  29
ATOM     29  C   UNL     1      -0.846  13.909  21.278  0.00  0.00    +0.000 A 
ATOM     30  C   UNL     1      -0.178  15.121  21.311  0.00  0.00    +0.000 A 
ATOM     31  C   UNL     1      -0.152  15.542  22.662  0.00  0.00    +0.000 A 
ATOM     32  C   UNL     1      -0.759  14.543  23.383  0.00  0.00    +0.000 A 
ATOM     33  O   UNL     1      -1.150  13.537  22.563  0.00  0.00    +0.000 OA
ENDBRANCH  25  29
ENDBRANCH   3  21
TORSDOF 5
ENDMDL
MODEL 7
REMARK VINA RESULT:      -7.8      1.787      4.160
REMARK  Name = 
REMARK  5 active torsions:
REMARK  status: ('A' for Active; 'I' for Inactive)
REMARK    1  A    between atoms: C_2  and  C_17
REMARK    2  A    between atoms: N_3  and  C_4
REMARK    3  A    between atoms: C_8  and  C_10
REMARK    4  A    between atoms: N_25  and  C_26
REMARK    5  A    between atoms: C_26  and  C_27
REMARK                            x       y       z     vdW  Elec       q    Type
REMARK                         _______ _______ _______ _____ _____    ______ ____
ROOT
ATOM      1  O   UNL     1       2.657   8.126  18.500  0.00  0.00    +0.000 OA
ATOM      2  C   UNL     1       2.289   7.355  19.377  0.00  0.00    +0.000 C 
ATOM      3  N   UNL     1       1.703   7.831  20.527  0.00  0.00    +0.000 N 
ATOM      4  H   UNL     1       1.388   7.166  21.219  0.00  0.00    +0.000 HD
ENDROOT
BRANCH   2   5
ATOM      5  C   UNL     1       2.423   5.912  19.255  0.00  0.00    +0.000 A 
ATOM      6  C   UNL     1       1.757   4.887  19.918  0.00  0.00    +0.000 A 
ATOM      7  C   UNL     1       2.184   3.640  19.387  0.00  0.00    +0.000 A 
ATOM      8  C   UNL     1       1.811   2.301  19.617  0.00  0.00    +0.000 A 
ATOM      9  C   UNL     1       2.450   1.275  18.911  0.00  0.00    +0.000 A 
ATOM     10  C   UNL     1       3.470   1.565  18.011  0.00  0.00    +0.000 A 
ATOM     11  C   UNL     1       3.853   2.885  17.766  0.00  0.00    +0.000 A 
ATOM     12  C   UNL     1       3.174   3.912  18.445  0.00  0.00    +0.000 A 
ATOM     13  N   UNL     1       3.278   5.289  18.351  0.00  0.00    +0.000 N 
BRANCH  13  14
ATOM     14  C   UNL     1       4.099   5.968  17.336  0.00  0.00    +0.000 C 
BRANCH  14  15
ATOM     15  C   UNL     1       5.522   6.234  17.769  0.00  0.00    +0.000 A 
ATOM     16  C   UNL     1       6.314   7.223  17.168  0.00  0.00    +0.000 A 
ATOM     17  C   UNL     1       7.624   7.449  17.599  0.00  0.00    +0.000 A 
ATOM     18  C   UNL     1       8.153   6.706  18.651  0.00  0.00    +0.000 A 
ATOM     19  C   UNL     1       7.367   5.748  19.285  0.00  0.00    +0.000 A 
ATOM     20  C   UNL     1       6.060   5.517  18.851  0.00  0.00    +0.000 A 
ENDBRANCH  14  15
ENDBRANCH  13  14
ENDBRANCH   2   5
BRANCH   3  21
ATOM     21  C   UNL     1       1.422   9.248  20.776  0.00  0.00    +0.000 C 
ATOM     22  C   UNL     1       1.380   9.597  22.275  0.00  0.00    +0.000 C 
ATOM     23  C   UNL     1      -0.024   9.598  22.865  0.00  0.00    +0.000 C 
ATOM     24  N   UNL     1      -0.901  10.430  22.055  0.00  0.00    +0.000 N 
ATOM     25  C   UNL     1      -1.224  11.721  22.499  0.00  0.00    +0.000 C 
ATOM     26  O   UNL     1      -0.680  12.187  23.503  0.00  0.00    +0.000 OA
ATOM     27  C   UNL     1      -1.096   9.931  20.699  0.00  0.00    +0.000 C 
ATOM     28  C   UNL     1       0.241   9.813  19.960  0.00  0.00    +0.000 C 
BRANCH  25  29
ATOM     29  C   UNL     1      -2.179  12.510  21.741  0.00  0.00    +0.000 A 
ATOM     30  C   UNL     1      -1.971  13.492  20.786  0.00  0.00    +0.000 A 
ATOM     31  C   UNL     1      -3.248  13.926  20.356  0.00  0.00    +0.000 A 
ATOM     32  C   UNL     1      -4.160  13.224  21.105  0.00  0.00    +0.000 A 
ATOM     33  O   UNL     1      -3.527  12.393  21.967  0.00  0.00    +0.000 OA
ENDBRANCH  25  29
ENDBRANCH   3  21
TORSDOF 5
ENDMDL
MODEL 8
REMARK VINA RESULT:      -7.7      1.816      4.153
REMARK  Name = 
REMARK  5 active torsions:
REMARK  status: ('A' for Active; 'I' for Inactive)
REMARK    1  A    between atoms: C_2  and  C_17
REMARK    2  A    between atoms: N_3  and  C_4
REMARK    3  A    between atoms: C_8  and  C_10
REMARK    4  A    between atoms: N_25  and  C_26
REMARK    5  A    between atoms: C_26  and  C_27
REMARK                            x       y       z     vdW  Elec       q    Type
REMARK                         _______ _______ _______ _____ _____    ______ ____
ROOT
ATOM      1  O   UNL     1       2.595   8.039  18.750  0.00  0.00    +0.000 OA
ATOM      2  C   UNL     1       2.262   7.246  19.622  0.00  0.00    +0.000 C 
ATOM      3  N   UNL     1       1.791   7.694  20.833  0.00  0.00    +0.000 N 
ATOM      4  H   UNL     1       1.501   7.014  21.520  0.00  0.00    +0.000 HD
ENDROOT
BRANCH   2   5
ATOM      5  C   UNL     1       2.319   5.806  19.429  0.00  0.00    +0.000 A 
ATOM      6  C   UNL     1       1.295   4.869  19.333  0.00  0.00    +0.000 A 
ATOM      7  C   UNL     1       1.860   3.594  19.064  0.00  0.00    +0.000 A 
ATOM      8  C   UNL     1       1.317   2.319  18.804  0.00  0.00    +0.000 A 
ATOM      9  C   UNL     1       2.175   1.237  18.578  0.00  0.00    +0.000 A 
ATOM     10  C   UNL     1       3.554   1.402  18.640  0.00  0.00    +0.000 A 
ATOM     11  C   UNL     1       4.113   2.656  18.893  0.00  0.00    +0.000 A 
ATOM     12  C   UNL     1       3.245   3.747  19.072  0.00  0.00    +0.000 A 
ATOM     13  N   UNL     1       3.503   5.095  19.257  0.00  0.00    +0.000 N 
BRANCH  13  14
ATOM     14  C   UNL     1       4.849   5.679  19.153  0.00  0.00    +0.000 C 
BRANCH  14  15
ATOM     15  C   UNL     1       5.505   5.486  17.805  0.00  0.00    +0.000 A 
ATOM     16  C   UNL     1       6.717   4.798  17.654  0.00  0.00    +0.000 A 
ATOM     17  C   UNL     1       7.291   4.628  16.392  0.00  0.00    +0.000 A 
ATOM     18  C   UNL     1       6.651   5.126  15.260  0.00  0.00    +0.000 A 
ATOM     19  C   UNL     1       5.428   5.777  15.387  0.00  0.00    +0.000 A 
ATOM     20  C   UNL     1       4.856   5.951  16.649  0.00  0.00    +0.000 A 
ENDBRANCH  14  15
ENDBRANCH  13  14
ENDBRANCH   2   5
BRANCH   3  21
ATOM     21  C   UNL     1       1.596   9.110  21.162  0.00  0.00    +0.000 C 
ATOM     22  C   UNL     1       1.231   9.337  22.640  0.00  0.00    +0.000 C 
ATOM     23  C   UNL     1      -0.267   9.456  22.891  0.00  0.00    +0.000 C 
ATOM     24  N   UNL     1      -0.841  10.450  21.996  0.00  0.00    +0.000 N 
ATOM     25  C   UNL     1      -1.135  11.729  22.491  0.00  0.00    +0.000 C 
ATOM     26  O   UNL     1      -0.804  12.044  23.637  0.00  0.00    +0.000 OA
ATOM     27  C   UNL     1      -0.754  10.090  20.586  0.00  0.00    +0.000 C 
ATOM     28  C   UNL     1       0.704   9.875  20.164  0.00  0.00    +0.000 C 
BRANCH  25  29
ATOM     29  C   UNL     1      -1.801  12.686  21.624  0.00  0.00    +0.000 A 
ATOM     30  C   UNL     1      -1.303  13.802  20.973  0.00  0.00    +0.000 A 
ATOM     31  C   UNL     1      -2.377  14.371  20.248  0.00  0.00    +0.000 A 
ATOM     32  C   UNL     1      -3.479  13.603  20.536  0.00  0.00    +0.000 A 
ATOM     33  O   UNL     1      -3.150  12.605  21.392  0.00  0.00    +0.000 OA
ENDBRANCH  25  29
ENDBRANCH   3  21
TORSDOF 5
ENDMDL
MODEL 9
REMARK VINA RESULT:      -7.7      3.045      9.446
REMARK  Name = 
REMARK  5 active torsions:
REMARK  status: ('A' for Active; 'I' for Inactive)
REMARK    1  A    between atoms: C_2  and  C_17
REMARK    2  A    between atoms: N_3  and  C_4
REMARK    3  A    between atoms: C_8  and  C_10
REMARK    4  A    between atoms: N_25  and  C_26
REMARK    5  A    between atoms: C_26  and  C_27
REMARK                            x       y       z     vdW  Elec       q    Type
REMARK                         _______ _______ _______ _____ _____    ______ ____
ROOT
ATOM      1  O   UNL     1       2.795   7.533  18.206  0.00  0.00    +0.000 OA
ATOM      2  C   UNL     1       2.451   7.146  19.316  0.00  0.00    +0.000 C 
ATOM      3  N   UNL     1       2.848   5.914  19.781  0.00  0.00    +0.000 N 
ATOM      4  H   UNL     1       2.568   5.636  20.711  0.00  0.00    +0.000 HD
ENDROOT
BRANCH   2   5
ATOM      5  C   UNL     1       1.638   7.956  20.208  0.00  0.00    +0.000 A 
ATOM      6  C   UNL     1       1.378   7.815  21.567  0.00  0.00    +0.000 A 
ATOM      7  C   UNL     1       0.587   8.911  22.002  0.00  0.00    +0.000 A 
ATOM      8  C   UNL     1       0.092   9.323  23.257  0.00  0.00    +0.000 A 
ATOM      9  C   UNL     1      -0.684  10.484  23.345  0.00  0.00    +0.000 A 
ATOM     10  C   UNL     1      -0.998  11.214  22.204  0.00  0.00    +0.000 A 
ATOM     11  C   UNL     1      -0.516  10.825  20.952  0.00  0.00    +0.000 A 
ATOM     12  C   UNL     1       0.302   9.684  20.879  0.00  0.00    +0.000 A 
ATOM     13  N   UNL     1       0.975   9.114  19.812  0.00  0.00    +0.000 N 
BRANCH  13  14
ATOM     14  C   UNL     1       1.060   9.742  18.484  0.00  0.00    +0.000 C 
BRANCH  14  15
ATOM     15  C   UNL     1      -0.253  10.286  17.972  0.00  0.00    +0.000 A 
ATOM     16  C   UNL     1      -0.589  11.644  18.069  0.00  0.00    +0.000 A 
ATOM     17  C   UNL     1      -1.809  12.116  17.576  0.00  0.00    +0.000 A 
ATOM     18  C   UNL     1      -2.700  11.240  16.961  0.00  0.00    +0.000 A 
ATOM     19  C   UNL     1      -2.366   9.897  16.821  0.00  0.00    +0.000 A 
ATOM     20  C   UNL     1      -1.149   9.424  17.318  0.00  0.00    +0.000 A 
ENDBRANCH  14  15
ENDBRANCH  13  14
ENDBRANCH   2   5
BRANCH   3  21
ATOM     21  C   UNL     1       3.733   5.007  19.044  0.00  0.00    +0.000 C 
ATOM     22  C   UNL     1       5.192   5.066  19.530  0.00  0.00    +0.000 C 
ATOM     23  C   UNL     1       6.075   5.996  18.709  0.00  0.00    +0.000 C 
ATOM     24  N   UNL     1       5.952   5.676  17.295  0.00  0.00    +0.000 N 
ATOM     25  C   UNL     1       6.964   4.932  16.670  0.00  0.00    +0.000 C 
ATOM     26  O   UNL     1       7.888   4.458  17.334  0.00  0.00    +0.000 OA
ATOM     27  C   UNL     1       4.616   5.901  16.756  0.00  0.00    +0.000 C 
ATOM     28  C   UNL     1       3.572   5.071  17.511  0.00  0.00    +0.000 C 
BRANCH  25  29
ATOM     29  C   UNL     1       6.888   4.701  15.237  0.00  0.00    +0.000 A 
ATOM     30  C   UNL     1       6.138   3.787  14.517  0.00  0.00    +0.000 A 
ATOM     31  C   UNL     1       6.432   3.998  13.148  0.00  0.00    +0.000 A 
ATOM     32  C   UNL     1       7.381   4.991  13.113  0.00  0.00    +0.000 A 
ATOM     33  O   UNL     1       7.688   5.398  14.368  0.00  0.00    +0.000 OA
ENDBRANCH  25  29
ENDBRANCH   3  21
TORSDOF 5
ENDMDL
