MODEL 1
REMARK VINA RESULT:      -8.4      0.000      0.000
REMARK  Name = 
REMARK  9 active torsions:
REMARK  status: ('A' for Active; 'I' for Inactive)
REMARK    1  A    between atoms: C_1  and  C_2
REMARK    2  A    between atoms: C_5  and  C_6
REMARK    3  A    between atoms: C_7  and  C_8
REMARK    4  A    between atoms: C_8  and  O_9
REMARK    5  A    between atoms: O_9  and  C_10
REMARK    6  A    between atoms: C_13  and  C_14
REMARK    7  A    between atoms: N_16  and  C_17
REMARK    8  A    between atoms: C_22  and  C_23
REMARK    9  A    between atoms: N_25  and  C_26
REMARK                            x       y       z     vdW  Elec       q    Type
REMARK                         _______ _______ _______ _____ _____    ______ ____
ROOT
ATOM      1  C   UNL     1       3.169   6.771  18.793  0.00  0.00    +0.000 C 
ATOM      2  O   UNL     1       3.793   6.146  19.651  0.00  0.00    +0.000 OA
ATOM      3  N   UNL     1       3.369   6.629  17.436  0.00  0.00    +0.000 N 
ATOM      4  H   UNL     1       3.053   7.362  16.814  0.00  0.00    +0.000 HD
ENDROOT
BRANCH   1   8
ATOM      5  C   UNL     1       0.407   9.862  19.908  0.00  0.00    +0.000 A 
ATOM      6  C   UNL     1       0.720   8.872  20.843  0.00  0.00    +0.000 A 
ATOM      7  C   UNL     1       1.605   7.838  20.514  0.00  0.00    +0.000 A 
ATOM      8  C   UNL     1       2.174   7.788  19.235  0.00  0.00    +0.000 A 
ATOM      9  C   UNL     1       1.802   8.748  18.285  0.00  0.00    +0.000 A 
ATOM     10  C   UNL     1       0.918   9.775  18.618  0.00  0.00    +0.000 A 
BRANCH   5  11
ATOM     11  O   UNL     1      -0.410  10.866  20.352  0.00  0.00    +0.000 OA
BRANCH  11  12
ATOM     12  C   UNL     1      -0.800  11.809  19.348  0.00  0.00    +0.000 C 
BRANCH  12  19
ATOM     13  C   UNL     1      -3.281  13.276  20.823  0.00  0.00    +0.000 C 
ATOM     14  C   UNL     1      -3.329  12.337  19.677  0.00  0.00    +0.000 A 
ATOM     15  N   UNL     1      -4.496  12.022  19.107  0.00  0.00    +0.000 NA
ATOM     16  O   UNL     1      -4.190  11.152  18.077  0.00  0.00    +0.000 OA
ATOM     17  C   UNL     1      -2.847  10.954  18.034  0.00  0.00    +0.000 A 
ATOM     18  C   UNL     1      -2.347  10.059  16.974  0.00  0.00    +0.000 C 
ATOM     19  C   UNL     1      -2.243  11.685  19.034  0.00  0.00    +0.000 A 
ENDBRANCH  12  19
ENDBRANCH  11  12
ENDBRANCH   5  11
ENDBRANCH   1   8
BRANCH   3  20
ATOM     20  C   UNL     1       4.300   5.714  16.894  0.00  0.00    +0.000 A 
ATOM     21  C   UNL     1       5.449   6.184  16.242  0.00  0.00    +0.000 A 
ATOM     22  C   UNL     1       6.427   5.290  15.799  0.00  0.00    +0.000 A 
ATOM     23  C   UNL     1       6.256   3.921  15.984  0.00  0.00    +0.000 A 
ATOM     24  C   UNL     1       5.104   3.441  16.610  0.00  0.00    +0.000 A 
ATOM     25  C   UNL     1       4.122   4.331  17.066  0.00  0.00    +0.000 A 
BRANCH  25  26
ATOM     26  C   UNL     1       2.882   3.741  17.655  0.00  0.00    +0.000 C 
ATOM     27  O   UNL     1       1.854   3.697  16.990  0.00  0.00    +0.000 OA
ATOM     28  N   UNL     1       2.988   3.285  18.961  0.00  0.00    +0.000 N 
ATOM     29  H   UNL     1       3.819   3.540  19.489  0.00  0.00    +0.000 HD
BRANCH  28  30
ATOM     30  C   UNL     1       1.866   2.764  19.680  0.00  0.00    +0.000 C 
ATOM     31  C   UNL     1       0.895   3.698  20.350  0.00  0.00    +0.000 C 
ATOM     32  C   UNL     1       1.800   2.837  21.182  0.00  0.00    +0.000 C 
ENDBRANCH  28  30
ENDBRANCH  25  26
ENDBRANCH   3  20
TORSDOF 7
ENDMDL
MODEL 2
REMARK VINA RESULT:      -8.4      0.472      1.509
REMARK  Name = 
REMARK  9 active torsions:
REMARK  status: ('A' for Active; 'I' for Inactive)
REMARK    1  A    between atoms: C_1  and  C_2
REMARK    2  A    between atoms: C_5  and  C_6
REMARK    3  A    between atoms: C_7  and  C_8
REMARK    4  A    between atoms: C_8  and  O_9
REMARK    5  A    between atoms: O_9  and  C_10
REMARK    6  A    between atoms: C_13  and  C_14
REMARK    7  A    between atoms: N_16  and  C_17
REMARK    8  A    between atoms: C_22  and  C_23
REMARK    9  A    between atoms: N_25  and  C_26
REMARK                            x       y       z     vdW  Elec       q    Type
REMARK                         _______ _______ _______ _____ _____    ______ ____
ROOT
ATOM      1  C   UNL     1       3.135   6.706  18.893  0.00  0.00    +0.000 C 
ATOM      2  O   UNL     1       3.780   6.055  19.716  0.00  0.00    +0.000 OA
ATOM      3  N   UNL     1       3.303   6.606  17.528  0.00  0.00    +0.000 N 
ATOM      4  H   UNL     1       2.972   7.358  16.937  0.00  0.00    +0.000 HD
ENDROOT
BRANCH   1   8
ATOM      5  C   UNL     1       0.409   9.762  20.179  0.00  0.00    +0.000 A 
ATOM      6  C   UNL     1       0.694   8.708  21.050  0.00  0.00    +0.000 A 
ATOM      7  C   UNL     1       1.567   7.683  20.663  0.00  0.00    +0.000 A 
ATOM      8  C   UNL     1       2.151   7.709  19.390  0.00  0.00    +0.000 A 
ATOM      9  C   UNL     1       1.806   8.735  18.502  0.00  0.00    +0.000 A 
ATOM     10  C   UNL     1       0.935   9.752  18.892  0.00  0.00    +0.000 A 
BRANCH   5  11
ATOM     11  O   UNL     1      -0.397  10.748  20.679  0.00  0.00    +0.000 OA
BRANCH  11  12
ATOM     12  C   UNL     1      -0.638  11.838  19.782  0.00  0.00    +0.000 C 
BRANCH  12  19
ATOM     13  C   UNL     1      -2.145  10.456  17.272  0.00  0.00    +0.000 C 
ATOM     14  C   UNL     1      -2.735  11.312  18.330  0.00  0.00    +0.000 A 
ATOM     15  N   UNL     1      -4.045  11.576  18.336  0.00  0.00    +0.000 NA
ATOM     16  O   UNL     1      -4.262  12.375  19.443  0.00  0.00    +0.000 OA
ATOM     17  C   UNL     1      -3.087  12.581  20.092  0.00  0.00    +0.000 A 
ATOM     18  C   UNL     1      -3.147  13.404  21.315  0.00  0.00    +0.000 C 
ATOM     19  C   UNL     1      -2.074  11.927  19.426  0.00  0.00    +0.000 A 
ENDBRANCH  12  19
ENDBRANCH  11  12
ENDBRANCH   5  11
ENDBRANCH   1   8
BRANCH   3  20
ATOM     20  C   UNL     1       4.221   5.709  16.935  0.00  0.00    +0.000 A 
ATOM     21  C   UNL     1       5.336   6.202  16.243  0.00  0.00    +0.000 A 
ATOM     22  C   UNL     1       6.305   5.325  15.748  0.00  0.00    +0.000 A 
ATOM     23  C   UNL     1       6.157   3.951  15.922  0.00  0.00    +0.000 A 
ATOM     24  C   UNL     1       5.038   3.450  16.589  0.00  0.00    +0.000 A 
ATOM     25  C   UNL     1       4.065   4.323  17.096  0.00  0.00    +0.000 A 
BRANCH  25  26
ATOM     26  C   UNL     1       2.858   3.711  17.728  0.00  0.00    +0.000 C 
ATOM     27  O   UNL     1       1.796   3.690  17.117  0.00  0.00    +0.000 OA
ATOM     28  N   UNL     1       3.031   3.208  19.010  0.00  0.00    +0.000 N 
ATOM     29  H   UNL     1       3.889   3.444  19.501  0.00  0.00    +0.000 HD
BRANCH  28  30
ATOM     30  C   UNL     1       1.949   2.660  19.767  0.00  0.00    +0.000 C 
ATOM     31  C   UNL     1       1.024   3.567  20.532  0.00  0.00    +0.000 C 
ATOM     32  C   UNL     1       1.968   2.665  21.273  0.00  0.00    +0.000 C 
ENDBRANCH  28  30
ENDBRANCH  25  26
ENDBRANCH   3  20
TORSDOF 7
ENDMDL
MODEL 3
REMARK VINA RESULT:      -8.2      2.005      2.643
REMARK  Name = 
REMARK  9 active torsions:
REMARK  status: ('A' for Active; 'I' for Inactive)
REMARK    1  A    between atoms: C_1  and  C_2
REMARK    2  A    between atoms: C_5  and  C_6
REMARK    3  A    between atoms: C_7  and  C_8
REMARK    4  A    between atoms: C_8  and  O_9
REMARK    5  A    between atoms: O_9  and  C_10
REMARK    6  A    between atoms: C_13  and  C_14
REMARK    7  A    between atoms: N_16  and  C_17
REMARK    8  A    between atoms: C_22  and  C_23
REMARK    9  A    between atoms: N_25  and  C_26
REMARK                            x       y       z     vdW  Elec       q    Type
REMARK                         _______ _______ _______ _____ _____    ______ ____
ROOT
ATOM      1  C   UNL     1       3.111   6.645  19.036  0.00  0.00    +0.000 C 
ATOM      2  O   UNL     1       3.802   5.997  19.823  0.00  0.00    +0.000 OA
ATOM      3  N   UNL     1       3.234   6.576  17.664  0.00  0.00    +0.000 N 
ATOM      4  H   UNL     1       2.862   7.329  17.099  0.00  0.00    +0.000 HD
ENDROOT
BRANCH   1   8
ATOM      5  C   UNL     1       0.358   9.602  20.483  0.00  0.00    +0.000 A 
ATOM      6  C   UNL     1       0.658   8.509  21.299  0.00  0.00    +0.000 A 
ATOM      7  C   UNL     1       1.541   7.514  20.858  0.00  0.00    +0.000 A 
ATOM      8  C   UNL     1       2.119   7.610  19.586  0.00  0.00    +0.000 A 
ATOM      9  C   UNL     1       1.759   8.677  18.752  0.00  0.00    +0.000 A 
ATOM     10  C   UNL     1       0.878   9.663  19.196  0.00  0.00    +0.000 A 
BRANCH   5  11
ATOM     11  O   UNL     1      -0.457  10.552  21.035  0.00  0.00    +0.000 OA
BRANCH  11  12
ATOM     12  C   UNL     1      -0.584  11.754  20.266  0.00  0.00    +0.000 C 
BRANCH  12  19
ATOM     13  C   UNL     1      -1.150  13.422  22.982  0.00  0.00    +0.000 C 
ATOM     14  C   UNL     1      -0.013  13.570  22.043  0.00  0.00    +0.000 A 
ATOM     15  N   UNL     1       0.955  14.460  22.283  0.00  0.00    +0.000 NA
ATOM     16  O   UNL     1       1.852  14.333  21.240  0.00  0.00    +0.000 OA
ATOM     17  C   UNL     1       1.421  13.369  20.386  0.00  0.00    +0.000 A 
ATOM     18  C   UNL     1       2.280  13.092  19.219  0.00  0.00    +0.000 C 
ATOM     19  C   UNL     1       0.233  12.846  20.846  0.00  0.00    +0.000 A 
ENDBRANCH  12  19
ENDBRANCH  11  12
ENDBRANCH   5  11
ENDBRANCH   1   8
BRANCH   3  20
ATOM     20  C   UNL     1       4.154   5.716  17.022  0.00  0.00    +0.000 A 
ATOM     21  C   UNL     1       5.261   6.250  16.347  0.00  0.00    +0.000 A 
ATOM     22  C   UNL     1       6.233   5.406  15.804  0.00  0.00    +0.000 A 
ATOM     23  C   UNL     1       6.097   4.025  15.912  0.00  0.00    +0.000 A 
ATOM     24  C   UNL     1       4.986   3.483  16.560  0.00  0.00    +0.000 A 
ATOM     25  C   UNL     1       4.010   4.322  17.116  0.00  0.00    +0.000 A 
BRANCH  25  26
ATOM     26  C   UNL     1       2.812   3.671  17.725  0.00  0.00    +0.000 C 
ATOM     27  O   UNL     1       1.758   3.633  17.102  0.00  0.00    +0.000 OA
ATOM     28  N   UNL     1       2.985   3.152  19.000  0.00  0.00    +0.000 N 
ATOM     29  H   UNL     1       3.831   3.401  19.505  0.00  0.00    +0.000 HD
BRANCH  28  30
ATOM     30  C   UNL     1       1.908   2.566  19.737  0.00  0.00    +0.000 C 
ATOM     31  C   UNL     1       0.895   3.441  20.424  0.00  0.00    +0.000 C 
ATOM     32  C   UNL     1       1.863   2.635  21.241  0.00  0.00    +0.000 C 
ENDBRANCH  28  30
ENDBRANCH  25  26
ENDBRANCH   3  20
TORSDOF 7
ENDMDL
MODEL 4
REMARK VINA RESULT:      -8.1      2.053      2.872
REMARK  Name = 
REMARK  9 active torsions:
REMARK  status: ('A' for Active; 'I' for Inactive)
REMARK    1  A    between atoms: C_1  and  C_2
REMARK    2  A    between atoms: C_5  and  C_6
REMARK    3  A    between atoms: C_7  and  C_8
REMARK    4  A    between atoms: C_8  and  O_9
REMARK    5  A    between atoms: O_9  and  C_10
REMARK    6  A    between atoms: C_13  and  C_14
REMARK    7  A    between atoms: N_16  and  C_17
REMARK    8  A    between atoms: C_22  and  C_23
REMARK    9  A    between atoms: N_25  and  C_26
REMARK                            x       y       z     vdW  Elec       q    Type
REMARK                         _______ _______ _______ _____ _____    ______ ____
ROOT
ATOM      1  C   UNL     1       3.057   6.613  19.068  0.00  0.00    +0.000 C 
ATOM      2  O   UNL     1       3.708   5.921  19.851  0.00  0.00    +0.000 OA
ATOM      3  N   UNL     1       3.211   6.581  17.698  0.00  0.00    +0.000 N 
ATOM      4  H   UNL     1       2.877   7.361  17.147  0.00  0.00    +0.000 HD
ENDROOT
BRANCH   1   8
ATOM      5  C   UNL     1       0.352   9.608  20.531  0.00  0.00    +0.000 A 
ATOM      6  C   UNL     1       0.636   8.507  21.341  0.00  0.00    +0.000 A 
ATOM      7  C   UNL     1       1.502   7.500  20.896  0.00  0.00    +0.000 A 
ATOM      8  C   UNL     1       2.080   7.592  19.623  0.00  0.00    +0.000 A 
ATOM      9  C   UNL     1       1.736   8.667  18.793  0.00  0.00    +0.000 A 
ATOM     10  C   UNL     1       0.872   9.665  19.242  0.00  0.00    +0.000 A 
BRANCH   5  11
ATOM     11  O   UNL     1      -0.447  10.568  21.087  0.00  0.00    +0.000 OA
BRANCH  11  12
ATOM     12  C   UNL     1      -0.405  11.839  20.428  0.00  0.00    +0.000 C 
BRANCH  12  19
ATOM     13  C   UNL     1       2.143  13.833  20.306  0.00  0.00    +0.000 C 
ATOM     14  C   UNL     1       1.059  13.800  21.318  0.00  0.00    +0.000 A 
ATOM     15  N   UNL     1       1.043  14.680  22.323  0.00  0.00    +0.000 NA
ATOM     16  O   UNL     1      -0.087  14.387  23.063  0.00  0.00    +0.000 OA
ATOM     17  C   UNL     1      -0.741  13.340  22.497  0.00  0.00    +0.000 A 
ATOM     18  C   UNL     1      -1.987  12.908  23.157  0.00  0.00    +0.000 C 
ATOM     19  C   UNL     1      -0.054  12.920  21.379  0.00  0.00    +0.000 A 
ENDBRANCH  12  19
ENDBRANCH  11  12
ENDBRANCH   5  11
ENDBRANCH   1   8
BRANCH   3  20
ATOM     20  C   UNL     1       4.121   5.712  17.052  0.00  0.00    +0.000 A 
ATOM     21  C   UNL     1       5.235   6.236  16.380  0.00  0.00    +0.000 A 
ATOM     22  C   UNL     1       6.196   5.382  15.833  0.00  0.00    +0.000 A 
ATOM     23  C   UNL     1       6.042   4.002  15.935  0.00  0.00    +0.000 A 
ATOM     24  C   UNL     1       4.925   3.471  16.581  0.00  0.00    +0.000 A 
ATOM     25  C   UNL     1       3.960   4.320  17.140  0.00  0.00    +0.000 A 
BRANCH  25  26
ATOM     26  C   UNL     1       2.753   3.681  17.746  0.00  0.00    +0.000 C 
ATOM     27  O   UNL     1       1.694   3.675  17.130  0.00  0.00    +0.000 OA
ATOM     28  N   UNL     1       2.925   3.135  19.011  0.00  0.00    +0.000 N 
ATOM     29  H   UNL     1       3.779   3.359  19.513  0.00  0.00    +0.000 HD
BRANCH  28  30
ATOM     30  C   UNL     1       1.842   2.557  19.745  0.00  0.00    +0.000 C 
ATOM     31  C   UNL     1       0.812   3.438  20.397  0.00  0.00    +0.000 C 
ATOM     32  C   UNL     1       1.774   2.659  21.246  0.00  0.00    +0.000 C 
ENDBRANCH  28  30
ENDBRANCH  25  26
ENDBRANCH   3  20
TORSDOF 7
ENDMDL
MODEL 5
REMARK VINA RESULT:      -8.1      2.391      9.129
REMARK  Name = 
REMARK  9 active torsions:
REMARK  status: ('A' for Active; 'I' for Inactive)
REMARK    1  A    between atoms: C_1  and  C_2
REMARK    2  A    between atoms: C_5  and  C_6
REMARK    3  A    between atoms: C_7  and  C_8
REMARK    4  A    between atoms: C_8  and  O_9
REMARK    5  A    between atoms: O_9  and  C_10
REMARK    6  A    between atoms: C_13  and  C_14
REMARK    7  A    between atoms: N_16  and  C_17
REMARK    8  A    between atoms: C_22  and  C_23
REMARK    9  A    between atoms: N_25  and  C_26
REMARK                            x       y       z     vdW  Elec       q    Type
REMARK                         _______ _______ _______ _____ _____    ______ ____
ROOT
ATOM      1  C   UNL     1       1.430   8.369  20.750  0.00  0.00    +0.000 C 
ATOM      2  O   UNL     1       2.048   8.692  21.766  0.00  0.00    +0.000 OA
ATOM      3  N   UNL     1       0.211   8.900  20.387  0.00  0.00    +0.000 N 
ATOM      4  H   UNL     1      -0.368   8.395  19.728  0.00  0.00    +0.000 HD
ENDROOT
BRANCH   1   8
ATOM      5  C   UNL     1       2.992   5.415  18.055  0.00  0.00    +0.000 A 
ATOM      6  C   UNL     1       2.553   5.007  19.316  0.00  0.00    +0.000 A 
ATOM      7  C   UNL     1       2.050   5.941  20.231  0.00  0.00    +0.000 A 
ATOM      8  C   UNL     1       1.996   7.297  19.883  0.00  0.00    +0.000 A 
ATOM      9  C   UNL     1       2.500   7.703  18.641  0.00  0.00    +0.000 A 
ATOM     10  C   UNL     1       3.001   6.768  17.735  0.00  0.00    +0.000 A 
BRANCH   5  11
ATOM     11  O   UNL     1       3.396   4.417  17.211  0.00  0.00    +0.000 OA
BRANCH  11  12
ATOM     12  C   UNL     1       4.650   3.815  17.552  0.00  0.00    +0.000 C 
BRANCH  12  19
ATOM     13  C   UNL     1       6.712   5.654  19.240  0.00  0.00    +0.000 C 
ATOM     14  C   UNL     1       6.693   5.415  17.777  0.00  0.00    +0.000 A 
ATOM     15  N   UNL     1       7.617   5.969  16.987  0.00  0.00    +0.000 NA
ATOM     16  O   UNL     1       7.325   5.540  15.706  0.00  0.00    +0.000 OA
ATOM     17  C   UNL     1       6.233   4.732  15.736  0.00  0.00    +0.000 A 
ATOM     18  C   UNL     1       5.795   4.170  14.445  0.00  0.00    +0.000 C 
ATOM     19  C   UNL     1       5.784   4.616  17.033  0.00  0.00    +0.000 A 
ENDBRANCH  12  19
ENDBRANCH  11  12
ENDBRANCH   5  11
ENDBRANCH   1   8
BRANCH   3  20
ATOM     20  C   UNL     1      -0.439   9.905  21.139  0.00  0.00    +0.000 A 
ATOM     21  C   UNL     1      -0.540   9.785  22.532  0.00  0.00    +0.000 A 
ATOM     22  C   UNL     1      -1.082  10.823  23.294  0.00  0.00    +0.000 A 
ATOM     23  C   UNL     1      -1.546  11.978  22.669  0.00  0.00    +0.000 A 
ATOM     24  C   UNL     1      -1.472  12.098  21.281  0.00  0.00    +0.000 A 
ATOM     25  C   UNL     1      -0.921  11.065  20.509  0.00  0.00    +0.000 A 
BRANCH  25  26
ATOM     26  C   UNL     1      -0.947  11.229  19.025  0.00  0.00    +0.000 C 
ATOM     27  O   UNL     1       0.092  11.467  18.421  0.00  0.00    +0.000 OA
ATOM     28  N   UNL     1      -2.192  11.111  18.422  0.00  0.00    +0.000 N 
ATOM     29  H   UNL     1      -3.012  11.107  19.022  0.00  0.00    +0.000 HD
BRANCH  28  30
ATOM     30  C   UNL     1      -2.383  11.318  17.020  0.00  0.00    +0.000 C 
ATOM     31  C   UNL     1      -3.717  11.034  16.387  0.00  0.00    +0.000 C 
ATOM     32  C   UNL     1      -2.541  10.157  16.074  0.00  0.00    +0.000 C 
ENDBRANCH  28  30
ENDBRANCH  25  26
ENDBRANCH   3  20
TORSDOF 7
ENDMDL
MODEL 6
REMARK VINA RESULT:      -8.0      2.047      3.045
REMARK  Name = 
REMARK  9 active torsions:
REMARK  status: ('A' for Active; 'I' for Inactive)
REMARK    1  A    between atoms: C_1  and  C_2
REMARK    2  A    between atoms: C_5  and  C_6
REMARK    3  A    between atoms: C_7  and  C_8
REMARK    4  A    between atoms: C_8  and  O_9
REMARK    5  A    between atoms: O_9  and  C_10
REMARK    6  A    between atoms: C_13  and  C_14
REMARK    7  A    between atoms: N_16  and  C_17
REMARK    8  A    between atoms: C_22  and  C_23
REMARK    9  A    between atoms: N_25  and  C_26
REMARK                            x       y       z     vdW  Elec       q    Type
REMARK                         _______ _______ _______ _____ _____    ______ ____
ROOT
ATOM      1  C   UNL     1       3.075   6.947  18.708  0.00  0.00    +0.000 C 
ATOM      2  O   UNL     1       3.692   6.381  19.611  0.00  0.00    +0.000 OA
ATOM      3  N   UNL     1       3.312   6.741  17.365  0.00  0.00    +0.000 N 
ATOM      4  H   UNL     1       2.996   7.434  16.698  0.00  0.00    +0.000 HD
ENDROOT
BRANCH   1   8
ATOM      5  C   UNL     1       0.201  10.014  19.577  0.00  0.00    +0.000 A 
ATOM      6  C   UNL     1       0.617   9.172  20.611  0.00  0.00    +0.000 A 
ATOM      7  C   UNL     1       1.543   8.150  20.366  0.00  0.00    +0.000 A 
ATOM      8  C   UNL     1       2.047   7.962  19.073  0.00  0.00    +0.000 A 
ATOM      9  C   UNL     1       1.572   8.770  18.032  0.00  0.00    +0.000 A 
ATOM     10  C   UNL     1       0.650   9.786  18.282  0.00  0.00    +0.000 A 
BRANCH   5  11
ATOM     11  O   UNL     1      -0.649  11.025  19.936  0.00  0.00    +0.000 OA
BRANCH  11  12
ATOM     12  C   UNL     1      -0.347  12.298  19.353  0.00  0.00    +0.000 C 
BRANCH  12  19
ATOM     13  C   UNL     1       2.667  12.928  18.353  0.00  0.00    +0.000 C 
ATOM     14  C   UNL     1       2.050  13.268  19.658  0.00  0.00    +0.000 A 
ATOM     15  N   UNL     1       2.745  13.936  20.583  0.00  0.00    +0.000 NA
ATOM     16  O   UNL     1       1.887  14.099  21.654  0.00  0.00    +0.000 OA
ATOM     17  C   UNL     1       0.687  13.534  21.365  0.00  0.00    +0.000 A 
ATOM     18  C   UNL     1      -0.356  13.636  22.403  0.00  0.00    +0.000 C 
ATOM     19  C   UNL     1       0.731  12.984  20.102  0.00  0.00    +0.000 A 
ENDBRANCH  12  19
ENDBRANCH  11  12
ENDBRANCH   5  11
ENDBRANCH   1   8
BRANCH   3  20
ATOM     20  C   UNL     1       4.276   5.822  16.892  0.00  0.00    +0.000 A 
ATOM     21  C   UNL     1       5.435   6.286  16.254  0.00  0.00    +0.000 A 
ATOM     22  C   UNL     1       6.443   5.393  15.882  0.00  0.00    +0.000 A 
ATOM     23  C   UNL     1       6.292   4.030  16.124  0.00  0.00    +0.000 A 
ATOM     24  C   UNL     1       5.131   3.555  16.736  0.00  0.00    +0.000 A 
ATOM     25  C   UNL     1       4.119   4.445  17.121  0.00  0.00    +0.000 A 
BRANCH  25  26
ATOM     26  C   UNL     1       2.873   3.857  17.698  0.00  0.00    +0.000 C 
ATOM     27  O   UNL     1       1.842   3.848  17.037  0.00  0.00    +0.000 OA
ATOM     28  N   UNL     1       2.977   3.361  18.990  0.00  0.00    +0.000 N 
ATOM     29  H   UNL     1       3.814   3.588  19.521  0.00  0.00    +0.000 HD
BRANCH  28  30
ATOM     30  C   UNL     1       1.851   2.837  19.699  0.00  0.00    +0.000 C 
ATOM     31  C   UNL     1       0.927   3.761  20.445  0.00  0.00    +0.000 C 
ATOM     32  C   UNL     1       1.815   2.819  21.204  0.00  0.00    +0.000 C 
ENDBRANCH  28  30
ENDBRANCH  25  26
ENDBRANCH   3  20
TORSDOF 7
ENDMDL
MODEL 7
REMARK VINA RESULT:      -8.0      2.403      9.474
REMARK  Name = 
REMARK  9 active torsions:
REMARK  status: ('A' for Active; 'I' for Inactive)
REMARK    1  A    between atoms: C_1  and  C_2
REMARK    2  A    between atoms: C_5  and  C_6
REMARK    3  A    between atoms: C_7  and  C_8
REMARK    4  A    between atoms: C_8  and  O_9
REMARK    5  A    between atoms: O_9  and  C_10
REMARK    6  A    between atoms: C_13  and  C_14
REMARK    7  A    between atoms: N_16  and  C_17
REMARK    8  A    between atoms: C_22  and  C_23
REMARK    9  A    between atoms: N_25  and  C_26
REMARK                            x       y       z     vdW  Elec       q    Type
REMARK                         _______ _______ _______ _____ _____    ______ ____
ROOT
ATOM      1  C   UNL     1       1.102   8.853  20.972  0.00  0.00    +0.000 C 
ATOM      2  O   UNL     1       1.588   9.111  22.074  0.00  0.00    +0.000 OA
ATOM      3  N   UNL     1      -0.019   9.470  20.459  0.00  0.00    +0.000 N 
ATOM      4  H   UNL     1      -0.529   9.019  19.710  0.00  0.00    +0.000 HD
ENDROOT
BRANCH   1   8
ATOM      5  C   UNL     1       2.949   5.619  18.838  0.00  0.00    +0.000 A 
ATOM      6  C   UNL     1       2.849   6.864  18.214  0.00  0.00    +0.000 A 
ATOM      7  C   UNL     1       2.241   7.942  18.870  0.00  0.00    +0.000 A 
ATOM      8  C   UNL     1       1.719   7.768  20.158  0.00  0.00    +0.000 A 
ATOM      9  C   UNL     1       1.766   6.497  20.747  0.00  0.00    +0.000 A 
ATOM     10  C   UNL     1       2.371   5.428  20.088  0.00  0.00    +0.000 A 
BRANCH   5  11
ATOM     11  O   UNL     1       3.624   4.654  18.141  0.00  0.00    +0.000 OA
BRANCH  11  12
ATOM     12  C   UNL     1       4.214   5.101  16.915  0.00  0.00    +0.000 C 
BRANCH  12  19
ATOM     13  C   UNL     1       6.037   4.112  14.429  0.00  0.00    +0.000 C 
ATOM     14  C   UNL     1       6.474   4.426  15.811  0.00  0.00    +0.000 A 
ATOM     15  N   UNL     1       7.763   4.338  16.151  0.00  0.00    +0.000 NA
ATOM     16  O   UNL     1       7.828   4.704  17.482  0.00  0.00    +0.000 OA
ATOM     17  C   UNL     1       6.583   5.012  17.929  0.00  0.00    +0.000 A 
ATOM     18  C   UNL     1       6.477   5.444  19.336  0.00  0.00    +0.000 C 
ATOM     19  C   UNL     1       5.675   4.850  16.906  0.00  0.00    +0.000 A 
ENDBRANCH  12  19
ENDBRANCH  11  12
ENDBRANCH   5  11
ENDBRANCH   1   8
BRANCH   3  20
ATOM     20  C   UNL     1      -0.706  10.498  21.145  0.00  0.00    +0.000 A 
ATOM     21  C   UNL     1      -0.836  10.445  22.540  0.00  0.00    +0.000 A 
ATOM     22  C   UNL     1      -1.417  11.508  23.236  0.00  0.00    +0.000 A 
ATOM     23  C   UNL     1      -1.890  12.620  22.545  0.00  0.00    +0.000 A 
ATOM     24  C   UNL     1      -1.787  12.671  21.154  0.00  0.00    +0.000 A 
ATOM     25  C   UNL     1      -1.198  11.613  20.447  0.00  0.00    +0.000 A 
BRANCH  25  26
ATOM     26  C   UNL     1      -1.194  11.702  18.957  0.00  0.00    +0.000 C 
ATOM     27  O   UNL     1      -0.381  12.424  18.392  0.00  0.00    +0.000 OA
ATOM     28  N   UNL     1      -2.155  10.946  18.300  0.00  0.00    +0.000 N 
ATOM     29  H   UNL     1      -2.900  10.536  18.857  0.00  0.00    +0.000 HD
BRANCH  28  30
ATOM     30  C   UNL     1      -2.320  10.989  16.880  0.00  0.00    +0.000 C 
ATOM     31  C   UNL     1      -3.692  11.127  16.280  0.00  0.00    +0.000 C 
ATOM     32  C   UNL     1      -2.938   9.838  16.131  0.00  0.00    +0.000 C 
ENDBRANCH  28  30
ENDBRANCH  25  26
ENDBRANCH   3  20
TORSDOF 7
ENDMDL
MODEL 8
REMARK VINA RESULT:      -8.0      2.235      2.892
REMARK  Name = 
REMARK  9 active torsions:
REMARK  status: ('A' for Active; 'I' for Inactive)
REMARK    1  A    between atoms: C_1  and  C_2
REMARK    2  A    between atoms: C_5  and  C_6
REMARK    3  A    between atoms: C_7  and  C_8
REMARK    4  A    between atoms: C_8  and  O_9
REMARK    5  A    between atoms: O_9  and  C_10
REMARK    6  A    between atoms: C_13  and  C_14
REMARK    7  A    between atoms: N_16  and  C_17
REMARK    8  A    between atoms: C_22  and  C_23
REMARK    9  A    between atoms: N_25  and  C_26
REMARK                            x       y       z     vdW  Elec       q    Type
REMARK                         _______ _______ _______ _____ _____    ______ ____
ROOT
ATOM      1  C   UNL     1       2.734   7.815  18.021  0.00  0.00    +0.000 C 
ATOM      2  O   UNL     1       2.779   8.290  16.886  0.00  0.00    +0.000 OA
ATOM      3  N   UNL     1       3.367   6.648  18.395  0.00  0.00    +0.000 N 
ATOM      4  H   UNL     1       3.055   6.166  19.229  0.00  0.00    +0.000 HD
ENDROOT
BRANCH   1   8
ATOM      5  C   UNL     1       0.389  10.005  20.872  0.00  0.00    +0.000 A 
ATOM      6  C   UNL     1       0.944   8.784  21.257  0.00  0.00    +0.000 A 
ATOM      7  C   UNL     1       1.704   8.030  20.353  0.00  0.00    +0.000 A 
ATOM      8  C   UNL     1       1.900   8.500  19.048  0.00  0.00    +0.000 A 
ATOM      9  C   UNL     1       1.283   9.694  18.653  0.00  0.00    +0.000 A 
ATOM     10  C   UNL     1       0.527  10.439  19.558  0.00  0.00    +0.000 A 
BRANCH   5  11
ATOM     11  O   UNL     1      -0.274  10.695  21.850  0.00  0.00    +0.000 OA
BRANCH  11  12
ATOM     12  C   UNL     1      -1.049  11.805  21.381  0.00  0.00    +0.000 C 
BRANCH  12  19
ATOM     13  C   UNL     1      -2.702  13.060  23.866  0.00  0.00    +0.000 C 
ATOM     14  C   UNL     1      -1.459  13.577  23.245  0.00  0.00    +0.000 A 
ATOM     15  N   UNL     1      -0.869  14.678  23.721  0.00  0.00    +0.000 NA
ATOM     16  O   UNL     1       0.253  14.873  22.938  0.00  0.00    +0.000 OA
ATOM     17  C   UNL     1       0.331  13.891  22.003  0.00  0.00    +0.000 A 
ATOM     18  C   UNL     1       1.488  13.942  21.091  0.00  0.00    +0.000 C 
ATOM     19  C   UNL     1      -0.738  13.034  22.148  0.00  0.00    +0.000 A 
ENDBRANCH  12  19
ENDBRANCH  11  12
ENDBRANCH   5  11
ENDBRANCH   1   8
BRANCH   3  20
ATOM     20  C   UNL     1       4.168   5.895  17.506  0.00  0.00    +0.000 A 
ATOM     21  C   UNL     1       5.241   6.504  16.841  0.00  0.00    +0.000 A 
ATOM     22  C   UNL     1       6.103   5.744  16.047  0.00  0.00    +0.000 A 
ATOM     23  C   UNL     1       5.888   4.376  15.894  0.00  0.00    +0.000 A 
ATOM     24  C   UNL     1       4.807   3.765  16.532  0.00  0.00    +0.000 A 
ATOM     25  C   UNL     1       3.943   4.519  17.339  0.00  0.00    +0.000 A 
BRANCH  25  26
ATOM     26  C   UNL     1       2.765   3.813  17.926  0.00  0.00    +0.000 C 
ATOM     27  O   UNL     1       1.704   3.787  17.314  0.00  0.00    +0.000 OA
ATOM     28  N   UNL     1       2.963   3.231  19.170  0.00  0.00    +0.000 N 
ATOM     29  H   UNL     1       3.811   3.471  19.678  0.00  0.00    +0.000 HD
BRANCH  28  30
ATOM     30  C   UNL     1       1.907   2.587  19.888  0.00  0.00    +0.000 C 
ATOM     31  C   UNL     1       0.856   3.405  20.587  0.00  0.00    +0.000 C 
ATOM     32  C   UNL     1       1.850   2.621  21.392  0.00  0.00    +0.000 C 
ENDBRANCH  28  30
ENDBRANCH  25  26
ENDBRANCH   3  20
TORSDOF 7
ENDMDL
MODEL 9
REMARK VINA RESULT:      -8.0      1.524      1.825
REMARK  Name = 
REMARK  9 active torsions:
REMARK  status: ('A' for Active; 'I' for Inactive)
REMARK    1  A    between atoms: C_1  and  C_2
REMARK    2  A    between atoms: C_5  and  C_6
REMARK    3  A    between atoms: C_7  and  C_8
REMARK    4  A    between atoms: C_8  and  O_9
REMARK    5  A    between atoms: O_9  and  C_10
REMARK    6  A    between atoms: C_13  and  C_14
REMARK    7  A    between atoms: N_16  and  C_17
REMARK    8  A    between atoms: C_22  and  C_23
REMARK    9  A    between atoms: N_25  and  C_26
REMARK                            x       y       z     vdW  Elec       q    Type
REMARK                         _______ _______ _______ _____ _____    ______ ____
ROOT
ATOM      1  C   UNL     1       2.482   7.977  18.202  0.00  0.00    +0.000 C 
ATOM      2  O   UNL     1       2.543   8.509  17.093  0.00  0.00    +0.000 OA
ATOM      3  N   UNL     1       3.098   6.785  18.521  0.00  0.00    +0.000 N 
ATOM      4  H   UNL     1       2.773   6.264  19.325  0.00  0.00    +0.000 HD
ENDROOT
BRANCH   1   8
ATOM      5  C   UNL     1       0.116  10.042  21.128  0.00  0.00    +0.000 A 
ATOM      6  C   UNL     1       0.737   8.845  21.491  0.00  0.00    +0.000 A 
ATOM      7  C   UNL     1       1.506   8.132  20.561  0.00  0.00    +0.000 A 
ATOM      8  C   UNL     1       1.645   8.618  19.255  0.00  0.00    +0.000 A 
ATOM      9  C   UNL     1       0.964   9.785  18.884  0.00  0.00    +0.000 A 
ATOM     10  C   UNL     1       0.199  10.488  19.814  0.00  0.00    +0.000 A 
BRANCH   5  11
ATOM     11  O   UNL     1      -0.551  10.696  22.128  0.00  0.00    +0.000 OA
BRANCH  11  12
ATOM     12  C   UNL     1      -0.851  12.069  21.851  0.00  0.00    +0.000 C 
BRANCH  12  19
ATOM     13  C   UNL     1      -3.224  12.427  24.024  0.00  0.00    +0.000 C 
ATOM     14  C   UNL     1      -3.336  12.421  22.546  0.00  0.00    +0.000 A 
ATOM     15  N   UNL     1      -4.520  12.603  21.955  0.00  0.00    +0.000 NA
ATOM     16  O   UNL     1      -4.274  12.556  20.595  0.00  0.00    +0.000 OA
ATOM     17  C   UNL     1      -2.949  12.351  20.381  0.00  0.00    +0.000 A 
ATOM     18  C   UNL     1      -2.512  12.293  18.973  0.00  0.00    +0.000 C 
ATOM     19  C   UNL     1      -2.298  12.255  21.591  0.00  0.00    +0.000 A 
ENDBRANCH  12  19
ENDBRANCH  11  12
ENDBRANCH   5  11
ENDBRANCH   1   8
BRANCH   3  20
ATOM     20  C   UNL     1       3.899   6.070  17.602  0.00  0.00    +0.000 A 
ATOM     21  C   UNL     1       4.929   6.724  16.910  0.00  0.00    +0.000 A 
ATOM     22  C   UNL     1       5.794   6.003  16.084  0.00  0.00    +0.000 A 
ATOM     23  C   UNL     1       5.626   4.630  15.925  0.00  0.00    +0.000 A 
ATOM     24  C   UNL     1       4.589   3.974  16.589  0.00  0.00    +0.000 A 
ATOM     25  C   UNL     1       3.721   4.688  17.428  0.00  0.00    +0.000 A 
BRANCH  25  26
ATOM     26  C   UNL     1       2.588   3.934  18.043  0.00  0.00    +0.000 C 
ATOM     27  O   UNL     1       1.482   3.961  17.517  0.00  0.00    +0.000 OA
ATOM     28  N   UNL     1       2.880   3.246  19.213  0.00  0.00    +0.000 N 
ATOM     29  H   UNL     1       3.766   3.441  19.671  0.00  0.00    +0.000 HD
BRANCH  28  30
ATOM     30  C   UNL     1       1.879   2.542  19.954  0.00  0.00    +0.000 C 
ATOM     31  C   UNL     1       0.853   3.299  20.752  0.00  0.00    +0.000 C 
ATOM     32  C   UNL     1       1.907   2.499  21.459  0.00  0.00    +0.000 C 
ENDBRANCH  28  30
ENDBRANCH  25  26
ENDBRANCH   3  20
TORSDOF 7
ENDMDL
