MODEL 1
REMARK VINA RESULT:      -9.3      0.000      0.000
REMARK  Name = 
REMARK  4 active torsions:
REMARK  status: ('A' for Active; 'I' for Inactive)
REMARK    1  A    between atoms: S_2  and  N_4
REMARK    2  A    between atoms: S_2  and  C_16
REMARK    3  A    between atoms: N_4  and  C_5
REMARK    4  A    between atoms: C_7  and  C_8
REMARK                            x       y       z     vdW  Elec       q    Type
REMARK                         _______ _______ _______ _____ _____    ______ ____
ROOT
ATOM      1  N   UNL     1       7.501   4.522  17.646  0.00  0.00    +0.000 N 
ATOM      2  H   UNL     1       7.681   3.623  18.066  0.00  0.00    +0.000 HD
ENDROOT
BRANCH   1   3
ATOM      3  C   UNL     1       7.274   4.579  16.293  0.00  0.00    +0.000 A 
ATOM      4  C   UNL     1       6.641   3.623  15.543  0.00  0.00    +0.000 A 
ATOM      5  C   UNL     1       6.563   4.164  14.226  0.00  0.00    +0.000 A 
ATOM      6  N   UNL     1       7.150   5.373  14.190  0.00  0.00    +0.000 NA
ATOM      7  N   UNL     1       7.582   5.596  15.435  0.00  0.00    +0.000 N 
ATOM      8  H   UNL     1       8.057   6.472  15.632  0.00  0.00    +0.000 HD
BRANCH   5   9
ATOM      9  C   UNL     1       5.920   3.590  13.035  0.00  0.00    +0.000 A 
ATOM     10  C   UNL     1       6.496   2.524  12.326  0.00  0.00    +0.000 A 
ATOM     11  C   UNL     1       5.831   1.951  11.234  0.00  0.00    +0.000 A 
ATOM     12  C   UNL     1       4.589   2.439  10.834  0.00  0.00    +0.000 A 
ATOM     13  C   UNL     1       4.015   3.510  11.511  0.00  0.00    +0.000 A 
ATOM     14  C   UNL     1       4.678   4.083  12.600  0.00  0.00    +0.000 A 
ENDBRANCH   5   9
ENDBRANCH   1   3
BRANCH   1  16
ATOM     15  O   UNL     1       7.422   5.484  19.968  0.00  0.00    +0.000 OA
ATOM     16  S   UNL     1       6.789   5.571  18.673  0.00  0.00    +0.000 S 
ATOM     17  O   UNL     1       6.745   6.857  17.996  0.00  0.00    +0.000 OA
BRANCH  16  18
ATOM     18  C   UNL     1       5.152   4.984  18.761  0.00  0.00    +0.000 C 
ATOM     19  C   UNL     1       4.862   3.716  19.124  0.00  0.00    +0.000 C 
ATOM     20  C   UNL     1       3.432   3.393  19.319  0.00  0.00    +0.000 A 
ATOM     21  C   UNL     1       2.909   2.120  19.090  0.00  0.00    +0.000 A 
ATOM     22  C   UNL     1       1.530   1.909  19.200  0.00  0.00    +0.000 A 
ATOM     23  C   UNL     1       0.678   2.942  19.600  0.00  0.00    +0.000 A 
ATOM     24  C   UNL     1       1.191   4.204  19.869  0.00  0.00    +0.000 A 
ATOM     25  C   UNL     1       2.554   4.442  19.688  0.00  0.00    +0.000 A 
ATOM     26  C   UNL     1       3.101   5.848  19.755  0.00  0.00    +0.000 C 
ATOM     27  C   UNL     1       4.054   5.990  18.570  0.00  0.00    +0.000 C 
ENDBRANCH  16  18
ENDBRANCH   1  16
TORSDOF 4
ENDMDL
MODEL 2
REMARK VINA RESULT:      -9.0      4.537      6.854
REMARK  Name = 
REMARK  4 active torsions:
REMARK  status: ('A' for Active; 'I' for Inactive)
REMARK    1  A    between atoms: S_2  and  N_4
REMARK    2  A    between atoms: S_2  and  C_16
REMARK    3  A    between atoms: N_4  and  C_5
REMARK    4  A    between atoms: C_7  and  C_8
REMARK                            x       y       z     vdW  Elec       q    Type
REMARK                         _______ _______ _______ _____ _____    ______ ____
ROOT
ATOM      1  N   UNL     1       6.237   7.126  16.670  0.00  0.00    +0.000 N 
ATOM      2  H   UNL     1       5.316   7.537  16.693  0.00  0.00    +0.000 HD
ENDROOT
BRANCH   1   3
ATOM      3  C   UNL     1       7.219   7.675  17.458  0.00  0.00    +0.000 A 
ATOM      4  C   UNL     1       7.645   8.976  17.422  0.00  0.00    +0.000 A 
ATOM      5  C   UNL     1       8.602   9.092  18.473  0.00  0.00    +0.000 A 
ATOM      6  N   UNL     1       8.758   7.905  19.086  0.00  0.00    +0.000 NA
ATOM      7  N   UNL     1       7.931   7.067  18.452  0.00  0.00    +0.000 N 
ATOM      8  H   UNL     1       7.887   6.102  18.766  0.00  0.00    +0.000 HD
BRANCH   5   9
ATOM      9  C   UNL     1       9.325  10.288  18.929  0.00  0.00    +0.000 A 
ATOM     10  C   UNL     1       9.382  10.644  20.286  0.00  0.00    +0.000 A 
ATOM     11  C   UNL     1      10.133  11.750  20.702  0.00  0.00    +0.000 A 
ATOM     12  C   UNL     1      10.831  12.516  19.771  0.00  0.00    +0.000 A 
ATOM     13  C   UNL     1      10.766  12.190  18.420  0.00  0.00    +0.000 A 
ATOM     14  C   UNL     1      10.017  11.087  18.003  0.00  0.00    +0.000 A 
ENDBRANCH   5   9
ENDBRANCH   1   3
BRANCH   1  16
ATOM     15  O   UNL     1       5.880   5.340  14.937  0.00  0.00    +0.000 OA
ATOM     16  S   UNL     1       6.212   5.531  16.329  0.00  0.00    +0.000 S 
ATOM     17  O   UNL     1       7.453   4.972  16.841  0.00  0.00    +0.000 OA
BRANCH  16  18
ATOM     18  C   UNL     1       4.927   4.934  17.343  0.00  0.00    +0.000 C 
ATOM     19  C   UNL     1       4.201   5.750  18.137  0.00  0.00    +0.000 C 
ATOM     20  C   UNL     1       3.036   5.146  18.819  0.00  0.00    +0.000 A 
ATOM     21  C   UNL     1       2.575   5.591  20.058  0.00  0.00    +0.000 A 
ATOM     22  C   UNL     1       1.528   4.910  20.692  0.00  0.00    +0.000 A 
ATOM     23  C   UNL     1       0.897   3.830  20.068  0.00  0.00    +0.000 A 
ATOM     24  C   UNL     1       1.321   3.402  18.817  0.00  0.00    +0.000 A 
ATOM     25  C   UNL     1       2.413   4.026  18.214  0.00  0.00    +0.000 A 
ATOM     26  C   UNL     1       3.035   3.445  16.966  0.00  0.00    +0.000 C 
ATOM     27  C   UNL     1       4.546   3.490  17.184  0.00  0.00    +0.000 C 
ENDBRANCH  16  18
ENDBRANCH   1  16
TORSDOF 4
ENDMDL
MODEL 3
REMARK VINA RESULT:      -9.0      0.268      1.000
REMARK  Name = 
REMARK  4 active torsions:
REMARK  status: ('A' for Active; 'I' for Inactive)
REMARK    1  A    between atoms: S_2  and  N_4
REMARK    2  A    between atoms: S_2  and  C_16
REMARK    3  A    between atoms: N_4  and  C_5
REMARK    4  A    between atoms: C_7  and  C_8
REMARK                            x       y       z     vdW  Elec       q    Type
REMARK                         _______ _______ _______ _____ _____    ______ ____
ROOT
ATOM      1  N   UNL     1       7.652   4.675  17.498  0.00  0.00    +0.000 N 
ATOM      2  H   UNL     1       7.959   3.811  17.919  0.00  0.00    +0.000 HD
ENDROOT
BRANCH   1   3
ATOM      3  C   UNL     1       7.348   4.679  16.159  0.00  0.00    +0.000 A 
ATOM      4  C   UNL     1       6.661   3.702  15.487  0.00  0.00    +0.000 A 
ATOM      5  C   UNL     1       6.514   4.188  14.155  0.00  0.00    +0.000 A 
ATOM      6  N   UNL     1       7.112   5.387  14.034  0.00  0.00    +0.000 NA
ATOM      7  N   UNL     1       7.617   5.655  15.242  0.00  0.00    +0.000 N 
ATOM      8  H   UNL     1       8.113   6.531  15.375  0.00  0.00    +0.000 HD
BRANCH   5   9
ATOM      9  C   UNL     1       5.797   3.575  13.028  0.00  0.00    +0.000 A 
ATOM     10  C   UNL     1       4.535   4.033  12.619  0.00  0.00    +0.000 A 
ATOM     11  C   UNL     1       3.902   3.477  11.500  0.00  0.00    +0.000 A 
ATOM     12  C   UNL     1       4.518   2.454  10.781  0.00  0.00    +0.000 A 
ATOM     13  C   UNL     1       5.758   1.973  11.187  0.00  0.00    +0.000 A 
ATOM     14  C   UNL     1       6.390   2.527  12.303  0.00  0.00    +0.000 A 
ENDBRANCH   5   9
ENDBRANCH   1   3
BRANCH   1  16
ATOM     15  O   UNL     1       7.475   5.527  19.857  0.00  0.00    +0.000 OA
ATOM     16  S   UNL     1       6.878   5.654  18.549  0.00  0.00    +0.000 S 
ATOM     17  O   UNL     1       6.813   6.968  17.929  0.00  0.00    +0.000 OA
BRANCH  16  18
ATOM     18  C   UNL     1       5.258   5.015  18.560  0.00  0.00    +0.000 C 
ATOM     19  C   UNL     1       4.959   3.827  19.129  0.00  0.00    +0.000 C 
ATOM     20  C   UNL     1       3.525   3.477  19.218  0.00  0.00    +0.000 A 
ATOM     21  C   UNL     1       3.068   2.159  19.184  0.00  0.00    +0.000 A 
ATOM     22  C   UNL     1       1.691   1.905  19.173  0.00  0.00    +0.000 A 
ATOM     23  C   UNL     1       0.770   2.952  19.261  0.00  0.00    +0.000 A 
ATOM     24  C   UNL     1       1.213   4.267  19.335  0.00  0.00    +0.000 A 
ATOM     25  C   UNL     1       2.581   4.532  19.269  0.00  0.00    +0.000 A 
ATOM     26  C   UNL     1       3.079   5.950  19.122  0.00  0.00    +0.000 C 
ATOM     27  C   UNL     1       4.166   5.910  18.050  0.00  0.00    +0.000 C 
ENDBRANCH  16  18
ENDBRANCH   1  16
TORSDOF 4
ENDMDL
MODEL 4
REMARK VINA RESULT:      -9.0      4.486      6.633
REMARK  Name = 
REMARK  4 active torsions:
REMARK  status: ('A' for Active; 'I' for Inactive)
REMARK    1  A    between atoms: S_2  and  N_4
REMARK    2  A    between atoms: S_2  and  C_16
REMARK    3  A    between atoms: N_4  and  C_5
REMARK    4  A    between atoms: C_7  and  C_8
REMARK                            x       y       z     vdW  Elec       q    Type
REMARK                         _______ _______ _______ _____ _____    ______ ____
ROOT
ATOM      1  N   UNL     1       7.257   5.952  17.770  0.00  0.00    +0.000 N 
ATOM      2  H   UNL     1       7.934   5.298  18.133  0.00  0.00    +0.000 HD
ENDROOT
BRANCH   1   3
ATOM      3  C   UNL     1       7.542   7.293  17.836  0.00  0.00    +0.000 A 
ATOM      4  C   UNL     1       8.474   7.879  18.652  0.00  0.00    +0.000 A 
ATOM      5  C   UNL     1       8.471   9.261  18.301  0.00  0.00    +0.000 A 
ATOM      6  N   UNL     1       7.557   9.490  17.342  0.00  0.00    +0.000 NA
ATOM      7  N   UNL     1       7.002   8.301  17.088  0.00  0.00    +0.000 N 
ATOM      8  H   UNL     1       6.278   8.247  16.378  0.00  0.00    +0.000 HD
BRANCH   5   9
ATOM      9  C   UNL     1       9.328  10.340  18.814  0.00  0.00    +0.000 A 
ATOM     10  C   UNL     1       9.400  10.637  20.184  0.00  0.00    +0.000 A 
ATOM     11  C   UNL     1      10.274  11.625  20.655  0.00  0.00    +0.000 A 
ATOM     12  C   UNL     1      11.081  12.330  19.765  0.00  0.00    +0.000 A 
ATOM     13  C   UNL     1      11.006  12.063  18.401  0.00  0.00    +0.000 A 
ATOM     14  C   UNL     1      10.133  11.078  17.931  0.00  0.00    +0.000 A 
ENDBRANCH   5   9
ENDBRANCH   1   3
BRANCH   1  16
ATOM     15  O   UNL     1       6.160   6.338  15.541  0.00  0.00    +0.000 OA
ATOM     16  S   UNL     1       6.364   5.330  16.554  0.00  0.00    +0.000 S 
ATOM     17  O   UNL     1       6.984   4.070  16.180  0.00  0.00    +0.000 OA
BRANCH  16  18
ATOM     18  C   UNL     1       4.855   4.945  17.334  0.00  0.00    +0.000 C 
ATOM     19  C   UNL     1       4.405   3.676  17.441  0.00  0.00    +0.000 C 
ATOM     20  C   UNL     1       3.197   3.468  18.268  0.00  0.00    +0.000 A 
ATOM     21  C   UNL     1       2.280   2.446  18.019  0.00  0.00    +0.000 A 
ATOM     22  C   UNL     1       1.108   2.368  18.781  0.00  0.00    +0.000 A 
ATOM     23  C   UNL     1       0.877   3.261  19.830  0.00  0.00    +0.000 A 
ATOM     24  C   UNL     1       1.800   4.259  20.114  0.00  0.00    +0.000 A 
ATOM     25  C   UNL     1       2.933   4.391  19.310  0.00  0.00    +0.000 A 
ATOM     26  C   UNL     1       3.836   5.594  19.451  0.00  0.00    +0.000 C 
ATOM     27  C   UNL     1       4.139   6.066  18.031  0.00  0.00    +0.000 C 
ENDBRANCH  16  18
ENDBRANCH   1  16
TORSDOF 4
ENDMDL
MODEL 5
REMARK VINA RESULT:      -8.8      0.571      1.724
REMARK  Name = 
REMARK  4 active torsions:
REMARK  status: ('A' for Active; 'I' for Inactive)
REMARK    1  A    between atoms: S_2  and  N_4
REMARK    2  A    between atoms: S_2  and  C_16
REMARK    3  A    between atoms: N_4  and  C_5
REMARK    4  A    between atoms: C_7  and  C_8
REMARK                            x       y       z     vdW  Elec       q    Type
REMARK                         _______ _______ _______ _____ _____    ______ ____
ROOT
ATOM      1  N   UNL     1       7.465   4.449  17.713  0.00  0.00    +0.000 N 
ATOM      2  H   UNL     1       7.653   3.548  18.125  0.00  0.00    +0.000 HD
ENDROOT
BRANCH   1   3
ATOM      3  C   UNL     1       7.226   4.516  16.363  0.00  0.00    +0.000 A 
ATOM      4  C   UNL     1       6.573   3.572  15.614  0.00  0.00    +0.000 A 
ATOM      5  C   UNL     1       6.490   4.120  14.300  0.00  0.00    +0.000 A 
ATOM      6  N   UNL     1       7.092   5.322  14.265  0.00  0.00    +0.000 NA
ATOM      7  N   UNL     1       7.538   5.533  15.507  0.00  0.00    +0.000 N 
ATOM      8  H   UNL     1       8.027   6.402  15.703  0.00  0.00    +0.000 HD
BRANCH   5   9
ATOM      9  C   UNL     1       5.828   3.561  13.113  0.00  0.00    +0.000 A 
ATOM     10  C   UNL     1       4.579   4.029  12.674  0.00  0.00    +0.000 A 
ATOM     11  C   UNL     1       4.000   3.528  11.502  0.00  0.00    +0.000 A 
ATOM     12  C   UNL     1       4.657   2.550  10.758  0.00  0.00    +0.000 A 
ATOM     13  C   UNL     1       5.885   2.059  11.190  0.00  0.00    +0.000 A 
ATOM     14  C   UNL     1       6.463   2.559  12.360  0.00  0.00    +0.000 A 
ENDBRANCH   5   9
ENDBRANCH   1   3
BRANCH   1  16
ATOM     15  O   UNL     1       7.550   5.578  19.959  0.00  0.00    +0.000 OA
ATOM     16  S   UNL     1       6.758   5.487  18.755  0.00  0.00    +0.000 S 
ATOM     17  O   UNL     1       6.470   6.701  18.007  0.00  0.00    +0.000 OA
BRANCH  16  18
ATOM     18  C   UNL     1       5.230   4.722  19.094  0.00  0.00    +0.000 C 
ATOM     19  C   UNL     1       4.134   5.431  19.443  0.00  0.00    +0.000 C 
ATOM     20  C   UNL     1       2.864   4.680  19.542  0.00  0.00    +0.000 A 
ATOM     21  C   UNL     1       1.842   5.041  20.420  0.00  0.00    +0.000 A 
ATOM     22  C   UNL     1       0.707   4.230  20.532  0.00  0.00    +0.000 A 
ATOM     23  C   UNL     1       0.556   3.097  19.727  0.00  0.00    +0.000 A 
ATOM     24  C   UNL     1       1.549   2.748  18.820  0.00  0.00    +0.000 A 
ATOM     25  C   UNL     1       2.717   3.509  18.758  0.00  0.00    +0.000 A 
ATOM     26  C   UNL     1       3.900   3.031  17.950  0.00  0.00    +0.000 C 
ATOM     27  C   UNL     1       5.130   3.248  18.829  0.00  0.00    +0.000 C 
ENDBRANCH  16  18
ENDBRANCH   1  16
TORSDOF 4
ENDMDL
MODEL 6
REMARK VINA RESULT:      -8.8      4.678      6.901
REMARK  Name = 
REMARK  4 active torsions:
REMARK  status: ('A' for Active; 'I' for Inactive)
REMARK    1  A    between atoms: S_2  and  N_4
REMARK    2  A    between atoms: S_2  and  C_16
REMARK    3  A    between atoms: N_4  and  C_5
REMARK    4  A    between atoms: C_7  and  C_8
REMARK                            x       y       z     vdW  Elec       q    Type
REMARK                         _______ _______ _______ _____ _____    ______ ____
ROOT
ATOM      1  N   UNL     1       7.409   6.120  18.136  0.00  0.00    +0.000 N 
ATOM      2  H   UNL     1       8.036   5.491  18.614  0.00  0.00    +0.000 HD
ENDROOT
BRANCH   1   3
ATOM      3  C   UNL     1       7.715   7.458  18.112  0.00  0.00    +0.000 A 
ATOM      4  C   UNL     1       8.616   8.091  18.928  0.00  0.00    +0.000 A 
ATOM      5  C   UNL     1       8.658   9.442  18.472  0.00  0.00    +0.000 A 
ATOM      6  N   UNL     1       7.798   9.609  17.451  0.00  0.00    +0.000 NA
ATOM      7  N   UNL     1       7.234   8.412  17.262  0.00  0.00    +0.000 N 
ATOM      8  H   UNL     1       6.547   8.313  16.520  0.00  0.00    +0.000 HD
BRANCH   5   9
ATOM      9  C   UNL     1       9.508  10.544  18.943  0.00  0.00    +0.000 A 
ATOM     10  C   UNL     1       9.560  10.909  20.298  0.00  0.00    +0.000 A 
ATOM     11  C   UNL     1      10.428  11.918  20.732  0.00  0.00    +0.000 A 
ATOM     12  C   UNL     1      11.248  12.579  19.820  0.00  0.00    +0.000 A 
ATOM     13  C   UNL     1      11.192  12.246  18.471  0.00  0.00    +0.000 A 
ATOM     14  C   UNL     1      10.326  11.239  18.037  0.00  0.00    +0.000 A 
ENDBRANCH   5   9
ENDBRANCH   1   3
BRANCH   1  16
ATOM     15  O   UNL     1       6.250   6.404  15.922  0.00  0.00    +0.000 OA
ATOM     16  S   UNL     1       6.615   5.407  16.902  0.00  0.00    +0.000 S 
ATOM     17  O   UNL     1       7.420   4.271  16.484  0.00  0.00    +0.000 OA
BRANCH  16  18
ATOM     18  C   UNL     1       5.189   4.766  17.671  0.00  0.00    +0.000 C 
ATOM     19  C   UNL     1       4.541   5.433  18.651  0.00  0.00    +0.000 C 
ATOM     20  C   UNL     1       3.255   4.860  19.103  0.00  0.00    +0.000 A 
ATOM     21  C   UNL     1       2.782   5.007  20.407  0.00  0.00    +0.000 A 
ATOM     22  C   UNL     1       1.605   4.356  20.794  0.00  0.00    +0.000 A 
ATOM     23  C   UNL     1       0.863   3.613  19.871  0.00  0.00    +0.000 A 
ATOM     24  C   UNL     1       1.302   3.491  18.559  0.00  0.00    +0.000 A 
ATOM     25  C   UNL     1       2.514   4.074  18.186  0.00  0.00    +0.000 A 
ATOM     26  C   UNL     1       3.125   3.774  16.838  0.00  0.00    +0.000 C 
ATOM     27  C   UNL     1       4.607   3.509  17.093  0.00  0.00    +0.000 C 
ENDBRANCH  16  18
ENDBRANCH   1  16
TORSDOF 4
ENDMDL
MODEL 7
REMARK VINA RESULT:      -8.8      0.884      1.669
REMARK  Name = 
REMARK  4 active torsions:
REMARK  status: ('A' for Active; 'I' for Inactive)
REMARK    1  A    between atoms: S_2  and  N_4
REMARK    2  A    between atoms: S_2  and  C_16
REMARK    3  A    between atoms: N_4  and  C_5
REMARK    4  A    between atoms: C_7  and  C_8
REMARK                            x       y       z     vdW  Elec       q    Type
REMARK                         _______ _______ _______ _____ _____    ______ ____
ROOT
ATOM      1  N   UNL     1       7.497   5.003  16.946  0.00  0.00    +0.000 N 
ATOM      2  H   UNL     1       7.654   4.198  17.534  0.00  0.00    +0.000 HD
ENDROOT
BRANCH   1   3
ATOM      3  C   UNL     1       7.310   4.805  15.601  0.00  0.00    +0.000 A 
ATOM      4  C   UNL     1       6.525   3.836  15.032  0.00  0.00    +0.000 A 
ATOM      5  C   UNL     1       6.573   4.085  13.628  0.00  0.00    +0.000 A 
ATOM      6  N   UNL     1       7.373   5.135  13.374  0.00  0.00    +0.000 NA
ATOM      7  N   UNL     1       7.815   5.542  14.568  0.00  0.00    +0.000 N 
ATOM      8  H   UNL     1       8.440   6.342  14.605  0.00  0.00    +0.000 HD
BRANCH   5   9
ATOM      9  C   UNL     1       5.857   3.390  12.548  0.00  0.00    +0.000 A 
ATOM     10  C   UNL     1       6.368   2.225  11.954  0.00  0.00    +0.000 A 
ATOM     11  C   UNL     1       5.636   1.544  10.974  0.00  0.00    +0.000 A 
ATOM     12  C   UNL     1       4.390   2.020  10.572  0.00  0.00    +0.000 A 
ATOM     13  C   UNL     1       3.879   3.186  11.134  0.00  0.00    +0.000 A 
ATOM     14  C   UNL     1       4.610   3.866  12.112  0.00  0.00    +0.000 A 
ENDBRANCH   5   9
ENDBRANCH   1   3
BRANCH   1  16
ATOM     15  O   UNL     1       7.658   6.748  18.750  0.00  0.00    +0.000 OA
ATOM     16  S   UNL     1       6.769   6.231  17.735  0.00  0.00    +0.000 S 
ATOM     17  O   UNL     1       6.256   7.137  16.720  0.00  0.00    +0.000 OA
BRANCH  16  18
ATOM     18  C   UNL     1       5.393   5.461  18.475  0.00  0.00    +0.000 C 
ATOM     19  C   UNL     1       4.255   6.136  18.752  0.00  0.00    +0.000 C 
ATOM     20  C   UNL     1       3.107   5.332  19.225  0.00  0.00    +0.000 A 
ATOM     21  C   UNL     1       2.140   5.839  20.092  0.00  0.00    +0.000 A 
ATOM     22  C   UNL     1       1.134   4.995  20.577  0.00  0.00    +0.000 A 
ATOM     23  C   UNL     1       1.050   3.666  20.151  0.00  0.00    +0.000 A 
ATOM     24  C   UNL     1       1.985   3.159  19.257  0.00  0.00    +0.000 A 
ATOM     25  C   UNL     1       3.034   3.974  18.829  0.00  0.00    +0.000 A 
ATOM     26  C   UNL     1       4.182   3.391  18.040  0.00  0.00    +0.000 C 
ATOM     27  C   UNL     1       5.456   3.972  18.652  0.00  0.00    +0.000 C 
ENDBRANCH  16  18
ENDBRANCH   1  16
TORSDOF 4
ENDMDL
MODEL 8
REMARK VINA RESULT:      -8.7      4.774      6.785
REMARK  Name = 
REMARK  4 active torsions:
REMARK  status: ('A' for Active; 'I' for Inactive)
REMARK    1  A    between atoms: S_2  and  N_4
REMARK    2  A    between atoms: S_2  and  C_16
REMARK    3  A    between atoms: N_4  and  C_5
REMARK    4  A    between atoms: C_7  and  C_8
REMARK                            x       y       z     vdW  Elec       q    Type
REMARK                         _______ _______ _______ _____ _____    ______ ____
ROOT
ATOM      1  N   UNL     1       7.752   6.213  18.558  0.00  0.00    +0.000 N 
ATOM      2  H   UNL     1       8.298   5.801  19.300  0.00  0.00    +0.000 HD
ENDROOT
BRANCH   1   3
ATOM      3  C   UNL     1       7.904   7.553  18.300  0.00  0.00    +0.000 A 
ATOM      4  C   UNL     1       8.759   8.405  18.950  0.00  0.00    +0.000 A 
ATOM      5  C   UNL     1       8.629   9.657  18.279  0.00  0.00    +0.000 A 
ATOM      6  N   UNL     1       7.718   9.559  17.295  0.00  0.00    +0.000 NA
ATOM      7  N   UNL     1       7.285   8.295  17.335  0.00  0.00    +0.000 N 
ATOM      8  H   UNL     1       6.585   8.002  16.660  0.00  0.00    +0.000 HD
BRANCH   5   9
ATOM      9  C   UNL     1       9.367  10.906  18.516  0.00  0.00    +0.000 A 
ATOM     10  C   UNL     1       9.107  12.069  17.774  0.00  0.00    +0.000 A 
ATOM     11  C   UNL     1       9.776  13.265  18.064  0.00  0.00    +0.000 A 
ATOM     12  C   UNL     1      10.714  13.312  19.093  0.00  0.00    +0.000 A 
ATOM     13  C   UNL     1      11.000  12.163  19.822  0.00  0.00    +0.000 A 
ATOM     14  C   UNL     1      10.334  10.969  19.533  0.00  0.00    +0.000 A 
ENDBRANCH   5   9
ENDBRANCH   1   3
BRANCH   1  16
ATOM     15  O   UNL     1       7.402   5.834  16.097  0.00  0.00    +0.000 OA
ATOM     16  S   UNL     1       7.392   5.154  17.371  0.00  0.00    +0.000 S 
ATOM     17  O   UNL     1       8.258   4.001  17.561  0.00  0.00    +0.000 OA
BRANCH  16  18
ATOM     18  C   UNL     1       5.774   4.649  17.773  0.00  0.00    +0.000 C 
ATOM     19  C   UNL     1       5.466   4.115  18.975  0.00  0.00    +0.000 C 
ATOM     20  C   UNL     1       4.032   3.883  19.249  0.00  0.00    +0.000 A 
ATOM     21  C   UNL     1       3.580   2.854  20.076  0.00  0.00    +0.000 A 
ATOM     22  C   UNL     1       2.205   2.631  20.213  0.00  0.00    +0.000 A 
ATOM     23  C   UNL     1       1.279   3.467  19.584  0.00  0.00    +0.000 A 
ATOM     24  C   UNL     1       1.715   4.519  18.789  0.00  0.00    +0.000 A 
ATOM     25  C   UNL     1       3.083   4.700  18.586  0.00  0.00    +0.000 A 
ATOM     26  C   UNL     1       3.581   5.687  17.556  0.00  0.00    +0.000 C 
ATOM     27  C   UNL     1       4.691   4.976  16.786  0.00  0.00    +0.000 C 
ENDBRANCH  16  18
ENDBRANCH   1  16
TORSDOF 4
ENDMDL
MODEL 9
REMARK VINA RESULT:      -8.7      4.396      6.570
REMARK  Name = 
REMARK  4 active torsions:
REMARK  status: ('A' for Active; 'I' for Inactive)
REMARK    1  A    between atoms: S_2  and  N_4
REMARK    2  A    between atoms: S_2  and  C_16
REMARK    3  A    between atoms: N_4  and  C_5
REMARK    4  A    between atoms: C_7  and  C_8
REMARK                            x       y       z     vdW  Elec       q    Type
REMARK                         _______ _______ _______ _____ _____    ______ ____
ROOT
ATOM      1  N   UNL     1       6.781   6.395  16.727  0.00  0.00    +0.000 N 
ATOM      2  H   UNL     1       5.932   6.770  16.333  0.00  0.00    +0.000 HD
ENDROOT
BRANCH   1   3
ATOM      3  C   UNL     1       7.542   7.204  17.533  0.00  0.00    +0.000 A 
ATOM      4  C   UNL     1       7.794   8.536  17.328  0.00  0.00    +0.000 A 
ATOM      5  C   UNL     1       8.546   8.960  18.464  0.00  0.00    +0.000 A 
ATOM      6  N   UNL     1       8.755   7.920  19.291  0.00  0.00    +0.000 NA
ATOM      7  N   UNL     1       8.158   6.876  18.707  0.00  0.00    +0.000 N 
ATOM      8  H   UNL     1       8.191   5.976  19.177  0.00  0.00    +0.000 HD
BRANCH   5   9
ATOM      9  C   UNL     1       9.023  10.309  18.797  0.00  0.00    +0.000 A 
ATOM     10  C   UNL     1       8.903  11.379  17.895  0.00  0.00    +0.000 A 
ATOM     11  C   UNL     1       9.304  12.669  18.262  0.00  0.00    +0.000 A 
ATOM     12  C   UNL     1       9.833  12.907  19.528  0.00  0.00    +0.000 A 
ATOM     13  C   UNL     1       9.980  11.854  20.425  0.00  0.00    +0.000 A 
ATOM     14  C   UNL     1       9.581  10.566  20.061  0.00  0.00    +0.000 A 
ENDBRANCH   5   9
ENDBRANCH   1   3
BRANCH   1  16
ATOM     15  O   UNL     1       6.684   4.107  15.687  0.00  0.00    +0.000 OA
ATOM     16  S   UNL     1       6.711   4.782  16.964  0.00  0.00    +0.000 S 
ATOM     17  O   UNL     1       7.762   4.451  17.913  0.00  0.00    +0.000 OA
BRANCH  16  18
ATOM     18  C   UNL     1       5.192   4.572  17.790  0.00  0.00    +0.000 C 
ATOM     19  C   UNL     1       5.068   3.772  18.871  0.00  0.00    +0.000 C 
ATOM     20  C   UNL     1       3.769   3.810  19.577  0.00  0.00    +0.000 A 
ATOM     21  C   UNL     1       3.250   2.709  20.259  0.00  0.00    +0.000 A 
ATOM     22  C   UNL     1       1.970   2.784  20.822  0.00  0.00    +0.000 A 
ATOM     23  C   UNL     1       1.233   3.970  20.764  0.00  0.00    +0.000 A 
ATOM     24  C   UNL     1       1.754   5.086  20.121  0.00  0.00    +0.000 A 
ATOM     25  C   UNL     1       2.996   4.995  19.493  0.00  0.00    +0.000 A 
ATOM     26  C   UNL     1       3.486   6.111  18.601  0.00  0.00    +0.000 C 
ATOM     27  C   UNL     1       4.049   5.440  17.350  0.00  0.00    +0.000 C 
ENDBRANCH  16  18
ENDBRANCH   1  16
TORSDOF 4
ENDMDL
