MODEL 1
REMARK VINA RESULT:      -9.1      0.000      0.000
REMARK  Name = 
REMARK  2 active torsions:
REMARK  status: ('A' for Active; 'I' for Inactive)
REMARK    1  A    between atoms: C_4  and  C_5
REMARK    2  A    between atoms: C_7  and  C_8
REMARK                            x       y       z     vdW  Elec       q    Type
REMARK                         _______ _______ _______ _____ _____    ______ ____
ROOT
ATOM      1  C   UNL     1       4.295   3.757  17.970  0.00  0.00    +0.000 A 
ATOM      2  N   UNL     1       4.329   3.747  16.655  0.00  0.00    +0.000 NA
ATOM      3  C   UNL     1       5.604   4.188  16.378  0.00  0.00    +0.000 A 
ATOM      4  N   UNL     1       6.335   4.454  17.473  0.00  0.00    +0.000 NA
ATOM      5  O   UNL     1       5.469   4.170  18.530  0.00  0.00    +0.000 OA
ENDROOT
BRANCH   1   9
ATOM      6  O   UNL     1       0.119   1.750  18.408  0.00  0.00    +0.000 OA
ATOM      7  C   UNL     1       1.009   2.539  18.663  0.00  0.00    +0.000 C 
ATOM      8  N   UNL     1       2.315   2.433  18.246  0.00  0.00    +0.000 N 
ATOM      9  C   UNL     1       3.171   3.407  18.875  0.00  0.00    +0.000 C 
ATOM     10  C   UNL     1       3.609   2.941  20.287  0.00  0.00    +0.000 C 
ATOM     11  C   UNL     1       2.681   3.754  21.220  0.00  0.00    +0.000 C 
ATOM     12  C   UNL     1       1.211   3.332  21.026  0.00  0.00    +0.000 C 
ATOM     13  C   UNL     1       0.927   3.743  19.573  0.00  0.00    +0.000 C 
ATOM     14  C   UNL     1       2.196   4.557  19.198  0.00  0.00    +0.000 C 
ATOM     15  C   UNL     1       2.685   5.115  20.531  0.00  0.00    +0.000 C 
ATOM     16  H   UNL     1       2.644   1.642  17.702  0.00  0.00    +0.000 HD
ENDBRANCH   1   9
BRANCH   3  17
ATOM     17  C   UNL     1       6.089   4.299  15.008  0.00  0.00    +0.000 A 
ATOM     18  C   UNL     1       5.438   3.593  13.980  0.00  0.00    +0.000 A 
ATOM     19  C   UNL     1       5.917   3.630  12.668  0.00  0.00    +0.000 A 
ATOM     20  C   UNL     1       7.048   4.381  12.379  0.00  0.00    +0.000 A 
ATOM     21  F   UNL     1       7.521   4.401  11.126  0.00  0.00    +0.000 F 
ATOM     22  C   UNL     1       7.688   5.103  13.381  0.00  0.00    +0.000 A 
ATOM     23  F   UNL     1       8.780   5.826  13.095  0.00  0.00    +0.000 F 
ATOM     24  C   UNL     1       7.218   5.071  14.692  0.00  0.00    +0.000 A 
ENDBRANCH   3  17
TORSDOF 2
ENDMDL
MODEL 2
REMARK VINA RESULT:      -9.1      1.475      2.003
REMARK  Name = 
REMARK  2 active torsions:
REMARK  status: ('A' for Active; 'I' for Inactive)
REMARK    1  A    between atoms: C_4  and  C_5
REMARK    2  A    between atoms: C_7  and  C_8
REMARK                            x       y       z     vdW  Elec       q    Type
REMARK                         _______ _______ _______ _____ _____    ______ ____
ROOT
ATOM      1  C   UNL     1       4.117   4.374  17.812  0.00  0.00    +0.000 A 
ATOM      2  N   UNL     1       4.183   4.381  16.499  0.00  0.00    +0.000 NA
ATOM      3  C   UNL     1       5.539   4.429  16.260  0.00  0.00    +0.000 A 
ATOM      4  N   UNL     1       6.284   4.443  17.377  0.00  0.00    +0.000 NA
ATOM      5  O   UNL     1       5.344   4.406  18.407  0.00  0.00    +0.000 OA
ENDROOT
BRANCH   1   9
ATOM      6  O   UNL     1       1.513   6.660  20.920  0.00  0.00    +0.000 OA
ATOM      7  C   UNL     1       2.005   5.689  20.376  0.00  0.00    +0.000 C 
ATOM      8  N   UNL     1       2.617   5.687  19.145  0.00  0.00    +0.000 N 
ATOM      9  C   UNL     1       2.915   4.354  18.684  0.00  0.00    +0.000 C 
ATOM     10  C   UNL     1       1.671   3.690  18.042  0.00  0.00    +0.000 C 
ATOM     11  C   UNL     1       1.165   2.751  19.163  0.00  0.00    +0.000 C 
ATOM     12  C   UNL     1       0.682   3.567  20.378  0.00  0.00    +0.000 C 
ATOM     13  C   UNL     1       1.967   4.257  20.859  0.00  0.00    +0.000 C 
ATOM     14  C   UNL     1       3.063   3.565  20.001  0.00  0.00    +0.000 C 
ATOM     15  C   UNL     1       2.480   2.190  19.695  0.00  0.00    +0.000 C 
ATOM     16  H   UNL     1       2.672   6.521  18.570  0.00  0.00    +0.000 HD
ENDBRANCH   1   9
BRANCH   3  17
ATOM     17  C   UNL     1       6.073   4.419  14.904  0.00  0.00    +0.000 A 
ATOM     18  C   UNL     1       5.467   3.613  13.923  0.00  0.00    +0.000 A 
ATOM     19  C   UNL     1       5.994   3.535  12.632  0.00  0.00    +0.000 A 
ATOM     20  C   UNL     1       7.128   4.271  12.315  0.00  0.00    +0.000 A 
ATOM     21  F   UNL     1       7.647   4.181  11.083  0.00  0.00    +0.000 F 
ATOM     22  C   UNL     1       7.724   5.090  13.269  0.00  0.00    +0.000 A 
ATOM     23  F   UNL     1       8.818   5.798  12.956  0.00  0.00    +0.000 F 
ATOM     24  C   UNL     1       7.205   5.173  14.559  0.00  0.00    +0.000 A 
ENDBRANCH   3  17
TORSDOF 2
ENDMDL
MODEL 3
REMARK VINA RESULT:      -9.1      0.617      1.418
REMARK  Name = 
REMARK  2 active torsions:
REMARK  status: ('A' for Active; 'I' for Inactive)
REMARK    1  A    between atoms: C_4  and  C_5
REMARK    2  A    between atoms: C_7  and  C_8
REMARK                            x       y       z     vdW  Elec       q    Type
REMARK                         _______ _______ _______ _____ _____    ______ ____
ROOT
ATOM      1  C   UNL     1       4.192   3.683  18.076  0.00  0.00    +0.000 A 
ATOM      2  N   UNL     1       4.305   3.560  16.772  0.00  0.00    +0.000 NA
ATOM      3  C   UNL     1       5.512   4.171  16.510  0.00  0.00    +0.000 A 
ATOM      4  N   UNL     1       6.127   4.647  17.606  0.00  0.00    +0.000 NA
ATOM      5  O   UNL     1       5.254   4.324  18.645  0.00  0.00    +0.000 OA
ENDROOT
BRANCH   1   9
ATOM      6  O   UNL     1      -0.045   1.778  18.365  0.00  0.00    +0.000 OA
ATOM      7  C   UNL     1       0.884   2.489  18.700  0.00  0.00    +0.000 C 
ATOM      8  N   UNL     1       2.171   2.402  18.225  0.00  0.00    +0.000 N 
ATOM      9  C   UNL     1       3.083   3.241  18.960  0.00  0.00    +0.000 C 
ATOM     10  C   UNL     1       3.545   2.557  20.271  0.00  0.00    +0.000 C 
ATOM     11  C   UNL     1       2.679   3.254  21.346  0.00  0.00    +0.000 C 
ATOM     12  C   UNL     1       1.189   2.917  21.145  0.00  0.00    +0.000 C 
ATOM     13  C   UNL     1       0.877   3.547  19.780  0.00  0.00    +0.000 C 
ATOM     14  C   UNL     1       2.165   4.364  19.483  0.00  0.00    +0.000 C 
ATOM     15  C   UNL     1       2.716   4.701  20.865  0.00  0.00    +0.000 C 
ATOM     16  H   UNL     1       2.451   1.689  17.560  0.00  0.00    +0.000 HD
ENDBRANCH   1   9
BRANCH   3  17
ATOM     17  C   UNL     1       6.055   4.235  15.159  0.00  0.00    +0.000 A 
ATOM     18  C   UNL     1       7.186   5.033  14.901  0.00  0.00    +0.000 A 
ATOM     19  C   UNL     1       7.691   5.164  13.605  0.00  0.00    +0.000 A 
ATOM     20  C   UNL     1       7.070   4.489  12.562  0.00  0.00    +0.000 A 
ATOM     21  F   UNL     1       7.540   4.630  11.316  0.00  0.00    +0.000 F 
ATOM     22  C   UNL     1       5.966   3.679  12.807  0.00  0.00    +0.000 A 
ATOM     23  F   UNL     1       5.372   3.030  11.796  0.00  0.00    +0.000 F 
ATOM     24  C   UNL     1       5.455   3.543  14.096  0.00  0.00    +0.000 A 
ENDBRANCH   3  17
TORSDOF 2
ENDMDL
MODEL 4
REMARK VINA RESULT:      -9.0      1.609      2.465
REMARK  Name = 
REMARK  2 active torsions:
REMARK  status: ('A' for Active; 'I' for Inactive)
REMARK    1  A    between atoms: C_4  and  C_5
REMARK    2  A    between atoms: C_7  and  C_8
REMARK                            x       y       z     vdW  Elec       q    Type
REMARK                         _______ _______ _______ _____ _____    ______ ____
ROOT
ATOM      1  C   UNL     1       4.130   4.425  17.830  0.00  0.00    +0.000 A 
ATOM      2  N   UNL     1       4.200   4.362  16.518  0.00  0.00    +0.000 NA
ATOM      3  C   UNL     1       5.556   4.421  16.280  0.00  0.00    +0.000 A 
ATOM      4  N   UNL     1       6.298   4.511  17.396  0.00  0.00    +0.000 NA
ATOM      5  O   UNL     1       5.355   4.514  18.424  0.00  0.00    +0.000 OA
ENDROOT
BRANCH   1   9
ATOM      6  O   UNL     1       1.538   6.790  20.888  0.00  0.00    +0.000 OA
ATOM      7  C   UNL     1       2.024   5.806  20.363  0.00  0.00    +0.000 C 
ATOM      8  N   UNL     1       2.638   5.775  19.134  0.00  0.00    +0.000 N 
ATOM      9  C   UNL     1       2.926   4.432  18.698  0.00  0.00    +0.000 C 
ATOM     10  C   UNL     1       1.679   3.765  18.066  0.00  0.00    +0.000 C 
ATOM     11  C   UNL     1       1.163   2.852  19.203  0.00  0.00    +0.000 C 
ATOM     12  C   UNL     1       0.684   3.695  20.401  0.00  0.00    +0.000 C 
ATOM     13  C   UNL     1       1.973   4.383  20.872  0.00  0.00    +0.000 C 
ATOM     14  C   UNL     1       3.065   3.667  20.031  0.00  0.00    +0.000 C 
ATOM     15  C   UNL     1       2.472   2.290  19.749  0.00  0.00    +0.000 C 
ATOM     16  H   UNL     1       2.701   6.598  18.544  0.00  0.00    +0.000 HD
ENDBRANCH   1   9
BRANCH   3  17
ATOM     17  C   UNL     1       6.095   4.347  14.928  0.00  0.00    +0.000 A 
ATOM     18  C   UNL     1       7.231   5.105  14.589  0.00  0.00    +0.000 A 
ATOM     19  C   UNL     1       7.732   5.104  13.285  0.00  0.00    +0.000 A 
ATOM     20  C   UNL     1       7.102   4.335  12.315  0.00  0.00    +0.000 A 
ATOM     21  F   UNL     1       7.569   4.349  11.060  0.00  0.00    +0.000 F 
ATOM     22  C   UNL     1       5.992   3.563  12.642  0.00  0.00    +0.000 A 
ATOM     23  F   UNL     1       5.388   2.823  11.701  0.00  0.00    +0.000 F 
ATOM     24  C   UNL     1       5.484   3.559  13.939  0.00  0.00    +0.000 A 
ENDBRANCH   3  17
TORSDOF 2
ENDMDL
MODEL 5
REMARK VINA RESULT:      -9.0      1.755      2.483
REMARK  Name = 
REMARK  2 active torsions:
REMARK  status: ('A' for Active; 'I' for Inactive)
REMARK    1  A    between atoms: C_4  and  C_5
REMARK    2  A    between atoms: C_7  and  C_8
REMARK                            x       y       z     vdW  Elec       q    Type
REMARK                         _______ _______ _______ _____ _____    ______ ____
ROOT
ATOM      1  C   UNL     1       4.469   4.606  17.699  0.00  0.00    +0.000 A 
ATOM      2  N   UNL     1       4.985   3.916  16.706  0.00  0.00    +0.000 NA
ATOM      3  C   UNL     1       5.276   4.889  15.775  0.00  0.00    +0.000 A 
ATOM      4  N   UNL     1       4.961   6.132  16.176  0.00  0.00    +0.000 NA
ATOM      5  O   UNL     1       4.427   5.947  17.451  0.00  0.00    +0.000 OA
ENDROOT
BRANCH   1   9
ATOM      6  O   UNL     1       4.945   1.616  21.235  0.00  0.00    +0.000 OA
ATOM      7  C   UNL     1       4.350   2.332  20.452  0.00  0.00    +0.000 C 
ATOM      8  N   UNL     1       4.920   3.299  19.659  0.00  0.00    +0.000 N 
ATOM      9  C   UNL     1       3.935   4.114  18.995  0.00  0.00    +0.000 C 
ATOM     10  C   UNL     1       3.403   5.229  19.930  0.00  0.00    +0.000 C 
ATOM     11  C   UNL     1       2.037   4.669  20.391  0.00  0.00    +0.000 C 
ATOM     12  C   UNL     1       2.230   3.399  21.243  0.00  0.00    +0.000 C 
ATOM     13  C   UNL     1       2.854   2.411  20.246  0.00  0.00    +0.000 C 
ATOM     14  C   UNL     1       2.722   3.166  18.895  0.00  0.00    +0.000 C 
ATOM     15  C   UNL     1       1.509   4.069  19.092  0.00  0.00    +0.000 C 
ATOM     16  H   UNL     1       5.911   3.510  19.698  0.00  0.00    +0.000 HD
ENDBRANCH   1   9
BRANCH   3  17
ATOM     17  C   UNL     1       5.906   4.561  14.503  0.00  0.00    +0.000 A 
ATOM     18  C   UNL     1       7.115   5.186  14.144  0.00  0.00    +0.000 A 
ATOM     19  C   UNL     1       7.710   4.939  12.904  0.00  0.00    +0.000 A 
ATOM     20  C   UNL     1       7.101   4.059  12.020  0.00  0.00    +0.000 A 
ATOM     21  F   UNL     1       7.659   3.837  10.824  0.00  0.00    +0.000 F 
ATOM     22  C   UNL     1       5.918   3.416  12.372  0.00  0.00    +0.000 A 
ATOM     23  F   UNL     1       5.334   2.567  11.515  0.00  0.00    +0.000 F 
ATOM     24  C   UNL     1       5.317   3.657  13.606  0.00  0.00    +0.000 A 
ENDBRANCH   3  17
TORSDOF 2
ENDMDL
MODEL 6
REMARK VINA RESULT:      -9.0      1.640      2.047
REMARK  Name = 
REMARK  2 active torsions:
REMARK  status: ('A' for Active; 'I' for Inactive)
REMARK    1  A    between atoms: C_4  and  C_5
REMARK    2  A    between atoms: C_7  and  C_8
REMARK                            x       y       z     vdW  Elec       q    Type
REMARK                         _______ _______ _______ _____ _____    ______ ____
ROOT
ATOM      1  C   UNL     1       4.427   4.580  17.783  0.00  0.00    +0.000 A 
ATOM      2  N   UNL     1       4.998   3.949  16.780  0.00  0.00    +0.000 NA
ATOM      3  C   UNL     1       5.209   4.956  15.864  0.00  0.00    +0.000 A 
ATOM      4  N   UNL     1       4.794   6.163  16.282  0.00  0.00    +0.000 NA
ATOM      5  O   UNL     1       4.276   5.917  17.553  0.00  0.00    +0.000 OA
ENDROOT
BRANCH   1   9
ATOM      6  O   UNL     1       5.082   1.513  21.221  0.00  0.00    +0.000 OA
ATOM      7  C   UNL     1       4.445   2.225  20.468  0.00  0.00    +0.000 C 
ATOM      8  N   UNL     1       4.962   3.238  19.696  0.00  0.00    +0.000 N 
ATOM      9  C   UNL     1       3.933   4.029  19.070  0.00  0.00    +0.000 C 
ATOM     10  C   UNL     1       3.368   5.092  20.045  0.00  0.00    +0.000 C 
ATOM     11  C   UNL     1       2.034   4.460  20.508  0.00  0.00    +0.000 C 
ATOM     12  C   UNL     1       2.293   3.175  21.318  0.00  0.00    +0.000 C 
ATOM     13  C   UNL     1       2.944   2.245  20.284  0.00  0.00    +0.000 C 
ATOM     14  C   UNL     1       2.760   3.033  18.958  0.00  0.00    +0.000 C 
ATOM     15  C   UNL     1       1.513   3.876  19.198  0.00  0.00    +0.000 C 
ATOM     16  H   UNL     1       5.944   3.491  19.728  0.00  0.00    +0.000 HD
ENDBRANCH   1   9
BRANCH   3  17
ATOM     17  C   UNL     1       5.865   4.698  14.588  0.00  0.00    +0.000 A 
ATOM     18  C   UNL     1       5.310   3.761  13.697  0.00  0.00    +0.000 A 
ATOM     19  C   UNL     1       5.949   3.446  12.496  0.00  0.00    +0.000 A 
ATOM     20  C   UNL     1       7.145   4.075  12.177  0.00  0.00    +0.000 A 
ATOM     21  F   UNL     1       7.770   3.760  11.035  0.00  0.00    +0.000 F 
ATOM     22  C   UNL     1       7.693   5.021  13.038  0.00  0.00    +0.000 A 
ATOM     23  F   UNL     1       8.849   5.624  12.725  0.00  0.00    +0.000 F 
ATOM     24  C   UNL     1       7.063   5.340  14.239  0.00  0.00    +0.000 A 
ENDBRANCH   3  17
TORSDOF 2
ENDMDL
MODEL 7
REMARK VINA RESULT:      -8.9      1.321      1.734
REMARK  Name = 
REMARK  2 active torsions:
REMARK  status: ('A' for Active; 'I' for Inactive)
REMARK    1  A    between atoms: C_4  and  C_5
REMARK    2  A    between atoms: C_7  and  C_8
REMARK                            x       y       z     vdW  Elec       q    Type
REMARK                         _______ _______ _______ _____ _____    ______ ____
ROOT
ATOM      1  C   UNL     1       4.679   4.125  18.090  0.00  0.00    +0.000 A 
ATOM      2  N   UNL     1       4.614   4.164  16.777  0.00  0.00    +0.000 NA
ATOM      3  C   UNL     1       5.932   4.328  16.410  0.00  0.00    +0.000 A 
ATOM      4  N   UNL     1       6.781   4.381  17.449  0.00  0.00    +0.000 NA
ATOM      5  O   UNL     1       5.953   4.247  18.564  0.00  0.00    +0.000 OA
ENDROOT
BRANCH   1   9
ATOM      6  O   UNL     1       3.148   2.085  21.983  0.00  0.00    +0.000 OA
ATOM      7  C   UNL     1       3.058   2.608  20.888  0.00  0.00    +0.000 C 
ATOM      8  N   UNL     1       4.048   3.326  20.261  0.00  0.00    +0.000 N 
ATOM      9  C   UNL     1       3.574   3.990  19.073  0.00  0.00    +0.000 C 
ATOM     10  C   UNL     1       2.860   5.321  19.419  0.00  0.00    +0.000 C 
ATOM     11  C   UNL     1       1.363   4.945  19.315  0.00  0.00    +0.000 C 
ATOM     12  C   UNL     1       0.985   3.918  20.400  0.00  0.00    +0.000 C 
ATOM     13  C   UNL     1       1.825   2.691  20.017  0.00  0.00    +0.000 C 
ATOM     14  C   UNL     1       2.398   3.094  18.630  0.00  0.00    +0.000 C 
ATOM     15  C   UNL     1       1.364   4.065  18.070  0.00  0.00    +0.000 C 
ATOM     16  H   UNL     1       4.945   3.501  20.700  0.00  0.00    +0.000 HD
ENDBRANCH   1   9
BRANCH   3  17
ATOM     17  C   UNL     1       6.329   4.389  15.009  0.00  0.00    +0.000 A 
ATOM     18  C   UNL     1       5.635   3.622  14.055  0.00  0.00    +0.000 A 
ATOM     19  C   UNL     1       6.032   3.612  12.715  0.00  0.00    +0.000 A 
ATOM     20  C   UNL     1       7.122   4.377  12.324  0.00  0.00    +0.000 A 
ATOM     21  F   UNL     1       7.517   4.353  11.044  0.00  0.00    +0.000 F 
ATOM     22  C   UNL     1       7.802   5.159  13.252  0.00  0.00    +0.000 A 
ATOM     23  F   UNL     1       8.854   5.896  12.867  0.00  0.00    +0.000 F 
ATOM     24  C   UNL     1       7.414   5.174  14.590  0.00  0.00    +0.000 A 
ENDBRANCH   3  17
TORSDOF 2
ENDMDL
MODEL 8
REMARK VINA RESULT:      -8.8      4.802      7.873
REMARK  Name = 
REMARK  2 active torsions:
REMARK  status: ('A' for Active; 'I' for Inactive)
REMARK    1  A    between atoms: C_4  and  C_5
REMARK    2  A    between atoms: C_7  and  C_8
REMARK                            x       y       z     vdW  Elec       q    Type
REMARK                         _______ _______ _______ _____ _____    ______ ____
ROOT
ATOM      1  C   UNL     1       4.204   5.530  18.429  0.00  0.00    +0.000 A 
ATOM      2  N   UNL     1       3.581   6.688  18.402  0.00  0.00    +0.000 NA
ATOM      3  C   UNL     1       2.717   6.595  19.471  0.00  0.00    +0.000 A 
ATOM      4  N   UNL     1       2.804   5.433  20.138  0.00  0.00    +0.000 NA
ATOM      5  O   UNL     1       3.788   4.725  19.449  0.00  0.00    +0.000 OA
ENDROOT
BRANCH   1   9
ATOM      6  O   UNL     1       8.581   4.027  17.937  0.00  0.00    +0.000 OA
ATOM      7  C   UNL     1       7.538   4.553  17.598  0.00  0.00    +0.000 C 
ATOM      8  N   UNL     1       6.338   4.449  18.260  0.00  0.00    +0.000 N 
ATOM      9  C   UNL     1       5.246   5.012  17.506  0.00  0.00    +0.000 C 
ATOM     10  C   UNL     1       4.721   4.013  16.445  0.00  0.00    +0.000 C 
ATOM     11  C   UNL     1       5.359   4.534  15.136  0.00  0.00    +0.000 C 
ATOM     12  C   UNL     1       6.893   4.395  15.187  0.00  0.00    +0.000 C 
ATOM     13  C   UNL     1       7.284   5.340  16.333  0.00  0.00    +0.000 C 
ATOM     14  C   UNL     1       5.948   6.074  16.635  0.00  0.00    +0.000 C 
ATOM     15  C   UNL     1       5.198   6.041  15.308  0.00  0.00    +0.000 C 
ATOM     16  H   UNL     1       6.230   3.878  19.091  0.00  0.00    +0.000 HD
ENDBRANCH   1   9
BRANCH   3  17
ATOM     17  C   UNL     1       1.837   7.699  19.835  0.00  0.00    +0.000 A 
ATOM     18  C   UNL     1       1.628   8.751  18.925  0.00  0.00    +0.000 A 
ATOM     19  C   UNL     1       0.841   9.853  19.269  0.00  0.00    +0.000 A 
ATOM     20  C   UNL     1       0.252   9.901  20.526  0.00  0.00    +0.000 A 
ATOM     21  F   UNL     1      -0.486  10.966  20.865  0.00  0.00    +0.000 F 
ATOM     22  C   UNL     1       0.431   8.856  21.427  0.00  0.00    +0.000 A 
ATOM     23  F   UNL     1      -0.140   8.909  22.638  0.00  0.00    +0.000 F 
ATOM     24  C   UNL     1       1.215   7.754  21.092  0.00  0.00    +0.000 A 
ENDBRANCH   3  17
TORSDOF 2
ENDMDL
MODEL 9
REMARK VINA RESULT:      -8.8      1.452      2.220
REMARK  Name = 
REMARK  2 active torsions:
REMARK  status: ('A' for Active; 'I' for Inactive)
REMARK    1  A    between atoms: C_4  and  C_5
REMARK    2  A    between atoms: C_7  and  C_8
REMARK                            x       y       z     vdW  Elec       q    Type
REMARK                         _______ _______ _______ _____ _____    ______ ____
ROOT
ATOM      1  C   UNL     1       4.759   4.138  18.077  0.00  0.00    +0.000 A 
ATOM      2  N   UNL     1       4.700   4.142  16.763  0.00  0.00    +0.000 NA
ATOM      3  C   UNL     1       6.019   4.300  16.398  0.00  0.00    +0.000 A 
ATOM      4  N   UNL     1       6.863   4.384  17.439  0.00  0.00    +0.000 NA
ATOM      5  O   UNL     1       6.030   4.277  18.553  0.00  0.00    +0.000 OA
ENDROOT
BRANCH   1   9
ATOM      6  O   UNL     1       3.161   2.092  21.940  0.00  0.00    +0.000 OA
ATOM      7  C   UNL     1       3.088   2.634  20.853  0.00  0.00    +0.000 C 
ATOM      8  N   UNL     1       4.102   3.328  20.236  0.00  0.00    +0.000 N 
ATOM      9  C   UNL     1       3.650   4.025  19.058  0.00  0.00    +0.000 C 
ATOM     10  C   UNL     1       2.981   5.374  19.424  0.00  0.00    +0.000 C 
ATOM     11  C   UNL     1       1.473   5.050  19.315  0.00  0.00    +0.000 C 
ATOM     12  C   UNL     1       1.060   4.020  20.385  0.00  0.00    +0.000 C 
ATOM     13  C   UNL     1       1.859   2.772  19.984  0.00  0.00    +0.000 C 
ATOM     14  C   UNL     1       2.446   3.176  18.603  0.00  0.00    +0.000 C 
ATOM     15  C   UNL     1       1.444   4.189  18.057  0.00  0.00    +0.000 C 
ATOM     16  H   UNL     1       5.004   3.467  20.677  0.00  0.00    +0.000 HD
ENDBRANCH   1   9
BRANCH   3  17
ATOM     17  C   UNL     1       6.422   4.326  14.997  0.00  0.00    +0.000 A 
ATOM     18  C   UNL     1       7.446   5.198  14.584  0.00  0.00    +0.000 A 
ATOM     19  C   UNL     1       7.811   5.291  13.239  0.00  0.00    +0.000 A 
ATOM     20  C   UNL     1       7.157   4.503  12.301  0.00  0.00    +0.000 A 
ATOM     21  F   UNL     1       7.491   4.605  11.008  0.00  0.00    +0.000 F 
ATOM     22  C   UNL     1       6.159   3.619  12.699  0.00  0.00    +0.000 A 
ATOM     23  F   UNL     1       5.531   2.861  11.789  0.00  0.00    +0.000 F 
ATOM     24  C   UNL     1       5.788   3.521  14.039  0.00  0.00    +0.000 A 
ENDBRANCH   3  17
TORSDOF 2
ENDMDL
