MODEL 1
REMARK VINA RESULT:      -8.0      0.000      0.000
REMARK  Name = 
REMARK  7 active torsions:
REMARK  status: ('A' for Active; 'I' for Inactive)
REMARK    1  A    between atoms: C_1  and  C_2
REMARK    2  A    between atoms: C_2  and  C_3
REMARK    3  A    between atoms: C_2  and  C_4
REMARK    4  A    between atoms: C_10  and  C_11
REMARK    5  A    between atoms: N_13  and  C_14
REMARK    6  A    between atoms: C_17  and  C_18
REMARK    7  A    between atoms: C_18  and  N_19
REMARK                            x       y       z     vdW  Elec       q    Type
REMARK                         _______ _______ _______ _____ _____    ______ ____
ROOT
ATOM      1  C   UNL     1       2.180   8.034  18.745  0.00  0.00    +0.000 C 
ATOM      2  O   UNL     1       1.990   7.963  19.956  0.00  0.00    +0.000 OA
ATOM      3  N   UNL     1       1.765   9.056  17.906  0.00  0.00    +0.000 N 
ATOM      4  H   UNL     1       1.836   8.928  16.903  0.00  0.00    +0.000 HD
ENDROOT
BRANCH   1  11
ATOM      5  C   UNL     1       3.018   3.091  18.428  0.00  0.00    +0.000 A 
ATOM      6  N   UNL     1       3.971   2.439  17.746  0.00  0.00    +0.000 NA
ATOM      7  O   UNL     1       4.679   3.423  17.053  0.00  0.00    +0.000 OA
ATOM      8  C   UNL     1       4.149   4.652  17.323  0.00  0.00    +0.000 A 
ATOM      9  N   UNL     1       4.608   5.824  16.826  0.00  0.00    +0.000 NA
ATOM     10  C   UNL     1       3.922   6.906  17.289  0.00  0.00    +0.000 A 
ATOM     11  C   UNL     1       2.835   6.857  18.153  0.00  0.00    +0.000 A 
ATOM     12  C   UNL     1       2.393   5.614  18.616  0.00  0.00    +0.000 A 
ATOM     13  C   UNL     1       3.084   4.481  18.191  0.00  0.00    +0.000 A 
BRANCH   5  15
ATOM     14  C   UNL     1       2.183   2.792  20.781  0.00  0.00    +0.000 C 
ATOM     15  C   UNL     1       2.038   2.379  19.318  0.00  0.00    +0.000 C 
ATOM     16  C   UNL     1       0.595   2.537  18.837  0.00  0.00    +0.000 C 
ENDBRANCH   5  15
ENDBRANCH   1  11
BRANCH   3  17
ATOM     17  C   UNL     1       1.014  10.176  18.350  0.00  0.00    +0.000 A 
ATOM     18  C   UNL     1       1.617  11.371  18.757  0.00  0.00    +0.000 A 
ATOM     19  C   UNL     1       0.867  12.424  19.271  0.00  0.00    +0.000 A 
ATOM     20  C   UNL     1      -0.523  12.327  19.357  0.00  0.00    +0.000 A 
ATOM     21  C   UNL     1      -1.144  11.155  18.904  0.00  0.00    +0.000 A 
ATOM     22  C   UNL     1      -0.381  10.086  18.405  0.00  0.00    +0.000 A 
BRANCH  20  23
ATOM     23  C   UNL     1      -1.310  13.508  19.868  0.00  0.00    +0.000 C 
BRANCH  23  24
ATOM     24  N   UNL     1      -2.073  13.177  21.056  0.00  0.00    +0.000 N 
ATOM     25  C   UNL     1      -3.471  12.820  21.017  0.00  0.00    +0.000 C 
ATOM     26  C   UNL     1      -3.842  12.718  22.482  0.00  0.00    +0.000 C 
ATOM     27  C   UNL     1      -2.555  12.247  23.144  0.00  0.00    +0.000 C 
ATOM     28  C   UNL     1      -1.480  12.830  22.259  0.00  0.00    +0.000 C 
ATOM     29  O   UNL     1      -0.298  12.915  22.543  0.00  0.00    +0.000 OA
ENDBRANCH  23  24
ENDBRANCH  20  23
ENDBRANCH   3  17
TORSDOF 5
ENDMDL
MODEL 2
REMARK VINA RESULT:      -7.9      1.375      1.554
REMARK  Name = 
REMARK  7 active torsions:
REMARK  status: ('A' for Active; 'I' for Inactive)
REMARK    1  A    between atoms: C_1  and  C_2
REMARK    2  A    between atoms: C_2  and  C_3
REMARK    3  A    between atoms: C_2  and  C_4
REMARK    4  A    between atoms: C_10  and  C_11
REMARK    5  A    between atoms: N_13  and  C_14
REMARK    6  A    between atoms: C_17  and  C_18
REMARK    7  A    between atoms: C_18  and  N_19
REMARK                            x       y       z     vdW  Elec       q    Type
REMARK                         _______ _______ _______ _____ _____    ______ ____
ROOT
ATOM      1  C   UNL     1       1.918   8.775  18.334  0.00  0.00    +0.000 C 
ATOM      2  O   UNL     1       2.081   9.597  17.437  0.00  0.00    +0.000 OA
ATOM      3  N   UNL     1       1.146   8.943  19.473  0.00  0.00    +0.000 N 
ATOM      4  H   UNL     1       1.217   8.261  20.220  0.00  0.00    +0.000 HD
ENDROOT
BRANCH   1  11
ATOM      5  C   UNL     1       3.084   4.060  19.620  0.00  0.00    +0.000 A 
ATOM      6  N   UNL     1       4.147   3.326  19.259  0.00  0.00    +0.000 NA
ATOM      7  O   UNL     1       4.869   4.121  18.367  0.00  0.00    +0.000 OA
ATOM      8  C   UNL     1       4.238   5.320  18.200  0.00  0.00    +0.000 A 
ATOM      9  N   UNL     1       4.679   6.328  17.412  0.00  0.00    +0.000 NA
ATOM     10  C   UNL     1       3.880   7.431  17.457  0.00  0.00    +0.000 A 
ATOM     11  C   UNL     1       2.706   7.541  18.192  0.00  0.00    +0.000 A 
ATOM     12  C   UNL     1       2.290   6.456  18.971  0.00  0.00    +0.000 A 
ATOM     13  C   UNL     1       3.093   5.317  18.977  0.00  0.00    +0.000 A 
BRANCH   5  15
ATOM     14  C   UNL     1       0.827   2.984  19.883  0.00  0.00    +0.000 C 
ATOM     15  C   UNL     1       2.053   3.558  20.591  0.00  0.00    +0.000 C 
ATOM     16  C   UNL     1       2.634   2.559  21.591  0.00  0.00    +0.000 C 
ENDBRANCH   5  15
ENDBRANCH   1  11
BRANCH   3  17
ATOM     17  C   UNL     1       0.447  10.141  19.775  0.00  0.00    +0.000 A 
ATOM     18  C   UNL     1       0.940  11.093  20.673  0.00  0.00    +0.000 A 
ATOM     19  C   UNL     1       0.198  12.217  21.019  0.00  0.00    +0.000 A 
ATOM     20  C   UNL     1      -1.053  12.444  20.444  0.00  0.00    +0.000 A 
ATOM     21  C   UNL     1      -1.537  11.524  19.503  0.00  0.00    +0.000 A 
ATOM     22  C   UNL     1      -0.793  10.379  19.172  0.00  0.00    +0.000 A 
BRANCH  20  23
ATOM     23  C   UNL     1      -1.808  13.701  20.800  0.00  0.00    +0.000 C 
BRANCH  23  24
ATOM     24  N   UNL     1      -2.783  13.469  21.848  0.00  0.00    +0.000 N 
ATOM     25  C   UNL     1      -4.073  12.870  21.601  0.00  0.00    +0.000 C 
ATOM     26  C   UNL     1      -4.767  12.980  22.943  0.00  0.00    +0.000 C 
ATOM     27  C   UNL     1      -3.625  12.874  23.945  0.00  0.00    +0.000 C 
ATOM     28  C   UNL     1      -2.455  13.461  23.194  0.00  0.00    +0.000 C 
ATOM     29  O   UNL     1      -1.395  13.804  23.690  0.00  0.00    +0.000 OA
ENDBRANCH  23  24
ENDBRANCH  20  23
ENDBRANCH   3  17
TORSDOF 5
ENDMDL
MODEL 3
REMARK VINA RESULT:      -7.9      0.946      1.205
REMARK  Name = 
REMARK  7 active torsions:
REMARK  status: ('A' for Active; 'I' for Inactive)
REMARK    1  A    between atoms: C_1  and  C_2
REMARK    2  A    between atoms: C_2  and  C_3
REMARK    3  A    between atoms: C_2  and  C_4
REMARK    4  A    between atoms: C_10  and  C_11
REMARK    5  A    between atoms: N_13  and  C_14
REMARK    6  A    between atoms: C_17  and  C_18
REMARK    7  A    between atoms: C_18  and  N_19
REMARK                            x       y       z     vdW  Elec       q    Type
REMARK                         _______ _______ _______ _____ _____    ______ ____
ROOT
ATOM      1  C   UNL     1       2.091   8.100  18.848  0.00  0.00    +0.000 C 
ATOM      2  O   UNL     1       1.908   7.993  20.057  0.00  0.00    +0.000 OA
ATOM      3  N   UNL     1       1.638   9.127  18.035  0.00  0.00    +0.000 N 
ATOM      4  H   UNL     1       1.709   9.026  17.029  0.00  0.00    +0.000 HD
ENDROOT
BRANCH   1  11
ATOM      5  C   UNL     1       3.093   3.197  18.404  0.00  0.00    +0.000 A 
ATOM      6  N   UNL     1       4.067   2.595  17.705  0.00  0.00    +0.000 NA
ATOM      7  O   UNL     1       4.739   3.619  17.037  0.00  0.00    +0.000 OA
ATOM      8  C   UNL     1       4.169   4.823  17.339  0.00  0.00    +0.000 A 
ATOM      9  N   UNL     1       4.587   6.021  16.870  0.00  0.00    +0.000 NA
ATOM     10  C   UNL     1       3.867   7.068  17.362  0.00  0.00    +0.000 A 
ATOM     11  C   UNL     1       2.784   6.961  18.225  0.00  0.00    +0.000 A 
ATOM     12  C   UNL     1       2.385   5.692  18.657  0.00  0.00    +0.000 A 
ATOM     13  C   UNL     1       3.112   4.594  18.203  0.00  0.00    +0.000 A 
BRANCH   5  15
ATOM     14  C   UNL     1       2.256   2.829  20.747  0.00  0.00    +0.000 C 
ATOM     15  C   UNL     1       2.139   2.430  19.277  0.00  0.00    +0.000 C 
ATOM     16  C   UNL     1       0.695   2.531  18.787  0.00  0.00    +0.000 C 
ENDBRANCH   5  15
ENDBRANCH   1  11
BRANCH   3  17
ATOM     17  C   UNL     1       0.850  10.209  18.508  0.00  0.00    +0.000 A 
ATOM     18  C   UNL     1       1.413  11.413  18.945  0.00  0.00    +0.000 A 
ATOM     19  C   UNL     1       0.629  12.426  19.486  0.00  0.00    +0.000 A 
ATOM     20  C   UNL     1      -0.756  12.281  19.572  0.00  0.00    +0.000 A 
ATOM     21  C   UNL     1      -1.339  11.100  19.090  0.00  0.00    +0.000 A 
ATOM     22  C   UNL     1      -0.541  10.071  18.563  0.00  0.00    +0.000 A 
BRANCH  20  23
ATOM     23  C   UNL     1      -1.582  13.421  20.113  0.00  0.00    +0.000 C 
BRANCH  23  24
ATOM     24  N   UNL     1      -2.395  13.012  21.243  0.00  0.00    +0.000 N 
ATOM     25  C   UNL     1      -1.883  12.932  22.590  0.00  0.00    +0.000 C 
ATOM     26  C   UNL     1      -3.037  12.327  23.363  0.00  0.00    +0.000 C 
ATOM     27  C   UNL     1      -4.267  12.846  22.631  0.00  0.00    +0.000 C 
ATOM     28  C   UNL     1      -3.780  13.005  21.211  0.00  0.00    +0.000 C 
ATOM     29  O   UNL     1      -4.490  13.162  20.233  0.00  0.00    +0.000 OA
ENDBRANCH  23  24
ENDBRANCH  20  23
ENDBRANCH   3  17
TORSDOF 5
ENDMDL
MODEL 4
REMARK VINA RESULT:      -7.9      1.542      1.857
REMARK  Name = 
REMARK  7 active torsions:
REMARK  status: ('A' for Active; 'I' for Inactive)
REMARK    1  A    between atoms: C_1  and  C_2
REMARK    2  A    between atoms: C_2  and  C_3
REMARK    3  A    between atoms: C_2  and  C_4
REMARK    4  A    between atoms: C_10  and  C_11
REMARK    5  A    between atoms: N_13  and  C_14
REMARK    6  A    between atoms: C_17  and  C_18
REMARK    7  A    between atoms: C_18  and  N_19
REMARK                            x       y       z     vdW  Elec       q    Type
REMARK                         _______ _______ _______ _____ _____    ______ ____
ROOT
ATOM      1  C   UNL     1       1.939   8.760  18.249  0.00  0.00    +0.000 C 
ATOM      2  O   UNL     1       2.187   9.676  17.470  0.00  0.00    +0.000 OA
ATOM      3  N   UNL     1       1.090   8.817  19.343  0.00  0.00    +0.000 N 
ATOM      4  H   UNL     1       1.090   8.051  20.006  0.00  0.00    +0.000 HD
ENDROOT
BRANCH   1  11
ATOM      5  C   UNL     1       2.821   3.863  18.945  0.00  0.00    +0.000 A 
ATOM      6  N   UNL     1       3.900   3.144  18.603  0.00  0.00    +0.000 NA
ATOM      7  O   UNL     1       4.743   4.026  17.927  0.00  0.00    +0.000 OA
ATOM      8  C   UNL     1       4.168   5.264  17.868  0.00  0.00    +0.000 A 
ATOM      9  N   UNL     1       4.726   6.355  17.294  0.00  0.00    +0.000 NA
ATOM     10  C   UNL     1       3.956   7.473  17.412  0.00  0.00    +0.000 A 
ATOM     11  C   UNL     1       2.706   7.526  18.016  0.00  0.00    +0.000 A 
ATOM     12  C   UNL     1       2.173   6.360  18.572  0.00  0.00    +0.000 A 
ATOM     13  C   UNL     1       2.939   5.198  18.501  0.00  0.00    +0.000 A 
BRANCH   5  15
ATOM     14  C   UNL     1       0.900   2.242  18.880  0.00  0.00    +0.000 C 
ATOM     15  C   UNL     1       1.669   3.270  19.707  0.00  0.00    +0.000 C 
ATOM     16  C   UNL     1       2.100   2.690  21.054  0.00  0.00    +0.000 C 
ENDBRANCH   5  15
ENDBRANCH   1  11
BRANCH   3  17
ATOM     17  C   UNL     1       0.399   9.994  19.736  0.00  0.00    +0.000 A 
ATOM     18  C   UNL     1       0.830  10.801  20.794  0.00  0.00    +0.000 A 
ATOM     19  C   UNL     1       0.090  11.900  21.217  0.00  0.00    +0.000 A 
ATOM     20  C   UNL     1      -1.093  12.250  20.565  0.00  0.00    +0.000 A 
ATOM     21  C   UNL     1      -1.510  11.480  19.470  0.00  0.00    +0.000 A 
ATOM     22  C   UNL     1      -0.770  10.359  19.059  0.00  0.00    +0.000 A 
BRANCH  20  23
ATOM     23  C   UNL     1      -1.843  13.480  21.014  0.00  0.00    +0.000 C 
BRANCH  23  24
ATOM     24  N   UNL     1      -2.802  13.177  22.059  0.00  0.00    +0.000 N 
ATOM     25  C   UNL     1      -2.573  13.492  23.449  0.00  0.00    +0.000 C 
ATOM     26  C   UNL     1      -3.759  12.858  24.147  0.00  0.00    +0.000 C 
ATOM     27  C   UNL     1      -4.875  12.960  23.115  0.00  0.00    +0.000 C 
ATOM     28  C   UNL     1      -4.134  12.897  21.802  0.00  0.00    +0.000 C 
ATOM     29  O   UNL     1      -4.641  12.698  20.712  0.00  0.00    +0.000 OA
ENDBRANCH  23  24
ENDBRANCH  20  23
ENDBRANCH   3  17
TORSDOF 5
ENDMDL
MODEL 5
REMARK VINA RESULT:      -7.9      1.554      1.909
REMARK  Name = 
REMARK  7 active torsions:
REMARK  status: ('A' for Active; 'I' for Inactive)
REMARK    1  A    between atoms: C_1  and  C_2
REMARK    2  A    between atoms: C_2  and  C_3
REMARK    3  A    between atoms: C_2  and  C_4
REMARK    4  A    between atoms: C_10  and  C_11
REMARK    5  A    between atoms: N_13  and  C_14
REMARK    6  A    between atoms: C_17  and  C_18
REMARK    7  A    between atoms: C_18  and  N_19
REMARK                            x       y       z     vdW  Elec       q    Type
REMARK                         _______ _______ _______ _____ _____    ______ ____
ROOT
ATOM      1  C   UNL     1       1.990   8.538  18.325  0.00  0.00    +0.000 C 
ATOM      2  O   UNL     1       2.107   9.422  17.480  0.00  0.00    +0.000 OA
ATOM      3  N   UNL     1       1.226   8.599  19.479  0.00  0.00    +0.000 N 
ATOM      4  H   UNL     1       1.335   7.875  20.180  0.00  0.00    +0.000 HD
ENDROOT
BRANCH   1  11
ATOM      5  C   UNL     1       3.293   3.766  19.202  0.00  0.00    +0.000 A 
ATOM      6  N   UNL     1       4.397   3.108  18.816  0.00  0.00    +0.000 NA
ATOM      7  O   UNL     1       5.118   4.010  18.033  0.00  0.00    +0.000 OA
ATOM      8  C   UNL     1       4.447   5.197  17.955  0.00  0.00    +0.000 A 
ATOM      9  N   UNL     1       4.877   6.291  17.284  0.00  0.00    +0.000 NA
ATOM     10  C   UNL     1       4.035   7.356  17.403  0.00  0.00    +0.000 A 
ATOM     11  C   UNL     1       2.831   7.352  18.098  0.00  0.00    +0.000 A 
ATOM     12  C   UNL     1       2.430   6.184  18.752  0.00  0.00    +0.000 A 
ATOM     13  C   UNL     1       3.276   5.079  18.683  0.00  0.00    +0.000 A 
BRANCH   5  15
ATOM     14  C   UNL     1       2.086   3.878  21.405  0.00  0.00    +0.000 C 
ATOM     15  C   UNL     1       2.248   3.136  20.080  0.00  0.00    +0.000 C 
ATOM     16  C   UNL     1       0.906   2.978  19.365  0.00  0.00    +0.000 C 
ENDBRANCH   5  15
ENDBRANCH   1  11
BRANCH   3  17
ATOM     17  C   UNL     1       0.477   9.743  19.862  0.00  0.00    +0.000 A 
ATOM     18  C   UNL     1      -0.675  10.149  19.180  0.00  0.00    +0.000 A 
ATOM     19  C   UNL     1      -1.342  11.322  19.519  0.00  0.00    +0.000 A 
ATOM     20  C   UNL     1      -0.896  12.110  20.581  0.00  0.00    +0.000 A 
ATOM     21  C   UNL     1       0.227  11.687  21.305  0.00  0.00    +0.000 A 
ATOM     22  C   UNL     1       0.910  10.513  20.947  0.00  0.00    +0.000 A 
BRANCH  20  23
ATOM     23  C   UNL     1      -1.675  13.346  20.956  0.00  0.00    +0.000 C 
BRANCH  23  24
ATOM     24  N   UNL     1      -2.716  13.057  21.925  0.00  0.00    +0.000 N 
ATOM     25  C   UNL     1      -2.546  13.264  23.343  0.00  0.00    +0.000 C 
ATOM     26  C   UNL     1      -3.817  12.686  23.931  0.00  0.00    +0.000 C 
ATOM     27  C   UNL     1      -4.858  12.942  22.849  0.00  0.00    +0.000 C 
ATOM     28  C   UNL     1      -4.047  12.903  21.577  0.00  0.00    +0.000 C 
ATOM     29  O   UNL     1      -4.503  12.815  20.450  0.00  0.00    +0.000 OA
ENDBRANCH  23  24
ENDBRANCH  20  23
ENDBRANCH   3  17
TORSDOF 5
ENDMDL
MODEL 6
REMARK VINA RESULT:      -7.9      1.708      2.194
REMARK  Name = 
REMARK  7 active torsions:
REMARK  status: ('A' for Active; 'I' for Inactive)
REMARK    1  A    between atoms: C_1  and  C_2
REMARK    2  A    between atoms: C_2  and  C_3
REMARK    3  A    between atoms: C_2  and  C_4
REMARK    4  A    between atoms: C_10  and  C_11
REMARK    5  A    between atoms: N_13  and  C_14
REMARK    6  A    between atoms: C_17  and  C_18
REMARK    7  A    between atoms: C_18  and  N_19
REMARK                            x       y       z     vdW  Elec       q    Type
REMARK                         _______ _______ _______ _____ _____    ______ ____
ROOT
ATOM      1  C   UNL     1       1.698   8.326  19.155  0.00  0.00    +0.000 C 
ATOM      2  O   UNL     1       1.429   9.192  18.326  0.00  0.00    +0.000 OA
ATOM      3  N   UNL     1       1.414   8.368  20.510  0.00  0.00    +0.000 N 
ATOM      4  H   UNL     1       1.827   7.673  21.121  0.00  0.00    +0.000 HD
ENDROOT
BRANCH   1  11
ATOM      5  C   UNL     1       3.036   3.484  19.103  0.00  0.00    +0.000 A 
ATOM      6  N   UNL     1       4.062   2.899  18.468  0.00  0.00    +0.000 NA
ATOM      7  O   UNL     1       4.679   3.914  17.735  0.00  0.00    +0.000 OA
ATOM      8  C   UNL     1       4.023   5.095  17.935  0.00  0.00    +0.000 A 
ATOM      9  N   UNL     1       4.371   6.281  17.383  0.00  0.00    +0.000 NA
ATOM     10  C   UNL     1       3.571   7.310  17.781  0.00  0.00    +0.000 A 
ATOM     11  C   UNL     1       2.479   7.194  18.632  0.00  0.00    +0.000 A 
ATOM     12  C   UNL     1       2.156   5.937  19.153  0.00  0.00    +0.000 A 
ATOM     13  C   UNL     1       2.966   4.861  18.796  0.00  0.00    +0.000 A 
BRANCH   5  15
ATOM     14  C   UNL     1       2.106   3.295  21.432  0.00  0.00    +0.000 C 
ATOM     15  C   UNL     1       2.116   2.722  20.016  0.00  0.00    +0.000 C 
ATOM     16  C   UNL     1       0.700   2.608  19.452  0.00  0.00    +0.000 C 
ENDBRANCH   5  15
ENDBRANCH   1  11
BRANCH   3  17
ATOM     17  C   UNL     1       0.779   9.470  21.143  0.00  0.00    +0.000 A 
ATOM     18  C   UNL     1      -0.029   9.322  22.275  0.00  0.00    +0.000 A 
ATOM     19  C   UNL     1      -0.711  10.403  22.826  0.00  0.00    +0.000 A 
ATOM     20  C   UNL     1      -0.574  11.679  22.279  0.00  0.00    +0.000 A 
ATOM     21  C   UNL     1       0.274  11.850  21.176  0.00  0.00    +0.000 A 
ATOM     22  C   UNL     1       0.944  10.753  20.610  0.00  0.00    +0.000 A 
BRANCH  20  23
ATOM     23  C   UNL     1      -1.283  12.838  22.934  0.00  0.00    +0.000 C 
BRANCH  23  24
ATOM     24  N   UNL     1      -2.591  13.071  22.351  0.00  0.00    +0.000 N 
ATOM     25  C   UNL     1      -2.775  13.532  20.996  0.00  0.00    +0.000 C 
ATOM     26  C   UNL     1      -4.269  13.765  20.910  0.00  0.00    +0.000 C 
ATOM     27  C   UNL     1      -4.847  12.721  21.856  0.00  0.00    +0.000 C 
ATOM     28  C   UNL     1      -3.758  12.552  22.888  0.00  0.00    +0.000 C 
ATOM     29  O   UNL     1      -3.884  12.000  23.967  0.00  0.00    +0.000 OA
ENDBRANCH  23  24
ENDBRANCH  20  23
ENDBRANCH   3  17
TORSDOF 5
ENDMDL
MODEL 7
REMARK VINA RESULT:      -7.8      1.616      1.817
REMARK  Name = 
REMARK  7 active torsions:
REMARK  status: ('A' for Active; 'I' for Inactive)
REMARK    1  A    between atoms: C_1  and  C_2
REMARK    2  A    between atoms: C_2  and  C_3
REMARK    3  A    between atoms: C_2  and  C_4
REMARK    4  A    between atoms: C_10  and  C_11
REMARK    5  A    between atoms: N_13  and  C_14
REMARK    6  A    between atoms: C_17  and  C_18
REMARK    7  A    between atoms: C_18  and  N_19
REMARK                            x       y       z     vdW  Elec       q    Type
REMARK                         _______ _______ _______ _____ _____    ______ ____
ROOT
ATOM      1  C   UNL     1       2.233   8.187  18.247  0.00  0.00    +0.000 C 
ATOM      2  O   UNL     1       2.206   8.812  17.190  0.00  0.00    +0.000 OA
ATOM      3  N   UNL     1       1.582   8.529  19.422  0.00  0.00    +0.000 N 
ATOM      4  H   UNL     1       1.809   8.029  20.273  0.00  0.00    +0.000 HD
ENDROOT
BRANCH   1  11
ATOM      5  C   UNL     1       3.478   3.534  19.674  0.00  0.00    +0.000 A 
ATOM      6  N   UNL     1       4.646   2.891  19.527  0.00  0.00    +0.000 NA
ATOM      7  O   UNL     1       5.469   3.762  18.813  0.00  0.00    +0.000 OA
ATOM      8  C   UNL     1       4.793   4.917  18.538  0.00  0.00    +0.000 A 
ATOM      9  N   UNL     1       5.306   5.978  17.871  0.00  0.00    +0.000 NA
ATOM     10  C   UNL     1       4.431   7.018  17.769  0.00  0.00    +0.000 A 
ATOM     11  C   UNL     1       3.127   7.019  18.251  0.00  0.00    +0.000 A 
ATOM     12  C   UNL     1       2.648   5.884  18.912  0.00  0.00    +0.000 A 
ATOM     13  C   UNL     1       3.519   4.807  19.065  0.00  0.00    +0.000 A 
BRANCH   5  15
ATOM     14  C   UNL     1       1.988   3.684  21.695  0.00  0.00    +0.000 C 
ATOM     15  C   UNL     1       2.313   2.928  20.407  0.00  0.00    +0.000 C 
ATOM     16  C   UNL     1       1.077   2.787  19.519  0.00  0.00    +0.000 C 
ENDBRANCH   5  15
ENDBRANCH   1  11
BRANCH   3  17
ATOM     17  C   UNL     1       0.798   9.704  19.568  0.00  0.00    +0.000 A 
ATOM     18  C   UNL     1       0.921  10.557  20.669  0.00  0.00    +0.000 A 
ATOM     19  C   UNL     1       0.081  11.654  20.834  0.00  0.00    +0.000 A 
ATOM     20  C   UNL     1      -0.888  11.955  19.877  0.00  0.00    +0.000 A 
ATOM     21  C   UNL     1      -0.988  11.137  18.742  0.00  0.00    +0.000 A 
ATOM     22  C   UNL     1      -0.152  10.018  18.590  0.00  0.00    +0.000 A 
BRANCH  20  23
ATOM     23  C   UNL     1      -1.745  13.183  20.060  0.00  0.00    +0.000 C 
BRANCH  23  24
ATOM     24  N   UNL     1      -2.886  12.924  20.916  0.00  0.00    +0.000 N 
ATOM     25  C   UNL     1      -2.955  13.370  22.287  0.00  0.00    +0.000 C 
ATOM     26  C   UNL     1      -4.238  12.740  22.791  0.00  0.00    +0.000 C 
ATOM     27  C   UNL     1      -5.122  12.694  21.553  0.00  0.00    +0.000 C 
ATOM     28  C   UNL     1      -4.128  12.555  20.426  0.00  0.00    +0.000 C 
ATOM     29  O   UNL     1      -4.396  12.237  19.280  0.00  0.00    +0.000 OA
ENDBRANCH  23  24
ENDBRANCH  20  23
ENDBRANCH   3  17
TORSDOF 5
ENDMDL
MODEL 8
REMARK VINA RESULT:      -7.8      2.464      9.779
REMARK  Name = 
REMARK  7 active torsions:
REMARK  status: ('A' for Active; 'I' for Inactive)
REMARK    1  A    between atoms: C_1  and  C_2
REMARK    2  A    between atoms: C_2  and  C_3
REMARK    3  A    between atoms: C_2  and  C_4
REMARK    4  A    between atoms: C_10  and  C_11
REMARK    5  A    between atoms: N_13  and  C_14
REMARK    6  A    between atoms: C_17  and  C_18
REMARK    7  A    between atoms: C_18  and  N_19
REMARK                            x       y       z     vdW  Elec       q    Type
REMARK                         _______ _______ _______ _____ _____    ______ ____
ROOT
ATOM      1  C   UNL     1       1.723   8.935  18.244  0.00  0.00    +0.000 C 
ATOM      2  O   UNL     1       2.190   9.253  17.153  0.00  0.00    +0.000 OA
ATOM      3  N   UNL     1       1.955   7.751  18.925  0.00  0.00    +0.000 N 
ATOM      4  H   UNL     1       1.389   7.531  19.736  0.00  0.00    +0.000 HD
ENDROOT
BRANCH   1  11
ATOM      5  C   UNL     1      -2.681  11.353  18.222  0.00  0.00    +0.000 A 
ATOM      6  N   UNL     1      -3.068  12.408  18.955  0.00  0.00    +0.000 NA
ATOM      7  O   UNL     1      -2.002  12.682  19.812  0.00  0.00    +0.000 OA
ATOM      8  C   UNL     1      -0.987  11.795  19.589  0.00  0.00    +0.000 A 
ATOM      9  N   UNL     1       0.199  11.791  20.241  0.00  0.00    +0.000 NA
ATOM     10  C   UNL     1       1.050  10.824  19.795  0.00  0.00    +0.000 A 
ATOM     11  C   UNL     1       0.758   9.894  18.805  0.00  0.00    +0.000 A 
ATOM     12  C   UNL     1      -0.494   9.936  18.183  0.00  0.00    +0.000 A 
ATOM     13  C   UNL     1      -1.385  10.928  18.587  0.00  0.00    +0.000 A 
BRANCH   5  15
ATOM     14  C   UNL     1      -4.983  11.292  17.211  0.00  0.00    +0.000 C 
ATOM     15  C   UNL     1      -3.556  10.748  17.160  0.00  0.00    +0.000 C 
ATOM     16  C   UNL     1      -2.957  10.892  15.761  0.00  0.00    +0.000 C 
ENDBRANCH   5  15
ENDBRANCH   1  11
BRANCH   3  17
ATOM     17  C   UNL     1       2.766   6.702  18.416  0.00  0.00    +0.000 A 
ATOM     18  C   UNL     1       3.981   6.941  17.765  0.00  0.00    +0.000 A 
ATOM     19  C   UNL     1       4.715   5.904  17.198  0.00  0.00    +0.000 A 
ATOM     20  C   UNL     1       4.273   4.585  17.298  0.00  0.00    +0.000 A 
ATOM     21  C   UNL     1       3.083   4.326  17.992  0.00  0.00    +0.000 A 
ATOM     22  C   UNL     1       2.333   5.378  18.546  0.00  0.00    +0.000 A 
BRANCH  20  23
ATOM     23  C   UNL     1       5.122   3.480  16.720  0.00  0.00    +0.000 C 
BRANCH  23  24
ATOM     24  N   UNL     1       5.891   3.931  15.576  0.00  0.00    +0.000 N 
ATOM     25  C   UNL     1       5.294   4.223  14.294  0.00  0.00    +0.000 C 
ATOM     26  C   UNL     1       6.492   4.499  13.409  0.00  0.00    +0.000 C 
ATOM     27  C   UNL     1       7.509   5.106  14.367  0.00  0.00    +0.000 C 
ATOM     28  C   UNL     1       7.168   4.457  15.686  0.00  0.00    +0.000 C 
ATOM     29  O   UNL     1       7.874   4.459  16.680  0.00  0.00    +0.000 OA
ENDBRANCH  23  24
ENDBRANCH  20  23
ENDBRANCH   3  17
TORSDOF 5
ENDMDL
MODEL 9
REMARK VINA RESULT:      -7.8      1.226      1.631
REMARK  Name = 
REMARK  7 active torsions:
REMARK  status: ('A' for Active; 'I' for Inactive)
REMARK    1  A    between atoms: C_1  and  C_2
REMARK    2  A    between atoms: C_2  and  C_3
REMARK    3  A    between atoms: C_2  and  C_4
REMARK    4  A    between atoms: C_10  and  C_11
REMARK    5  A    between atoms: N_13  and  C_14
REMARK    6  A    between atoms: C_17  and  C_18
REMARK    7  A    between atoms: C_18  and  N_19
REMARK                            x       y       z     vdW  Elec       q    Type
REMARK                         _______ _______ _______ _____ _____    ______ ____
ROOT
ATOM      1  C   UNL     1       1.917   8.742  18.214  0.00  0.00    +0.000 C 
ATOM      2  O   UNL     1       2.137   9.644  17.410  0.00  0.00    +0.000 OA
ATOM      3  N   UNL     1       1.088   8.813  19.323  0.00  0.00    +0.000 N 
ATOM      4  H   UNL     1       1.111   8.062  20.003  0.00  0.00    +0.000 HD
ENDROOT
BRANCH   1  11
ATOM      5  C   UNL     1       2.851   3.862  18.957  0.00  0.00    +0.000 A 
ATOM      6  N   UNL     1       3.940   3.152  18.627  0.00  0.00    +0.000 NA
ATOM      7  O   UNL     1       4.776   4.038  17.947  0.00  0.00    +0.000 OA
ATOM      8  C   UNL     1       4.187   5.269  17.875  0.00  0.00    +0.000 A 
ATOM      9  N   UNL     1       4.736   6.361  17.294  0.00  0.00    +0.000 NA
ATOM     10  C   UNL     1       3.953   7.472  17.399  0.00  0.00    +0.000 A 
ATOM     11  C   UNL     1       2.700   7.516  17.996  0.00  0.00    +0.000 A 
ATOM     12  C   UNL     1       2.176   6.348  18.560  0.00  0.00    +0.000 A 
ATOM     13  C   UNL     1       2.956   5.195  18.502  0.00  0.00    +0.000 A 
BRANCH   5  15
ATOM     14  C   UNL     1       0.932   2.238  18.887  0.00  0.00    +0.000 C 
ATOM     15  C   UNL     1       1.701   3.263  19.718  0.00  0.00    +0.000 C 
ATOM     16  C   UNL     1       2.136   2.676  21.061  0.00  0.00    +0.000 C 
ENDBRANCH   5  15
ENDBRANCH   1  11
BRANCH   3  17
ATOM     17  C   UNL     1       0.385   9.988  19.700  0.00  0.00    +0.000 A 
ATOM     18  C   UNL     1      -0.861  10.323  19.161  0.00  0.00    +0.000 A 
ATOM     19  C   UNL     1      -1.490  11.522  19.481  0.00  0.00    +0.000 A 
ATOM     20  C   UNL     1      -0.906  12.411  20.383  0.00  0.00    +0.000 A 
ATOM     21  C   UNL     1       0.320  12.063  20.970  0.00  0.00    +0.000 A 
ATOM     22  C   UNL     1       0.962  10.861  20.629  0.00  0.00    +0.000 A 
BRANCH  20  23
ATOM     23  C   UNL     1      -1.641  13.676  20.749  0.00  0.00    +0.000 C 
BRANCH  23  24
ATOM     24  N   UNL     1      -2.638  13.445  21.777  0.00  0.00    +0.000 N 
ATOM     25  C   UNL     1      -3.938  12.885  21.496  0.00  0.00    +0.000 C 
ATOM     26  C   UNL     1      -4.651  12.981  22.830  0.00  0.00    +0.000 C 
ATOM     27  C   UNL     1      -3.528  12.824  23.846  0.00  0.00    +0.000 C 
ATOM     28  C   UNL     1      -2.331  13.399  23.127  0.00  0.00    +0.000 C 
ATOM     29  O   UNL     1      -1.272  13.703  23.647  0.00  0.00    +0.000 OA
ENDBRANCH  23  24
ENDBRANCH  20  23
ENDBRANCH   3  17
TORSDOF 5
ENDMDL
