MODEL 1
REMARK VINA RESULT:      -7.6      0.000      0.000
REMARK  Name = 
REMARK  8 active torsions:
REMARK  status: ('A' for Active; 'I' for Inactive)
REMARK    1  A    between atoms: C_1  and  C_2
REMARK    2  A    between atoms: C_2  and  N_3
REMARK    3  A    between atoms: N_3  and  C_18
REMARK    4  A    between atoms: C_4  and  C_6
REMARK    5  A    between atoms: C_9  and  C_10
REMARK    6  A    between atoms: C_19  and  N_20
REMARK    7  A    between atoms: N_21  and  C_22
REMARK    8  A    between atoms: C_22  and  C_23
REMARK                            x       y       z     vdW  Elec       q    Type
REMARK                         _______ _______ _______ _____ _____    ______ ____
ROOT
ATOM      1  C   UNL     1      -6.378  13.500  21.153  0.00  0.00    +0.000 A 
ATOM      2  C   UNL     1      -6.402  13.168  19.832  0.00  0.00    +0.000 A 
ATOM      3  N   UNL     1      -6.779  11.874  19.454  0.00  0.00    +0.000 N 
ATOM      4  C   UNL     1      -7.158  10.899  20.377  0.00  0.00    +0.000 A 
ATOM      5  O   UNL     1      -7.465   9.745  20.085  0.00  0.00    +0.000 OA
ATOM      6  N   UNL     1      -7.164  11.271  21.682  0.00  0.00    +0.000 N 
ATOM      7  C   UNL     1      -6.936  12.527  22.146  0.00  0.00    +0.000 A 
ATOM      8  O   UNL     1      -7.164  12.824  23.314  0.00  0.00    +0.000 OA
ATOM      9  H   UNL     1      -7.465  10.580  22.350  0.00  0.00    +0.000 HD
ENDROOT
BRANCH   1  10
ATOM     10  N   UNL     1      -5.751  14.650  21.653  0.00  0.00    +0.000 N 
ATOM     11  C   UNL     1      -4.378  14.697  22.042  0.00  0.00    +0.000 C 
ATOM     12  O   UNL     1      -3.863  15.696  22.534  0.00  0.00    +0.000 OA
BRANCH  11  13
ATOM     13  C   UNL     1      -3.477  13.495  21.850  0.00  0.00    +0.000 A 
ATOM     14  C   UNL     1      -3.038  12.695  22.904  0.00  0.00    +0.000 A 
ATOM     15  C   UNL     1      -1.923  11.870  22.750  0.00  0.00    +0.000 A 
ATOM     16  C   UNL     1      -1.335  11.685  21.494  0.00  0.00    +0.000 A 
ATOM     17  C   UNL     1      -1.936  12.307  20.390  0.00  0.00    +0.000 A 
ATOM     18  C   UNL     1      -2.989  13.218  20.567  0.00  0.00    +0.000 A 
BRANCH  16  19
ATOM     19  C   UNL     1      -0.080  10.840  21.334  0.00  0.00    +0.000 C 
ATOM     20  C   UNL     1      -0.104  10.054  20.009  0.00  0.00    +0.000 C 
ATOM     21  C   UNL     1       1.118   9.158  19.847  0.00  0.00    +0.000 C 
ATOM     22  C   UNL     1       1.274   8.213  21.033  0.00  0.00    +0.000 C 
ATOM     23  C   UNL     1       1.343   8.982  22.347  0.00  0.00    +0.000 C 
ATOM     24  C   UNL     1       0.128   9.892  22.535  0.00  0.00    +0.000 C 
ENDBRANCH  16  19
ENDBRANCH  11  13
BRANCH  10  26
ATOM     25  C   UNL     1      -6.969  16.078  23.364  0.00  0.00    +0.000 C 
ATOM     26  C   UNL     1      -6.574  15.858  21.901  0.00  0.00    +0.000 C 
ENDBRANCH  10  26
ENDBRANCH   1  10
BRANCH   2  27
ATOM     27  N   UNL     1      -5.962  14.081  18.884  0.00  0.00    +0.000 N 
ATOM     28  H   UNL     1      -5.514  13.628  18.089  0.00  0.00    +0.000 HD
ATOM     29  H   UNL     1      -6.628  14.786  18.600  0.00  0.00    +0.000 HD
ENDBRANCH   2  27
BRANCH   3  30
ATOM     30  C   UNL     1      -6.667  11.403  18.067  0.00  0.00    +0.000 C 
BRANCH  30  31
ATOM     31  C   UNL     1      -5.259  11.098  17.600  0.00  0.00    +0.000 A 
ATOM     32  C   UNL     1      -4.696  11.696  16.465  0.00  0.00    +0.000 A 
ATOM     33  C   UNL     1      -3.459  11.286  15.983  0.00  0.00    +0.000 A 
ATOM     34  C   UNL     1      -2.738  10.294  16.649  0.00  0.00    +0.000 A 
ATOM     35  C   UNL     1      -3.258   9.731  17.812  0.00  0.00    +0.000 A 
ATOM     36  C   UNL     1      -4.508  10.131  18.288  0.00  0.00    +0.000 A 
ENDBRANCH  30  31
ENDBRANCH   3  30
TORSDOF 7
ENDMDL
MODEL 2
REMARK VINA RESULT:      -7.4      8.481     11.947
REMARK  Name = 
REMARK  8 active torsions:
REMARK  status: ('A' for Active; 'I' for Inactive)
REMARK    1  A    between atoms: C_1  and  C_2
REMARK    2  A    between atoms: C_2  and  N_3
REMARK    3  A    between atoms: N_3  and  C_18
REMARK    4  A    between atoms: C_4  and  C_6
REMARK    5  A    between atoms: C_9  and  C_10
REMARK    6  A    between atoms: C_19  and  N_20
REMARK    7  A    between atoms: N_21  and  C_22
REMARK    8  A    between atoms: C_22  and  C_23
REMARK                            x       y       z     vdW  Elec       q    Type
REMARK                         _______ _______ _______ _____ _____    ______ ____
ROOT
ATOM      1  C   UNL     1       4.852   5.784  17.982  0.00  0.00    +0.000 A 
ATOM      2  C   UNL     1       3.849   6.641  17.648  0.00  0.00    +0.000 A 
ATOM      3  N   UNL     1       2.777   6.825  18.531  0.00  0.00    +0.000 N 
ATOM      4  C   UNL     1       2.697   6.179  19.764  0.00  0.00    +0.000 A 
ATOM      5  O   UNL     1       1.759   6.291  20.550  0.00  0.00    +0.000 OA
ATOM      6  N   UNL     1       3.732   5.362  20.087  0.00  0.00    +0.000 N 
ATOM      7  C   UNL     1       4.871   5.208  19.365  0.00  0.00    +0.000 A 
ATOM      8  O   UNL     1       5.842   4.616  19.826  0.00  0.00    +0.000 OA
ATOM      9  H   UNL     1       3.694   4.916  20.989  0.00  0.00    +0.000 HD
ENDROOT
BRANCH   1  10
ATOM     10  N   UNL     1       5.807   5.312  17.069  0.00  0.00    +0.000 N 
ATOM     11  C   UNL     1       7.014   6.007  16.758  0.00  0.00    +0.000 C 
ATOM     12  O   UNL     1       7.808   5.609  15.910  0.00  0.00    +0.000 OA
BRANCH  11  13
ATOM     13  C   UNL     1       7.381   7.286  17.481  0.00  0.00    +0.000 A 
ATOM     14  C   UNL     1       6.959   8.547  17.063  0.00  0.00    +0.000 A 
ATOM     15  C   UNL     1       7.623   9.696  17.496  0.00  0.00    +0.000 A 
ATOM     16  C   UNL     1       8.599   9.626  18.496  0.00  0.00    +0.000 A 
ATOM     17  C   UNL     1       8.846   8.379  19.087  0.00  0.00    +0.000 A 
ATOM     18  C   UNL     1       8.254   7.214  18.574  0.00  0.00    +0.000 A 
BRANCH  16  19
ATOM     19  C   UNL     1       9.371  10.866  18.923  0.00  0.00    +0.000 C 
ATOM     20  C   UNL     1      10.633  11.060  18.059  0.00  0.00    +0.000 C 
ATOM     21  C   UNL     1      11.453  12.266  18.499  0.00  0.00    +0.000 C 
ATOM     22  C   UNL     1      11.818  12.180  19.977  0.00  0.00    +0.000 C 
ATOM     23  C   UNL     1      10.574  12.033  20.846  0.00  0.00    +0.000 C 
ATOM     24  C   UNL     1       9.729  10.828  20.424  0.00  0.00    +0.000 C 
ENDBRANCH  16  19
ENDBRANCH  11  13
BRANCH  10  26
ATOM     25  C   UNL     1       5.236   4.312  14.805  0.00  0.00    +0.000 C 
ATOM     26  C   UNL     1       5.504   4.085  16.295  0.00  0.00    +0.000 C 
ENDBRANCH  10  26
ENDBRANCH   1  10
BRANCH   2  27
ATOM     27  N   UNL     1       3.848   7.249  16.400  0.00  0.00    +0.000 N 
ATOM     28  H   UNL     1       4.789   7.369  16.027  0.00  0.00    +0.000 HD
ATOM     29  H   UNL     1       3.210   6.865  15.717  0.00  0.00    +0.000 HD
ENDBRANCH   2  27
BRANCH   3  30
ATOM     30  C   UNL     1       1.587   7.603  18.161  0.00  0.00    +0.000 C 
BRANCH  30  31
ATOM     31  C   UNL     1       1.575   9.036  18.650  0.00  0.00    +0.000 A 
ATOM     32  C   UNL     1       0.919   9.424  19.826  0.00  0.00    +0.000 A 
ATOM     33  C   UNL     1       0.805  10.766  20.168  0.00  0.00    +0.000 A 
ATOM     34  C   UNL     1       1.378  11.749  19.360  0.00  0.00    +0.000 A 
ATOM     35  C   UNL     1       2.083  11.376  18.218  0.00  0.00    +0.000 A 
ATOM     36  C   UNL     1       2.185  10.029  17.865  0.00  0.00    +0.000 A 
ENDBRANCH  30  31
ENDBRANCH   3  30
TORSDOF 7
ENDMDL
MODEL 3
REMARK VINA RESULT:      -7.2      8.316     11.860
REMARK  Name = 
REMARK  8 active torsions:
REMARK  status: ('A' for Active; 'I' for Inactive)
REMARK    1  A    between atoms: C_1  and  C_2
REMARK    2  A    between atoms: C_2  and  N_3
REMARK    3  A    between atoms: N_3  and  C_18
REMARK    4  A    between atoms: C_4  and  C_6
REMARK    5  A    between atoms: C_9  and  C_10
REMARK    6  A    between atoms: C_19  and  N_20
REMARK    7  A    between atoms: N_21  and  C_22
REMARK    8  A    between atoms: C_22  and  C_23
REMARK                            x       y       z     vdW  Elec       q    Type
REMARK                         _______ _______ _______ _____ _____    ______ ____
ROOT
ATOM      1  C   UNL     1       4.811   5.800  17.977  0.00  0.00    +0.000 A 
ATOM      2  C   UNL     1       3.824   6.676  17.643  0.00  0.00    +0.000 A 
ATOM      3  N   UNL     1       2.758   6.882  18.528  0.00  0.00    +0.000 N 
ATOM      4  C   UNL     1       2.669   6.240  19.763  0.00  0.00    +0.000 A 
ATOM      5  O   UNL     1       1.735   6.373  20.552  0.00  0.00    +0.000 OA
ATOM      6  N   UNL     1       3.688   5.404  20.086  0.00  0.00    +0.000 N 
ATOM      7  C   UNL     1       4.823   5.226  19.361  0.00  0.00    +0.000 A 
ATOM      8  O   UNL     1       5.783   4.617  19.821  0.00  0.00    +0.000 OA
ATOM      9  H   UNL     1       3.644   4.961  20.989  0.00  0.00    +0.000 HD
ENDROOT
BRANCH   1  10
ATOM     10  N   UNL     1       5.753   5.308  17.062  0.00  0.00    +0.000 N 
ATOM     11  C   UNL     1       6.991   5.959  16.774  0.00  0.00    +0.000 C 
ATOM     12  O   UNL     1       7.775   5.545  15.925  0.00  0.00    +0.000 OA
BRANCH  11  13
ATOM     13  C   UNL     1       7.403   7.207  17.526  0.00  0.00    +0.000 A 
ATOM     14  C   UNL     1       7.085   8.495  17.097  0.00  0.00    +0.000 A 
ATOM     15  C   UNL     1       7.799   9.596  17.573  0.00  0.00    +0.000 A 
ATOM     16  C   UNL     1       8.718   9.457  18.619  0.00  0.00    +0.000 A 
ATOM     17  C   UNL     1       8.853   8.194  19.211  0.00  0.00    +0.000 A 
ATOM     18  C   UNL     1       8.214   7.072  18.659  0.00  0.00    +0.000 A 
BRANCH  16  19
ATOM     19  C   UNL     1       9.546  10.642  19.095  0.00  0.00    +0.000 C 
ATOM     20  C   UNL     1       9.327  10.906  20.597  0.00  0.00    +0.000 C 
ATOM     21  C   UNL     1      10.106  12.120  21.089  0.00  0.00    +0.000 C 
ATOM     22  C   UNL     1       9.774  13.362  20.269  0.00  0.00    +0.000 C 
ATOM     23  C   UNL     1      10.028  13.127  18.784  0.00  0.00    +0.000 C 
ATOM     24  C   UNL     1       9.260  11.911  18.264  0.00  0.00    +0.000 C 
ENDBRANCH  16  19
ENDBRANCH  11  13
BRANCH  10  26
ATOM     25  C   UNL     1       5.217   4.367  14.764  0.00  0.00    +0.000 C 
ATOM     26  C   UNL     1       5.408   4.109  16.261  0.00  0.00    +0.000 C 
ENDBRANCH  10  26
ENDBRANCH   1  10
BRANCH   2  27
ATOM     27  N   UNL     1       3.832   7.281  16.394  0.00  0.00    +0.000 N 
ATOM     28  H   UNL     1       3.371   8.190  16.401  0.00  0.00    +0.000 HD
ATOM     29  H   UNL     1       4.721   7.303  15.915  0.00  0.00    +0.000 HD
ENDBRANCH   2  27
BRANCH   3  30
ATOM     30  C   UNL     1       1.583   7.682  18.160  0.00  0.00    +0.000 C 
BRANCH  30  31
ATOM     31  C   UNL     1       1.598   9.116  18.649  0.00  0.00    +0.000 A 
ATOM     32  C   UNL     1       0.958   9.515  19.829  0.00  0.00    +0.000 A 
ATOM     33  C   UNL     1       0.869  10.859  20.172  0.00  0.00    +0.000 A 
ATOM     34  C   UNL     1       1.453  11.832  19.360  0.00  0.00    +0.000 A 
ATOM     35  C   UNL     1       2.143  11.446  18.213  0.00  0.00    +0.000 A 
ATOM     36  C   UNL     1       2.219  10.098  17.860  0.00  0.00    +0.000 A 
ENDBRANCH  30  31
ENDBRANCH   3  30
TORSDOF 7
ENDMDL
MODEL 4
REMARK VINA RESULT:      -7.2      4.996      7.753
REMARK  Name = 
REMARK  8 active torsions:
REMARK  status: ('A' for Active; 'I' for Inactive)
REMARK    1  A    between atoms: C_1  and  C_2
REMARK    2  A    between atoms: C_2  and  N_3
REMARK    3  A    between atoms: N_3  and  C_18
REMARK    4  A    between atoms: C_4  and  C_6
REMARK    5  A    between atoms: C_9  and  C_10
REMARK    6  A    between atoms: C_19  and  N_20
REMARK    7  A    between atoms: N_21  and  C_22
REMARK    8  A    between atoms: C_22  and  C_23
REMARK                            x       y       z     vdW  Elec       q    Type
REMARK                         _______ _______ _______ _____ _____    ______ ____
ROOT
ATOM      1  C   UNL     1       0.252  12.139  19.543  0.00  0.00    +0.000 A 
ATOM      2  C   UNL     1       1.342  12.827  19.105  0.00  0.00    +0.000 A 
ATOM      3  N   UNL     1       2.026  13.668  19.991  0.00  0.00    +0.000 N 
ATOM      4  C   UNL     1       1.653  13.821  21.326  0.00  0.00    +0.000 A 
ATOM      5  O   UNL     1       2.209  14.573  22.124  0.00  0.00    +0.000 OA
ATOM      6  N   UNL     1       0.587  13.092  21.743  0.00  0.00    +0.000 N 
ATOM      7  C   UNL     1      -0.068  12.159  21.006  0.00  0.00    +0.000 A 
ATOM      8  O   UNL     1      -0.882  11.398  21.520  0.00  0.00    +0.000 OA
ATOM      9  H   UNL     1       0.331  13.176  22.714  0.00  0.00    +0.000 HD
ENDROOT
BRANCH   1  10
ATOM     10  N   UNL     1      -0.662  11.507  18.686  0.00  0.00    +0.000 N 
ATOM     11  C   UNL     1      -0.477  10.192  18.162  0.00  0.00    +0.000 C 
ATOM     12  O   UNL     1      -1.258   9.680  17.366  0.00  0.00    +0.000 OA
BRANCH  11  13
ATOM     13  C   UNL     1       0.710   9.351  18.583  0.00  0.00    +0.000 A 
ATOM     14  C   UNL     1       1.737   8.990  17.711  0.00  0.00    +0.000 A 
ATOM     15  C   UNL     1       2.576   7.916  18.012  0.00  0.00    +0.000 A 
ATOM     16  C   UNL     1       2.529   7.299  19.267  0.00  0.00    +0.000 A 
ATOM     17  C   UNL     1       1.658   7.830  20.228  0.00  0.00    +0.000 A 
ATOM     18  C   UNL     1       0.742   8.837  19.886  0.00  0.00    +0.000 A 
BRANCH  16  19
ATOM     19  C   UNL     1       3.396   6.086  19.574  0.00  0.00    +0.000 C 
ATOM     20  C   UNL     1       4.418   5.834  18.449  0.00  0.00    +0.000 C 
ATOM     21  C   UNL     1       5.265   4.593  18.707  0.00  0.00    +0.000 C 
ATOM     22  C   UNL     1       4.394   3.363  18.930  0.00  0.00    +0.000 C 
ATOM     23  C   UNL     1       3.407   3.584  20.072  0.00  0.00    +0.000 C 
ATOM     24  C   UNL     1       2.544   4.827  19.840  0.00  0.00    +0.000 C 
ENDBRANCH  16  19
ENDBRANCH  11  13
BRANCH  10  26
ATOM     25  C   UNL     1      -3.153  11.952  18.902  0.00  0.00    +0.000 C 
ATOM     26  C   UNL     1      -1.832  12.278  18.202  0.00  0.00    +0.000 C 
ENDBRANCH  10  26
ENDBRANCH   1  10
BRANCH   2  27
ATOM     27  N   UNL     1       1.706  12.764  17.767  0.00  0.00    +0.000 N 
ATOM     28  H   UNL     1       1.888  13.685  17.372  0.00  0.00    +0.000 HD
ATOM     29  H   UNL     1       2.426  12.094  17.531  0.00  0.00    +0.000 HD
ENDBRANCH   2  27
BRANCH   3  30
ATOM     30  C   UNL     1       3.103  14.562  19.543  0.00  0.00    +0.000 C 
BRANCH  30  31
ATOM     31  C   UNL     1       2.651  15.775  18.757  0.00  0.00    +0.000 A 
ATOM     32  C   UNL     1       1.576  16.576  19.163  0.00  0.00    +0.000 A 
ATOM     33  C   UNL     1       1.097  17.593  18.346  0.00  0.00    +0.000 A 
ATOM     34  C   UNL     1       1.708  17.856  17.119  0.00  0.00    +0.000 A 
ATOM     35  C   UNL     1       2.814  17.106  16.727  0.00  0.00    +0.000 A 
ATOM     36  C   UNL     1       3.286  16.074  17.541  0.00  0.00    +0.000 A 
ENDBRANCH  30  31
ENDBRANCH   3  30
TORSDOF 7
ENDMDL
MODEL 5
REMARK VINA RESULT:      -7.2      8.402     12.091
REMARK  Name = 
REMARK  8 active torsions:
REMARK  status: ('A' for Active; 'I' for Inactive)
REMARK    1  A    between atoms: C_1  and  C_2
REMARK    2  A    between atoms: C_2  and  N_3
REMARK    3  A    between atoms: N_3  and  C_18
REMARK    4  A    between atoms: C_4  and  C_6
REMARK    5  A    between atoms: C_9  and  C_10
REMARK    6  A    between atoms: C_19  and  N_20
REMARK    7  A    between atoms: N_21  and  C_22
REMARK    8  A    between atoms: C_22  and  C_23
REMARK                            x       y       z     vdW  Elec       q    Type
REMARK                         _______ _______ _______ _____ _____    ______ ____
ROOT
ATOM      1  C   UNL     1       4.860   4.559  18.479  0.00  0.00    +0.000 A 
ATOM      2  C   UNL     1       4.709   4.746  17.139  0.00  0.00    +0.000 A 
ATOM      3  N   UNL     1       5.577   5.614  16.464  0.00  0.00    +0.000 N 
ATOM      4  C   UNL     1       6.616   6.289  17.103  0.00  0.00    +0.000 A 
ATOM      5  O   UNL     1       7.377   7.080  16.550  0.00  0.00    +0.000 OA
ATOM      6  N   UNL     1       6.767   6.051  18.430  0.00  0.00    +0.000 N 
ATOM      7  C   UNL     1       6.064   5.141  19.154  0.00  0.00    +0.000 A 
ATOM      8  O   UNL     1       6.400   4.838  20.294  0.00  0.00    +0.000 OA
ATOM      9  H   UNL     1       7.534   6.512  18.891  0.00  0.00    +0.000 HD
ENDROOT
BRANCH   1  10
ATOM     10  N   UNL     1       3.890   3.953  19.292  0.00  0.00    +0.000 N 
ATOM     11  C   UNL     1       2.802   4.662  19.886  0.00  0.00    +0.000 C 
ATOM     12  O   UNL     1       1.998   4.127  20.643  0.00  0.00    +0.000 OA
BRANCH  11  13
ATOM     13  C   UNL     1       2.581   6.131  19.593  0.00  0.00    +0.000 A 
ATOM     14  C   UNL     1       2.198   7.054  20.566  0.00  0.00    +0.000 A 
ATOM     15  C   UNL     1       1.629   8.274  20.199  0.00  0.00    +0.000 A 
ATOM     16  C   UNL     1       1.600   8.678  18.860  0.00  0.00    +0.000 A 
ATOM     17  C   UNL     1       2.211   7.848  17.910  0.00  0.00    +0.000 A 
ATOM     18  C   UNL     1       2.684   6.576  18.269  0.00  0.00    +0.000 A 
BRANCH  16  19
ATOM     19  C   UNL     1       0.921   9.977  18.449  0.00  0.00    +0.000 C 
ATOM     20  C   UNL     1       1.158  11.082  19.497  0.00  0.00    +0.000 C 
ATOM     21  C   UNL     1       0.445  12.380  19.136  0.00  0.00    +0.000 C 
ATOM     22  C   UNL     1      -1.047  12.153  18.919  0.00  0.00    +0.000 C 
ATOM     23  C   UNL     1      -1.294  11.092  17.853  0.00  0.00    +0.000 C 
ATOM     24  C   UNL     1      -0.587   9.777  18.188  0.00  0.00    +0.000 C 
ENDBRANCH  16  19
ENDBRANCH  11  13
BRANCH  10  26
ATOM     25  C   UNL     1       3.437   1.535  18.662  0.00  0.00    +0.000 C 
ATOM     26  C   UNL     1       4.055   2.525  19.652  0.00  0.00    +0.000 C 
ENDBRANCH  10  26
ENDBRANCH   1  10
BRANCH   2  27
ATOM     27  N   UNL     1       3.643   4.154  16.476  0.00  0.00    +0.000 N 
ATOM     28  H   UNL     1       2.915   4.826  16.237  0.00  0.00    +0.000 HD
ATOM     29  H   UNL     1       3.880   3.551  15.700  0.00  0.00    +0.000 HD
ENDBRANCH   2  27
BRANCH   3  30
ATOM     30  C   UNL     1       5.367   5.987  15.058  0.00  0.00    +0.000 C 
BRANCH  30  31
ATOM     31  C   UNL     1       5.980   5.047  14.042  0.00  0.00    +0.000 A 
ATOM     32  C   UNL     1       7.296   5.190  13.582  0.00  0.00    +0.000 A 
ATOM     33  C   UNL     1       7.778   4.400  12.545  0.00  0.00    +0.000 A 
ATOM     34  C   UNL     1       6.965   3.422  11.970  0.00  0.00    +0.000 A 
ATOM     35  C   UNL     1       5.674   3.228  12.456  0.00  0.00    +0.000 A 
ATOM     36  C   UNL     1       5.184   4.031  13.487  0.00  0.00    +0.000 A 
ENDBRANCH  30  31
ENDBRANCH   3  30
TORSDOF 7
ENDMDL
MODEL 6
REMARK VINA RESULT:      -7.0      5.451      8.178
REMARK  Name = 
REMARK  8 active torsions:
REMARK  status: ('A' for Active; 'I' for Inactive)
REMARK    1  A    between atoms: C_1  and  C_2
REMARK    2  A    between atoms: C_2  and  N_3
REMARK    3  A    between atoms: N_3  and  C_18
REMARK    4  A    between atoms: C_4  and  C_6
REMARK    5  A    between atoms: C_9  and  C_10
REMARK    6  A    between atoms: C_19  and  N_20
REMARK    7  A    between atoms: N_21  and  C_22
REMARK    8  A    between atoms: C_22  and  C_23
REMARK                            x       y       z     vdW  Elec       q    Type
REMARK                         _______ _______ _______ _____ _____    ______ ____
ROOT
ATOM      1  C   UNL     1       0.981  12.401  19.628  0.00  0.00    +0.000 A 
ATOM      2  C   UNL     1       1.828  13.122  18.844  0.00  0.00    +0.000 A 
ATOM      3  N   UNL     1       2.819  13.910  19.442  0.00  0.00    +0.000 N 
ATOM      4  C   UNL     1       2.998  13.974  20.824  0.00  0.00    +0.000 A 
ATOM      5  O   UNL     1       3.836  14.676  21.386  0.00  0.00    +0.000 OA
ATOM      6  N   UNL     1       2.166  13.213  21.578  0.00  0.00    +0.000 N 
ATOM      7  C   UNL     1       1.257  12.325  21.099  0.00  0.00    +0.000 A 
ATOM      8  O   UNL     1       0.693  11.528  21.842  0.00  0.00    +0.000 OA
ATOM      9  H   UNL     1       2.310  13.232  22.575  0.00  0.00    +0.000 HD
ENDROOT
BRANCH   1  10
ATOM     10  N   UNL     1      -0.207  11.820  19.159  0.00  0.00    +0.000 N 
ATOM     11  C   UNL     1      -0.296  10.478  18.682  0.00  0.00    +0.000 C 
ATOM     12  O   UNL     1      -1.330  10.007  18.218  0.00  0.00    +0.000 OA
BRANCH  11  13
ATOM     13  C   UNL     1       0.904   9.554  18.737  0.00  0.00    +0.000 A 
ATOM     14  C   UNL     1       1.811   9.419  17.687  0.00  0.00    +0.000 A 
ATOM     15  C   UNL     1       2.644   8.302  17.611  0.00  0.00    +0.000 A 
ATOM     16  C   UNL     1       2.721   7.391  18.670  0.00  0.00    +0.000 A 
ATOM     17  C   UNL     1       1.983   7.668  19.829  0.00  0.00    +0.000 A 
ATOM     18  C   UNL     1       1.068   8.732  19.859  0.00  0.00    +0.000 A 
BRANCH  16  19
ATOM     19  C   UNL     1       3.578   6.137  18.563  0.00  0.00    +0.000 C 
ATOM     20  C   UNL     1       4.648   6.289  17.465  0.00  0.00    +0.000 C 
ATOM     21  C   UNL     1       5.487   5.027  17.300  0.00  0.00    +0.000 C 
ATOM     22  C   UNL     1       4.611   3.808  17.035  0.00  0.00    +0.000 C 
ATOM     23  C   UNL     1       3.575   3.623  18.138  0.00  0.00    +0.000 C 
ATOM     24  C   UNL     1       2.719   4.877  18.327  0.00  0.00    +0.000 C 
ENDBRANCH  16  19
ENDBRANCH  11  13
BRANCH  10  26
ATOM     25  C   UNL     1      -2.350  12.630  20.254  0.00  0.00    +0.000 C 
ATOM     26  C   UNL     1      -1.416  12.670  19.042  0.00  0.00    +0.000 C 
ENDBRANCH  10  26
ENDBRANCH   1  10
BRANCH   2  27
ATOM     27  N   UNL     1       1.640  13.148  17.468  0.00  0.00    +0.000 N 
ATOM     28  H   UNL     1       0.972  13.862  17.182  0.00  0.00    +0.000 HD
ATOM     29  H   UNL     1       2.479  13.156  16.904  0.00  0.00    +0.000 HD
ENDBRANCH   2  27
BRANCH   3  30
ATOM     30  C   UNL     1       3.654  14.836  18.666  0.00  0.00    +0.000 C 
BRANCH  30  31
ATOM     31  C   UNL     1       2.944  16.074  18.159  0.00  0.00    +0.000 A 
ATOM     32  C   UNL     1       2.011  16.777  18.933  0.00  0.00    +0.000 A 
ATOM     33  C   UNL     1       1.272  17.820  18.387  0.00  0.00    +0.000 A 
ATOM     34  C   UNL     1       1.479  18.210  17.063  0.00  0.00    +0.000 A 
ATOM     35  C   UNL     1       2.445  17.559  16.298  0.00  0.00    +0.000 A 
ATOM     36  C   UNL     1       3.175  16.501  16.841  0.00  0.00    +0.000 A 
ENDBRANCH  30  31
ENDBRANCH   3  30
TORSDOF 7
ENDMDL
MODEL 7
REMARK VINA RESULT:      -7.0      1.031      1.260
REMARK  Name = 
REMARK  8 active torsions:
REMARK  status: ('A' for Active; 'I' for Inactive)
REMARK    1  A    between atoms: C_1  and  C_2
REMARK    2  A    between atoms: C_2  and  N_3
REMARK    3  A    between atoms: N_3  and  C_18
REMARK    4  A    between atoms: C_4  and  C_6
REMARK    5  A    between atoms: C_9  and  C_10
REMARK    6  A    between atoms: C_19  and  N_20
REMARK    7  A    between atoms: N_21  and  C_22
REMARK    8  A    between atoms: C_22  and  C_23
REMARK                            x       y       z     vdW  Elec       q    Type
REMARK                         _______ _______ _______ _____ _____    ______ ____
ROOT
ATOM      1  C   UNL     1      -6.823  13.494  20.919  0.00  0.00    +0.000 A 
ATOM      2  C   UNL     1      -6.522  13.502  19.591  0.00  0.00    +0.000 A 
ATOM      3  N   UNL     1      -6.597  12.309  18.861  0.00  0.00    +0.000 N 
ATOM      4  C   UNL     1      -6.993  11.100  19.431  0.00  0.00    +0.000 A 
ATOM      5  O   UNL     1      -7.040  10.028  18.830  0.00  0.00    +0.000 OA
ATOM      6  N   UNL     1      -7.326  11.132  20.746  0.00  0.00    +0.000 N 
ATOM      7  C   UNL     1      -7.406  12.249  21.514  0.00  0.00    +0.000 A 
ATOM      8  O   UNL     1      -7.914  12.219  22.630  0.00  0.00    +0.000 OA
ATOM      9  H   UNL     1      -7.640  10.267  21.157  0.00  0.00    +0.000 HD
ENDROOT
BRANCH   1  10
ATOM     10  N   UNL     1      -6.508  14.546  21.792  0.00  0.00    +0.000 N 
ATOM     11  C   UNL     1      -5.312  14.597  22.569  0.00  0.00    +0.000 C 
ATOM     12  O   UNL     1      -5.082  15.495  23.373  0.00  0.00    +0.000 OA
BRANCH  11  13
ATOM     13  C   UNL     1      -4.247  13.529  22.424  0.00  0.00    +0.000 A 
ATOM     14  C   UNL     1      -3.987  12.573  23.405  0.00  0.00    +0.000 A 
ATOM     15  C   UNL     1      -2.774  11.884  23.417  0.00  0.00    +0.000 A 
ATOM     16  C   UNL     1      -1.874  11.996  22.352  0.00  0.00    +0.000 A 
ATOM     17  C   UNL     1      -2.255  12.774  21.250  0.00  0.00    +0.000 A 
ATOM     18  C   UNL     1      -3.425  13.549  21.291  0.00  0.00    +0.000 A 
BRANCH  16  19
ATOM     19  C   UNL     1      -0.523  11.297  22.393  0.00  0.00    +0.000 C 
ATOM     20  C   UNL     1      -0.016  10.985  20.972  0.00  0.00    +0.000 C 
ATOM     21  C   UNL     1       1.313  10.238  20.985  0.00  0.00    +0.000 C 
ATOM     22  C   UNL     1       1.227   8.966  21.820  0.00  0.00    +0.000 C 
ATOM     23  C   UNL     1       0.768   9.269  23.242  0.00  0.00    +0.000 C 
ATOM     24  C   UNL     1      -0.565  10.021  23.259  0.00  0.00    +0.000 C 
ENDBRANCH  16  19
ENDBRANCH  11  13
BRANCH  10  26
ATOM     25  C   UNL     1      -7.262  16.907  21.239  0.00  0.00    +0.000 C 
ATOM     26  C   UNL     1      -7.515  15.611  22.014  0.00  0.00    +0.000 C 
ENDBRANCH  10  26
ENDBRANCH   1  10
BRANCH   2  27
ATOM     27  N   UNL     1      -6.052  14.666  18.997  0.00  0.00    +0.000 N 
ATOM     28  H   UNL     1      -6.582  14.916  18.164  0.00  0.00    +0.000 HD
ATOM     29  H   UNL     1      -5.908  15.454  19.613  0.00  0.00    +0.000 HD
ENDBRANCH   2  27
BRANCH   3  30
ATOM     30  C   UNL     1      -6.128  12.215  17.472  0.00  0.00    +0.000 C 
BRANCH  30  31
ATOM     31  C   UNL     1      -4.811  11.492  17.283  0.00  0.00    +0.000 A 
ATOM     32  C   UNL     1      -3.744  11.623  18.182  0.00  0.00    +0.000 A 
ATOM     33  C   UNL     1      -2.504  11.062  17.903  0.00  0.00    +0.000 A 
ATOM     34  C   UNL     1      -2.313  10.324  16.734  0.00  0.00    +0.000 A 
ATOM     35  C   UNL     1      -3.379  10.135  15.858  0.00  0.00    +0.000 A 
ATOM     36  C   UNL     1      -4.621  10.712  16.130  0.00  0.00    +0.000 A 
ENDBRANCH  30  31
ENDBRANCH   3  30
TORSDOF 7
ENDMDL
MODEL 8
REMARK VINA RESULT:      -6.9      1.316      1.435
REMARK  Name = 
REMARK  8 active torsions:
REMARK  status: ('A' for Active; 'I' for Inactive)
REMARK    1  A    between atoms: C_1  and  C_2
REMARK    2  A    between atoms: C_2  and  N_3
REMARK    3  A    between atoms: N_3  and  C_18
REMARK    4  A    between atoms: C_4  and  C_6
REMARK    5  A    between atoms: C_9  and  C_10
REMARK    6  A    between atoms: C_19  and  N_20
REMARK    7  A    between atoms: N_21  and  C_22
REMARK    8  A    between atoms: C_22  and  C_23
REMARK                            x       y       z     vdW  Elec       q    Type
REMARK                         _______ _______ _______ _____ _____    ______ ____
ROOT
ATOM      1  C   UNL     1      -5.200  14.073  22.218  0.00  0.00    +0.000 A 
ATOM      2  C   UNL     1      -5.299  14.131  20.862  0.00  0.00    +0.000 A 
ATOM      3  N   UNL     1      -5.909  13.078  20.170  0.00  0.00    +0.000 N 
ATOM      4  C   UNL     1      -6.450  11.965  20.815  0.00  0.00    +0.000 A 
ATOM      5  O   UNL     1      -6.965  11.009  20.240  0.00  0.00    +0.000 OA
ATOM      6  N   UNL     1      -6.373  11.955  22.169  0.00  0.00    +0.000 N 
ATOM      7  C   UNL     1      -5.915  12.973  22.942  0.00  0.00    +0.000 A 
ATOM      8  O   UNL     1      -6.072  12.969  24.159  0.00  0.00    +0.000 OA
ATOM      9  H   UNL     1      -6.787  11.168  22.642  0.00  0.00    +0.000 HD
ENDROOT
BRANCH   1  10
ATOM     10  N   UNL     1      -4.368  14.913  22.973  0.00  0.00    +0.000 N 
ATOM     11  C   UNL     1      -2.978  14.666  23.186  0.00  0.00    +0.000 C 
ATOM     12  O   UNL     1      -2.281  15.380  23.900  0.00  0.00    +0.000 OA
BRANCH  11  13
ATOM     13  C   UNL     1      -2.289  13.494  22.520  0.00  0.00    +0.000 A 
ATOM     14  C   UNL     1      -2.240  12.218  23.080  0.00  0.00    +0.000 A 
ATOM     15  C   UNL     1      -1.286  11.294  22.654  0.00  0.00    +0.000 A 
ATOM     16  C   UNL     1      -0.482  11.554  21.539  0.00  0.00    +0.000 A 
ATOM     17  C   UNL     1      -0.707  12.743  20.831  0.00  0.00    +0.000 A 
ATOM     18  C   UNL     1      -1.592  13.714  21.325  0.00  0.00    +0.000 A 
BRANCH  16  19
ATOM     19  C   UNL     1       0.605  10.577  21.113  0.00  0.00    +0.000 C 
ATOM     20  C   UNL     1       0.633  10.412  19.581  0.00  0.00    +0.000 C 
ATOM     21  C   UNL     1       1.679   9.399  19.130  0.00  0.00    +0.000 C 
ATOM     22  C   UNL     1       1.479   8.052  19.815  0.00  0.00    +0.000 C 
ATOM     23  C   UNL     1       1.493   8.197  21.332  0.00  0.00    +0.000 C 
ATOM     24  C   UNL     1       0.453   9.211  21.814  0.00  0.00    +0.000 C 
ENDBRANCH  16  19
ENDBRANCH  11  13
BRANCH  10  26
ATOM     25  C   UNL     1      -6.389  16.431  23.224  0.00  0.00    +0.000 C 
ATOM     26  C   UNL     1      -4.976  16.063  23.685  0.00  0.00    +0.000 C 
ENDBRANCH  10  26
ENDBRANCH   1  10
BRANCH   2  27
ATOM     27  N   UNL     1      -4.710  15.182  20.172  0.00  0.00    +0.000 N 
ATOM     28  H   UNL     1      -4.519  14.948  19.199  0.00  0.00    +0.000 HD
ATOM     29  H   UNL     1      -5.153  16.085  20.271  0.00  0.00    +0.000 HD
ENDBRANCH   2  27
BRANCH   3  30
ATOM     30  C   UNL     1      -5.900  13.000  18.703  0.00  0.00    +0.000 C 
BRANCH  30  31
ATOM     31  C   UNL     1      -4.809  12.135  18.109  0.00  0.00    +0.000 A 
ATOM     32  C   UNL     1      -4.919  11.548  16.841  0.00  0.00    +0.000 A 
ATOM     33  C   UNL     1      -3.965  10.645  16.388  0.00  0.00    +0.000 A 
ATOM     34  C   UNL     1      -2.857  10.337  17.179  0.00  0.00    +0.000 A 
ATOM     35  C   UNL     1      -2.703  10.956  18.417  0.00  0.00    +0.000 A 
ATOM     36  C   UNL     1      -3.669  11.852  18.880  0.00  0.00    +0.000 A 
ENDBRANCH  30  31
ENDBRANCH   3  30
TORSDOF 7
ENDMDL
MODEL 9
REMARK VINA RESULT:      -6.7      9.288     12.568
REMARK  Name = 
REMARK  8 active torsions:
REMARK  status: ('A' for Active; 'I' for Inactive)
REMARK    1  A    between atoms: C_1  and  C_2
REMARK    2  A    between atoms: C_2  and  N_3
REMARK    3  A    between atoms: N_3  and  C_18
REMARK    4  A    between atoms: C_4  and  C_6
REMARK    5  A    between atoms: C_9  and  C_10
REMARK    6  A    between atoms: C_19  and  N_20
REMARK    7  A    between atoms: N_21  and  C_22
REMARK    8  A    between atoms: C_22  and  C_23
REMARK                            x       y       z     vdW  Elec       q    Type
REMARK                         _______ _______ _______ _____ _____    ______ ____
ROOT
ATOM      1  C   UNL     1       4.778   5.674  17.161  0.00  0.00    +0.000 A 
ATOM      2  C   UNL     1       4.104   5.451  18.323  0.00  0.00    +0.000 A 
ATOM      3  N   UNL     1       3.198   6.412  18.789  0.00  0.00    +0.000 N 
ATOM      4  C   UNL     1       2.933   7.595  18.099  0.00  0.00    +0.000 A 
ATOM      5  O   UNL     1       2.169   8.474  18.493  0.00  0.00    +0.000 OA
ATOM      6  N   UNL     1       3.589   7.771  16.925  0.00  0.00    +0.000 N 
ATOM      7  C   UNL     1       4.390   6.854  16.323  0.00  0.00    +0.000 A 
ATOM      8  O   UNL     1       4.777   7.006  15.169  0.00  0.00    +0.000 OA
ATOM      9  H   UNL     1       3.379   8.609  16.408  0.00  0.00    +0.000 HD
ENDROOT
BRANCH   1  10
ATOM     10  N   UNL     1       5.898   4.932  16.759  0.00  0.00    +0.000 N 
ATOM     11  C   UNL     1       7.243   5.388  16.904  0.00  0.00    +0.000 C 
ATOM     12  O   UNL     1       8.207   4.751  16.491  0.00  0.00    +0.000 OA
BRANCH  11  13
ATOM     13  C   UNL     1       7.545   6.700  17.598  0.00  0.00    +0.000 A 
ATOM     14  C   UNL     1       7.302   7.944  17.017  0.00  0.00    +0.000 A 
ATOM     15  C   UNL     1       7.944   9.087  17.497  0.00  0.00    +0.000 A 
ATOM     16  C   UNL     1       8.695   9.046  18.677  0.00  0.00    +0.000 A 
ATOM     17  C   UNL     1       8.733   7.839  19.389  0.00  0.00    +0.000 A 
ATOM     18  C   UNL     1       8.177   6.670  18.848  0.00  0.00    +0.000 A 
BRANCH  16  19
ATOM     19  C   UNL     1       9.450  10.274  19.167  0.00  0.00    +0.000 C 
ATOM     20  C   UNL     1       9.104  10.589  20.635  0.00  0.00    +0.000 C 
ATOM     21  C   UNL     1       9.807  11.845  21.135  0.00  0.00    +0.000 C 
ATOM     22  C   UNL     1       9.508  13.043  20.241  0.00  0.00    +0.000 C 
ATOM     23  C   UNL     1       9.887  12.758  18.792  0.00  0.00    +0.000 C 
ATOM     24  C   UNL     1       9.196  11.499  18.263  0.00  0.00    +0.000 C 
ENDBRANCH  16  19
ENDBRANCH  11  13
BRANCH  10  26
ATOM     25  C   UNL     1       5.773   3.748  14.516  0.00  0.00    +0.000 C 
ATOM     26  C   UNL     1       5.683   3.653  16.041  0.00  0.00    +0.000 C 
ENDBRANCH  10  26
ENDBRANCH   1  10
BRANCH   2  27
ATOM     27  N   UNL     1       4.390   4.324  19.080  0.00  0.00    +0.000 N 
ATOM     28  H   UNL     1       4.330   3.465  18.535  0.00  0.00    +0.000 HD
ATOM     29  H   UNL     1       5.229   4.365  19.642  0.00  0.00    +0.000 HD
ENDBRANCH   2  27
BRANCH   3  30
ATOM     30  C   UNL     1       2.566   6.311  20.111  0.00  0.00    +0.000 C 
BRANCH  30  31
ATOM     31  C   UNL     1       2.017   4.944  20.461  0.00  0.00    +0.000 A 
ATOM     32  C   UNL     1       2.419   4.241  21.605  0.00  0.00    +0.000 A 
ATOM     33  C   UNL     1       2.006   2.932  21.819  0.00  0.00    +0.000 A 
ATOM     34  C   UNL     1       1.149   2.307  20.912  0.00  0.00    +0.000 A 
ATOM     35  C   UNL     1       0.693   3.012  19.800  0.00  0.00    +0.000 A 
ATOM     36  C   UNL     1       1.121   4.322  19.576  0.00  0.00    +0.000 A 
ENDBRANCH  30  31
ENDBRANCH   3  30
TORSDOF 7
ENDMDL
