MODEL 1
REMARK VINA RESULT:      -8.2      0.000      0.000
REMARK  Name = 
REMARK  4 active torsions:
REMARK  status: ('A' for Active; 'I' for Inactive)
REMARK    1  A    between atoms: C_2  and  C_3
REMARK    2  A    between atoms: C_3  and  N_4
REMARK    3  A    between atoms: N_15  and  C_16
REMARK    4  A    between atoms: C_21  and  C_22
REMARK                            x       y       z     vdW  Elec       q    Type
REMARK                         _______ _______ _______ _____ _____    ______ ____
ROOT
ATOM      1  O   UNL     1       1.817   6.736  17.779  0.00  0.00    +0.000 OA
ATOM      2  C   UNL     1       2.217   7.244  18.824  0.00  0.00    +0.000 C 
ATOM      3  N   UNL     1       2.760   6.562  19.904  0.00  0.00    +0.000 N 
ATOM      4  H   UNL     1       3.013   7.095  20.720  0.00  0.00    +0.000 HD
ENDROOT
BRANCH   3   5
ATOM      5  C   UNL     1       3.015   5.175  19.949  0.00  0.00    +0.000 A 
ATOM      6  C   UNL     1       2.068   4.361  20.592  0.00  0.00    +0.000 A 
ATOM      7  C   UNL     1       2.256   2.985  20.700  0.00  0.00    +0.000 A 
ATOM      8  C   UNL     1       3.377   2.402  20.134  0.00  0.00    +0.000 A 
ATOM      9  C   UNL     1       4.332   3.201  19.502  0.00  0.00    +0.000 A 
ATOM     10  C   UNL     1       4.203   4.610  19.408  0.00  0.00    +0.000 A 
BRANCH  10  11
ATOM     11  C   UNL     1       5.296   5.361  18.715  0.00  0.00    +0.000 A 
ATOM     12  C   UNL     1       5.136   5.816  17.386  0.00  0.00    +0.000 A 
ATOM     13  C   UNL     1       6.191   6.389  16.664  0.00  0.00    +0.000 A 
ATOM     14  C   UNL     1       7.428   6.571  17.271  0.00  0.00    +0.000 A 
ATOM     15  C   UNL     1       7.606   6.175  18.590  0.00  0.00    +0.000 A 
ATOM     16  C   UNL     1       6.562   5.556  19.290  0.00  0.00    +0.000 A 
ENDBRANCH  10  11
ENDBRANCH   3   5
BRANCH   2  17
ATOM     17  C   UNL     1       2.297   8.761  18.990  0.00  0.00    +0.000 C 
BRANCH  17  18
ATOM     18  N   UNL     1       1.052   9.368  19.416  0.00  0.00    +0.000 N 
ATOM     19  C   UNL     1       0.254  10.052  18.526  0.00  0.00    +0.000 A 
ATOM     20  N   UNL     1      -0.741  10.795  18.863  0.00  0.00    +0.000 NA
ATOM     21  C   UNL     1      -0.961  10.992  20.231  0.00  0.00    +0.000 A 
ATOM     22  N   UNL     1      -1.852  11.969  20.535  0.00  0.00    +0.000 NA
ATOM     23  C   UNL     1      -2.008  12.267  21.848  0.00  0.00    +0.000 A 
ATOM     24  C   UNL     1      -1.320  11.642  22.877  0.00  0.00    +0.000 A 
ATOM     25  C   UNL     1      -0.429  10.621  22.548  0.00  0.00    +0.000 A 
ATOM     26  C   UNL     1      -0.256  10.307  21.204  0.00  0.00    +0.000 A 
ATOM     27  C   UNL     1       0.740   9.330  20.757  0.00  0.00    +0.000 A 
ATOM     28  O   UNL     1       1.287   8.583  21.565  0.00  0.00    +0.000 OA
ENDBRANCH  17  18
ENDBRANCH   2  17
TORSDOF 4
ENDMDL
MODEL 2
REMARK VINA RESULT:      -8.0      1.581      1.730
REMARK  Name = 
REMARK  4 active torsions:
REMARK  status: ('A' for Active; 'I' for Inactive)
REMARK    1  A    between atoms: C_2  and  C_3
REMARK    2  A    between atoms: C_3  and  N_4
REMARK    3  A    between atoms: N_15  and  C_16
REMARK    4  A    between atoms: C_21  and  C_22
REMARK                            x       y       z     vdW  Elec       q    Type
REMARK                         _______ _______ _______ _____ _____    ______ ____
ROOT
ATOM      1  O   UNL     1       1.951   7.365  20.153  0.00  0.00    +0.000 OA
ATOM      2  C   UNL     1       2.246   7.810  19.047  0.00  0.00    +0.000 C 
ATOM      3  N   UNL     1       2.690   7.066  17.963  0.00  0.00    +0.000 N 
ATOM      4  H   UNL     1       2.937   7.560  17.120  0.00  0.00    +0.000 HD
ENDROOT
BRANCH   3   5
ATOM      5  C   UNL     1       2.802   5.660  17.929  0.00  0.00    +0.000 A 
ATOM      6  C   UNL     1       1.619   4.915  17.796  0.00  0.00    +0.000 A 
ATOM      7  C   UNL     1       1.642   3.523  17.778  0.00  0.00    +0.000 A 
ATOM      8  C   UNL     1       2.854   2.859  17.858  0.00  0.00    +0.000 A 
ATOM      9  C   UNL     1       4.037   3.586  18.003  0.00  0.00    +0.000 A 
ATOM     10  C   UNL     1       4.056   5.002  18.071  0.00  0.00    +0.000 A 
BRANCH  10  11
ATOM     11  C   UNL     1       5.384   5.671  18.236  0.00  0.00    +0.000 A 
ATOM     12  C   UNL     1       5.823   6.654  17.320  0.00  0.00    +0.000 A 
ATOM     13  C   UNL     1       7.117   7.187  17.365  0.00  0.00    +0.000 A 
ATOM     14  C   UNL     1       7.998   6.788  18.363  0.00  0.00    +0.000 A 
ATOM     15  C   UNL     1       7.583   5.856  19.306  0.00  0.00    +0.000 A 
ATOM     16  C   UNL     1       6.305   5.288  19.225  0.00  0.00    +0.000 A 
ENDBRANCH  10  11
ENDBRANCH   3   5
BRANCH   2  17
ATOM     17  C   UNL     1       2.003   9.276  18.690  0.00  0.00    +0.000 C 
BRANCH  17  18
ATOM     18  N   UNL     1       0.634   9.706  18.892  0.00  0.00    +0.000 N 
ATOM     19  C   UNL     1      -0.296   9.618  17.880  0.00  0.00    +0.000 A 
ATOM     20  N   UNL     1      -1.457  10.172  17.908  0.00  0.00    +0.000 NA
ATOM     21  C   UNL     1      -1.750  10.995  19.002  0.00  0.00    +0.000 A 
ATOM     22  N   UNL     1      -2.870  11.748  18.872  0.00  0.00    +0.000 NA
ATOM     23  C   UNL     1      -3.126  12.640  19.860  0.00  0.00    +0.000 A 
ATOM     24  C   UNL     1      -2.321  12.823  20.973  0.00  0.00    +0.000 A 
ATOM     25  C   UNL     1      -1.188  12.020  21.105  0.00  0.00    +0.000 A 
ATOM     26  C   UNL     1      -0.911  11.104  20.097  0.00  0.00    +0.000 A 
ATOM     27  C   UNL     1       0.315  10.300  20.093  0.00  0.00    +0.000 A 
ATOM     28  O   UNL     1       1.020  10.235  21.097  0.00  0.00    +0.000 OA
ENDBRANCH  17  18
ENDBRANCH   2  17
TORSDOF 4
ENDMDL
MODEL 3
REMARK VINA RESULT:      -7.8      1.574      2.718
REMARK  Name = 
REMARK  4 active torsions:
REMARK  status: ('A' for Active; 'I' for Inactive)
REMARK    1  A    between atoms: C_2  and  C_3
REMARK    2  A    between atoms: C_3  and  N_4
REMARK    3  A    between atoms: N_15  and  C_16
REMARK    4  A    between atoms: C_21  and  C_22
REMARK                            x       y       z     vdW  Elec       q    Type
REMARK                         _______ _______ _______ _____ _____    ______ ____
ROOT
ATOM      1  O   UNL     1       0.472   7.563  21.286  0.00  0.00    +0.000 OA
ATOM      2  C   UNL     1       1.491   7.935  20.708  0.00  0.00    +0.000 C 
ATOM      3  N   UNL     1       2.411   7.116  20.070  0.00  0.00    +0.000 N 
ATOM      4  H   UNL     1       3.228   7.545  19.668  0.00  0.00    +0.000 HD
ENDROOT
BRANCH   3   5
ATOM      5  C   UNL     1       2.288   5.719  19.914  0.00  0.00    +0.000 A 
ATOM      6  C   UNL     1       1.170   5.094  20.492  0.00  0.00    +0.000 A 
ATOM      7  C   UNL     1       0.989   3.717  20.404  0.00  0.00    +0.000 A 
ATOM      8  C   UNL     1       1.904   2.950  19.704  0.00  0.00    +0.000 A 
ATOM      9  C   UNL     1       3.026   3.556  19.134  0.00  0.00    +0.000 A 
ATOM     10  C   UNL     1       3.275   4.947  19.239  0.00  0.00    +0.000 A 
BRANCH  10  11
ATOM     11  C   UNL     1       4.516   5.480  18.595  0.00  0.00    +0.000 A 
ATOM     12  C   UNL     1       5.791   5.230  19.154  0.00  0.00    +0.000 A 
ATOM     13  C   UNL     1       6.952   5.836  18.659  0.00  0.00    +0.000 A 
ATOM     14  C   UNL     1       6.879   6.675  17.554  0.00  0.00    +0.000 A 
ATOM     15  C   UNL     1       5.648   6.907  16.953  0.00  0.00    +0.000 A 
ATOM     16  C   UNL     1       4.484   6.338  17.484  0.00  0.00    +0.000 A 
ENDBRANCH  10  11
ENDBRANCH   3   5
BRANCH   2  17
ATOM     17  C   UNL     1       1.785   9.420  20.495  0.00  0.00    +0.000 C 
BRANCH  17  18
ATOM     18  N   UNL     1       0.685  10.152  19.898  0.00  0.00    +0.000 N 
ATOM     19  C   UNL     1      -0.072  11.029  20.643  0.00  0.00    +0.000 A 
ATOM     20  N   UNL     1      -1.184  11.544  20.252  0.00  0.00    +0.000 NA
ATOM     21  C   UNL     1      -1.698  11.107  19.026  0.00  0.00    +0.000 A 
ATOM     22  N   UNL     1      -2.976  11.483  18.772  0.00  0.00    +0.000 NA
ATOM     23  C   UNL     1      -3.548  10.985  17.648  0.00  0.00    +0.000 A 
ATOM     24  C   UNL     1      -2.912  10.130  16.762  0.00  0.00    +0.000 A 
ATOM     25  C   UNL     1      -1.588   9.777  17.024  0.00  0.00    +0.000 A 
ATOM     26  C   UNL     1      -0.990  10.276  18.176  0.00  0.00    +0.000 A 
ATOM     27  C   UNL     1       0.355   9.870  18.592  0.00  0.00    +0.000 A 
ATOM     28  O   UNL     1       1.090   9.263  17.816  0.00  0.00    +0.000 OA
ENDBRANCH  17  18
ENDBRANCH   2  17
TORSDOF 4
ENDMDL
MODEL 4
REMARK VINA RESULT:      -7.8      1.703      2.035
REMARK  Name = 
REMARK  4 active torsions:
REMARK  status: ('A' for Active; 'I' for Inactive)
REMARK    1  A    between atoms: C_2  and  C_3
REMARK    2  A    between atoms: C_3  and  N_4
REMARK    3  A    between atoms: N_15  and  C_16
REMARK    4  A    between atoms: C_21  and  C_22
REMARK                            x       y       z     vdW  Elec       q    Type
REMARK                         _______ _______ _______ _____ _____    ______ ____
ROOT
ATOM      1  O   UNL     1       2.307   6.766  20.396  0.00  0.00    +0.000 OA
ATOM      2  C   UNL     1       2.245   7.198  19.248  0.00  0.00    +0.000 C 
ATOM      3  N   UNL     1       2.489   6.472  18.091  0.00  0.00    +0.000 N 
ATOM      4  H   UNL     1       2.443   6.958  17.210  0.00  0.00    +0.000 HD
ENDROOT
BRANCH   3   5
ATOM      5  C   UNL     1       2.776   5.092  18.039  0.00  0.00    +0.000 A 
ATOM      6  C   UNL     1       1.690   4.204  17.965  0.00  0.00    +0.000 A 
ATOM      7  C   UNL     1       1.887   2.826  17.935  0.00  0.00    +0.000 A 
ATOM      8  C   UNL     1       3.175   2.319  17.942  0.00  0.00    +0.000 A 
ATOM      9  C   UNL     1       4.263   3.190  18.027  0.00  0.00    +0.000 A 
ATOM     10  C   UNL     1       4.108   4.597  18.106  0.00  0.00    +0.000 A 
BRANCH  10  11
ATOM     11  C   UNL     1       5.349   5.427  18.203  0.00  0.00    +0.000 A 
ATOM     12  C   UNL     1       5.668   6.379  17.207  0.00  0.00    +0.000 A 
ATOM     13  C   UNL     1       6.890   7.062  17.195  0.00  0.00    +0.000 A 
ATOM     14  C   UNL     1       7.813   6.849  18.212  0.00  0.00    +0.000 A 
ATOM     15  C   UNL     1       7.513   5.953  19.230  0.00  0.00    +0.000 A 
ATOM     16  C   UNL     1       6.310   5.236  19.209  0.00  0.00    +0.000 A 
ENDBRANCH  10  11
ENDBRANCH   3   5
BRANCH   2  17
ATOM     17  C   UNL     1       1.725   8.605  18.956  0.00  0.00    +0.000 C 
BRANCH  17  18
ATOM     18  N   UNL     1       1.256   9.310  20.133  0.00  0.00    +0.000 N 
ATOM     19  C   UNL     1       1.218   8.692  21.363  0.00  0.00    +0.000 A 
ATOM     20  N   UNL     1       0.620   9.167  22.398  0.00  0.00    +0.000 NA
ATOM     21  C   UNL     1      -0.117  10.345  22.229  0.00  0.00    +0.000 A 
ATOM     22  N   UNL     1      -0.925  10.672  23.269  0.00  0.00    +0.000 NA
ATOM     23  C   UNL     1      -1.738  11.742  23.098  0.00  0.00    +0.000 A 
ATOM     24  C   UNL     1      -1.792  12.506  21.942  0.00  0.00    +0.000 A 
ATOM     25  C   UNL     1      -0.934  12.173  20.894  0.00  0.00    +0.000 A 
ATOM     26  C   UNL     1      -0.096  11.074  21.054  0.00  0.00    +0.000 A 
ATOM     27  C   UNL     1       0.755  10.581  19.967  0.00  0.00    +0.000 A 
ATOM     28  O   UNL     1       0.935  11.262  18.960  0.00  0.00    +0.000 OA
ENDBRANCH  17  18
ENDBRANCH   2  17
TORSDOF 4
ENDMDL
MODEL 5
REMARK VINA RESULT:      -7.8      1.939      2.276
REMARK  Name = 
REMARK  4 active torsions:
REMARK  status: ('A' for Active; 'I' for Inactive)
REMARK    1  A    between atoms: C_2  and  C_3
REMARK    2  A    between atoms: C_3  and  N_4
REMARK    3  A    between atoms: N_15  and  C_16
REMARK    4  A    between atoms: C_21  and  C_22
REMARK                            x       y       z     vdW  Elec       q    Type
REMARK                         _______ _______ _______ _____ _____    ______ ____
ROOT
ATOM      1  O   UNL     1       3.589   6.468  19.474  0.00  0.00    +0.000 OA
ATOM      2  C   UNL     1       2.789   6.627  18.555  0.00  0.00    +0.000 C 
ATOM      3  N   UNL     1       2.199   5.619  17.806  0.00  0.00    +0.000 N 
ATOM      4  H   UNL     1       1.588   5.886  17.052  0.00  0.00    +0.000 HD
ENDROOT
BRANCH   3   5
ATOM      5  C   UNL     1       2.365   4.235  18.027  0.00  0.00    +0.000 A 
ATOM      6  C   UNL     1       1.312   3.545  18.652  0.00  0.00    +0.000 A 
ATOM      7  C   UNL     1       1.407   2.183  18.927  0.00  0.00    +0.000 A 
ATOM      8  C   UNL     1       2.541   1.486  18.548  0.00  0.00    +0.000 A 
ATOM      9  C   UNL     1       3.600   2.162  17.937  0.00  0.00    +0.000 A 
ATOM     10  C   UNL     1       3.565   3.555  17.679  0.00  0.00    +0.000 A 
BRANCH  10  11
ATOM     11  C   UNL     1       4.764   4.170  17.027  0.00  0.00    +0.000 A 
ATOM     12  C   UNL     1       4.813   4.360  15.627  0.00  0.00    +0.000 A 
ATOM     13  C   UNL     1       5.975   4.794  14.976  0.00  0.00    +0.000 A 
ATOM     14  C   UNL     1       7.111   5.099  15.715  0.00  0.00    +0.000 A 
ATOM     15  C   UNL     1       7.083   4.965  17.098  0.00  0.00    +0.000 A 
ATOM     16  C   UNL     1       5.934   4.482  17.738  0.00  0.00    +0.000 A 
ENDBRANCH  10  11
ENDBRANCH   3   5
BRANCH   2  17
ATOM     17  C   UNL     1       2.221   8.007  18.227  0.00  0.00    +0.000 C 
BRANCH  17  18
ATOM     18  N   UNL     1       1.734   8.728  19.386  0.00  0.00    +0.000 N 
ATOM     19  C   UNL     1       1.511   8.084  20.582  0.00  0.00    +0.000 A 
ATOM     20  N   UNL     1       0.882   8.597  21.579  0.00  0.00    +0.000 NA
ATOM     21  C   UNL     1       0.306   9.860  21.394  0.00  0.00    +0.000 A 
ATOM     22  N   UNL     1      -0.548  10.251  22.372  0.00  0.00    +0.000 NA
ATOM     23  C   UNL     1      -1.212  11.416  22.174  0.00  0.00    +0.000 A 
ATOM     24  C   UNL     1      -1.070  12.214  21.049  0.00  0.00    +0.000 A 
ATOM     25  C   UNL     1      -0.165  11.810  20.067  0.00  0.00    +0.000 A 
ATOM     26  C   UNL     1       0.519  10.615  20.255  0.00  0.00    +0.000 A 
ATOM     27  C   UNL     1       1.402  10.055  19.227  0.00  0.00    +0.000 A 
ATOM     28  O   UNL     1       1.752  10.738  18.268  0.00  0.00    +0.000 OA
ENDBRANCH  17  18
ENDBRANCH   2  17
TORSDOF 4
ENDMDL
MODEL 6
REMARK VINA RESULT:      -7.7      1.928      2.528
REMARK  Name = 
REMARK  4 active torsions:
REMARK  status: ('A' for Active; 'I' for Inactive)
REMARK    1  A    between atoms: C_2  and  C_3
REMARK    2  A    between atoms: C_3  and  N_4
REMARK    3  A    between atoms: N_15  and  C_16
REMARK    4  A    between atoms: C_21  and  C_22
REMARK                            x       y       z     vdW  Elec       q    Type
REMARK                         _______ _______ _______ _____ _____    ______ ____
ROOT
ATOM      1  O   UNL     1       3.626   6.565  19.408  0.00  0.00    +0.000 OA
ATOM      2  C   UNL     1       2.953   6.681  18.386  0.00  0.00    +0.000 C 
ATOM      3  N   UNL     1       2.379   5.643  17.668  0.00  0.00    +0.000 N 
ATOM      4  H   UNL     1       1.883   5.871  16.822  0.00  0.00    +0.000 HD
ENDROOT
BRANCH   3   5
ATOM      5  C   UNL     1       2.409   4.281  18.036  0.00  0.00    +0.000 A 
ATOM      6  C   UNL     1       1.279   3.757  18.686  0.00  0.00    +0.000 A 
ATOM      7  C   UNL     1       1.240   2.429  19.102  0.00  0.00    +0.000 A 
ATOM      8  C   UNL     1       2.316   1.598  18.842  0.00  0.00    +0.000 A 
ATOM      9  C   UNL     1       3.451   2.109  18.208  0.00  0.00    +0.000 A 
ATOM     10  C   UNL     1       3.552   3.465  17.808  0.00  0.00    +0.000 A 
BRANCH  10  11
ATOM     11  C   UNL     1       4.822   3.899  17.145  0.00  0.00    +0.000 A 
ATOM     12  C   UNL     1       5.943   4.295  17.910  0.00  0.00    +0.000 A 
ATOM     13  C   UNL     1       7.089   4.843  17.321  0.00  0.00    +0.000 A 
ATOM     14  C   UNL     1       7.167   4.966  15.939  0.00  0.00    +0.000 A 
ATOM     15  C   UNL     1       6.101   4.546  15.155  0.00  0.00    +0.000 A 
ATOM     16  C   UNL     1       4.937   4.045  15.753  0.00  0.00    +0.000 A 
ENDBRANCH  10  11
ENDBRANCH   3   5
BRANCH   2  17
ATOM     17  C   UNL     1       2.537   8.055  17.863  0.00  0.00    +0.000 C 
BRANCH  17  18
ATOM     18  N   UNL     1       1.900   8.891  18.860  0.00  0.00    +0.000 N 
ATOM     19  C   UNL     1       1.471   8.366  20.059  0.00  0.00    +0.000 A 
ATOM     20  N   UNL     1       0.712   8.984  20.894  0.00  0.00    +0.000 NA
ATOM     21  C   UNL     1       0.217  10.235  20.508  0.00  0.00    +0.000 A 
ATOM     22  N   UNL     1      -0.766  10.733  21.299  0.00  0.00    +0.000 NA
ATOM     23  C   UNL     1      -1.350  11.887  20.894  0.00  0.00    +0.000 A 
ATOM     24  C   UNL     1      -1.006  12.573  19.740  0.00  0.00    +0.000 A 
ATOM     25  C   UNL     1       0.026  12.061  18.953  0.00  0.00    +0.000 A 
ATOM     26  C   UNL     1       0.631  10.875  19.354  0.00  0.00    +0.000 A 
ATOM     27  C   UNL     1       1.643  10.204  18.533  0.00  0.00    +0.000 A 
ATOM     28  O   UNL     1       2.162  10.787  17.584  0.00  0.00    +0.000 OA
ENDBRANCH  17  18
ENDBRANCH   2  17
TORSDOF 4
ENDMDL
MODEL 7
REMARK VINA RESULT:      -7.7      1.664      3.591
REMARK  Name = 
REMARK  4 active torsions:
REMARK  status: ('A' for Active; 'I' for Inactive)
REMARK    1  A    between atoms: C_2  and  C_3
REMARK    2  A    between atoms: C_3  and  N_4
REMARK    3  A    between atoms: N_15  and  C_16
REMARK    4  A    between atoms: C_21  and  C_22
REMARK                            x       y       z     vdW  Elec       q    Type
REMARK                         _______ _______ _______ _____ _____    ______ ____
ROOT
ATOM      1  O   UNL     1       1.615   7.471  17.157  0.00  0.00    +0.000 OA
ATOM      2  C   UNL     1       2.595   7.998  17.680  0.00  0.00    +0.000 C 
ATOM      3  N   UNL     1       3.881   7.478  17.706  0.00  0.00    +0.000 N 
ATOM      4  H   UNL     1       4.589   7.992  18.204  0.00  0.00    +0.000 HD
ENDROOT
BRANCH   3   5
ATOM      5  C   UNL     1       4.293   6.288  17.069  0.00  0.00    +0.000 A 
ATOM      6  C   UNL     1       5.148   6.405  15.961  0.00  0.00    +0.000 A 
ATOM      7  C   UNL     1       5.581   5.281  15.263  0.00  0.00    +0.000 A 
ATOM      8  C   UNL     1       5.193   4.022  15.687  0.00  0.00    +0.000 A 
ATOM      9  C   UNL     1       4.334   3.891  16.780  0.00  0.00    +0.000 A 
ATOM     10  C   UNL     1       3.833   5.010  17.492  0.00  0.00    +0.000 A 
BRANCH  10  11
ATOM     11  C   UNL     1       2.911   4.744  18.640  0.00  0.00    +0.000 A 
ATOM     12  C   UNL     1       3.326   4.968  19.973  0.00  0.00    +0.000 A 
ATOM     13  C   UNL     1       2.541   4.591  21.070  0.00  0.00    +0.000 A 
ATOM     14  C   UNL     1       1.291   4.022  20.864  0.00  0.00    +0.000 A 
ATOM     15  C   UNL     1       0.833   3.828  19.567  0.00  0.00    +0.000 A 
ATOM     16  C   UNL     1       1.644   4.161  18.474  0.00  0.00    +0.000 A 
ENDBRANCH  10  11
ENDBRANCH   3   5
BRANCH   2  17
ATOM     17  C   UNL     1       2.526   9.414  18.249  0.00  0.00    +0.000 C 
BRANCH  17  18
ATOM     18  N   UNL     1       1.361   9.653  19.078  0.00  0.00    +0.000 N 
ATOM     19  C   UNL     1       0.432  10.612  18.739  0.00  0.00    +0.000 A 
ATOM     20  N   UNL     1      -0.498  11.032  19.522  0.00  0.00    +0.000 NA
ATOM     21  C   UNL     1      -0.503  10.545  20.834  0.00  0.00    +0.000 A 
ATOM     22  N   UNL     1      -1.337  11.193  21.685  0.00  0.00    +0.000 NA
ATOM     23  C   UNL     1      -1.287  10.827  22.988  0.00  0.00    +0.000 A 
ATOM     24  C   UNL     1      -0.445   9.846  23.491  0.00  0.00    +0.000 A 
ATOM     25  C   UNL     1       0.385   9.170  22.597  0.00  0.00    +0.000 A 
ATOM     26  C   UNL     1       0.347   9.539  21.257  0.00  0.00    +0.000 A 
ATOM     27  C   UNL     1       1.263   8.966  20.267  0.00  0.00    +0.000 A 
ATOM     28  O   UNL     1       1.930   7.971  20.539  0.00  0.00    +0.000 OA
ENDBRANCH  17  18
ENDBRANCH   2  17
TORSDOF 4
ENDMDL
MODEL 8
REMARK VINA RESULT:      -7.6      1.928      2.316
REMARK  Name = 
REMARK  4 active torsions:
REMARK  status: ('A' for Active; 'I' for Inactive)
REMARK    1  A    between atoms: C_2  and  C_3
REMARK    2  A    between atoms: C_3  and  N_4
REMARK    3  A    between atoms: N_15  and  C_16
REMARK    4  A    between atoms: C_21  and  C_22
REMARK                            x       y       z     vdW  Elec       q    Type
REMARK                         _______ _______ _______ _____ _____    ______ ____
ROOT
ATOM      1  O   UNL     1       2.941   6.878  19.763  0.00  0.00    +0.000 OA
ATOM      2  C   UNL     1       2.573   6.921  18.591  0.00  0.00    +0.000 C 
ATOM      3  N   UNL     1       2.302   5.828  17.782  0.00  0.00    +0.000 N 
ATOM      4  H   UNL     1       2.046   6.001  16.823  0.00  0.00    +0.000 HD
ENDROOT
BRANCH   3   5
ATOM      5  C   UNL     1       2.332   4.479  18.195  0.00  0.00    +0.000 A 
ATOM      6  C   UNL     1       1.176   3.957  18.799  0.00  0.00    +0.000 A 
ATOM      7  C   UNL     1       1.133   2.643  19.256  0.00  0.00    +0.000 A 
ATOM      8  C   UNL     1       2.234   1.822  19.083  0.00  0.00    +0.000 A 
ATOM      9  C   UNL     1       3.394   2.331  18.496  0.00  0.00    +0.000 A 
ATOM     10  C   UNL     1       3.498   3.675  18.057  0.00  0.00    +0.000 A 
BRANCH  10  11
ATOM     11  C   UNL     1       4.796   4.108  17.451  0.00  0.00    +0.000 A 
ATOM     12  C   UNL     1       5.004   4.045  16.054  0.00  0.00    +0.000 A 
ATOM     13  C   UNL     1       6.253   4.302  15.475  0.00  0.00    +0.000 A 
ATOM     14  C   UNL     1       7.323   4.680  16.276  0.00  0.00    +0.000 A 
ATOM     15  C   UNL     1       7.142   4.795  17.649  0.00  0.00    +0.000 A 
ATOM     16  C   UNL     1       5.904   4.487  18.227  0.00  0.00    +0.000 A 
ENDBRANCH  10  11
ENDBRANCH   3   5
BRANCH   2  17
ATOM     17  C   UNL     1       2.216   8.247  17.921  0.00  0.00    +0.000 C 
BRANCH  17  18
ATOM     18  N   UNL     1       1.599   9.206  18.815  0.00  0.00    +0.000 N 
ATOM     19  C   UNL     1       0.890   8.793  19.921  0.00  0.00    +0.000 A 
ATOM     20  N   UNL     1       0.139   9.558  20.632  0.00  0.00    +0.000 NA
ATOM     21  C   UNL     1      -0.037  10.874  20.191  0.00  0.00    +0.000 A 
ATOM     22  N   UNL     1      -1.021  11.565  20.820  0.00  0.00    +0.000 NA
ATOM     23  C   UNL     1      -1.299  12.803  20.345  0.00  0.00    +0.000 A 
ATOM     24  C   UNL     1      -0.649  13.391  19.271  0.00  0.00    +0.000 A 
ATOM     25  C   UNL     1       0.379  12.678  18.654  0.00  0.00    +0.000 A 
ATOM     26  C   UNL     1       0.672  11.404  19.128  0.00  0.00    +0.000 A 
ATOM     27  C   UNL     1       1.655  10.538  18.471  0.00  0.00    +0.000 A 
ATOM     28  O   UNL     1       2.423  10.996  17.628  0.00  0.00    +0.000 OA
ENDBRANCH  17  18
ENDBRANCH   2  17
TORSDOF 4
ENDMDL
MODEL 9
REMARK VINA RESULT:      -7.6      1.608      2.074
REMARK  Name = 
REMARK  4 active torsions:
REMARK  status: ('A' for Active; 'I' for Inactive)
REMARK    1  A    between atoms: C_2  and  C_3
REMARK    2  A    between atoms: C_3  and  N_4
REMARK    3  A    between atoms: N_15  and  C_16
REMARK    4  A    between atoms: C_21  and  C_22
REMARK                            x       y       z     vdW  Elec       q    Type
REMARK                         _______ _______ _______ _____ _____    ______ ____
ROOT
ATOM      1  O   UNL     1       1.599   5.914  17.799  0.00  0.00    +0.000 OA
ATOM      2  C   UNL     1       2.326   6.608  18.506  0.00  0.00    +0.000 C 
ATOM      3  N   UNL     1       3.073   6.165  19.588  0.00  0.00    +0.000 N 
ATOM      4  H   UNL     1       3.599   6.846  20.111  0.00  0.00    +0.000 HD
ENDROOT
BRANCH   3   5
ATOM      5  C   UNL     1       3.182   4.823  20.009  0.00  0.00    +0.000 A 
ATOM      6  C   UNL     1       2.348   4.401  21.059  0.00  0.00    +0.000 A 
ATOM      7  C   UNL     1       2.410   3.099  21.549  0.00  0.00    +0.000 A 
ATOM      8  C   UNL     1       3.281   2.192  20.971  0.00  0.00    +0.000 A 
ATOM      9  C   UNL     1       4.124   2.601  19.936  0.00  0.00    +0.000 A 
ATOM     10  C   UNL     1       4.127   3.927  19.436  0.00  0.00    +0.000 A 
BRANCH  10  11
ATOM     11  C   UNL     1       5.082   4.249  18.330  0.00  0.00    +0.000 A 
ATOM     12  C   UNL     1       4.763   3.955  16.984  0.00  0.00    +0.000 A 
ATOM     13  C   UNL     1       5.693   4.109  15.949  0.00  0.00    +0.000 A 
ATOM     14  C   UNL     1       6.959   4.611  16.223  0.00  0.00    +0.000 A 
ATOM     15  C   UNL     1       7.291   4.952  17.528  0.00  0.00    +0.000 A 
ATOM     16  C   UNL     1       6.373   4.748  18.567  0.00  0.00    +0.000 A 
ENDBRANCH  10  11
ENDBRANCH   3   5
BRANCH   2  17
ATOM     17  C   UNL     1       2.610   8.069  18.159  0.00  0.00    +0.000 C 
BRANCH  17  18
ATOM     18  N   UNL     1       1.861   9.016  18.963  0.00  0.00    +0.000 N 
ATOM     19  C   UNL     1       1.273   8.633  20.148  0.00  0.00    +0.000 A 
ATOM     20  N   UNL     1       0.421   9.343  20.799  0.00  0.00    +0.000 NA
ATOM     21  C   UNL     1      -0.001  10.541  20.211  0.00  0.00    +0.000 A 
ATOM     22  N   UNL     1      -1.070  11.128  20.804  0.00  0.00    +0.000 NA
ATOM     23  C   UNL     1      -1.579  12.228  20.197  0.00  0.00    +0.000 A 
ATOM     24  C   UNL     1      -1.078  12.775  19.026  0.00  0.00    +0.000 A 
ATOM     25  C   UNL     1       0.040  12.175  18.445  0.00  0.00    +0.000 A 
ATOM     26  C   UNL     1       0.570  11.043  19.055  0.00  0.00    +0.000 A 
ATOM     27  C   UNL     1       1.669  10.281  18.456  0.00  0.00    +0.000 A 
ATOM     28  O   UNL     1       2.316  10.750  17.523  0.00  0.00    +0.000 OA
ENDBRANCH  17  18
ENDBRANCH   2  17
TORSDOF 4
ENDMDL
