MODEL 1
REMARK VINA RESULT:      -7.4      0.000      0.000
REMARK  Name = 
REMARK  5 active torsions:
REMARK  status: ('A' for Active; 'I' for Inactive)
REMARK    1  A    between atoms: C_1  and  C_2
REMARK    2  A    between atoms: C_7  and  C_8
REMARK    3  A    between atoms: N_10  and  C_11
REMARK    4  A    between atoms: C_17  and  C_18
REMARK    5  A    between atoms: C_20  and  C_21
REMARK                            x       y       z     vdW  Elec       q    Type
REMARK                         _______ _______ _______ _____ _____    ______ ____
ROOT
ATOM      1  C   UNL     1       1.639  10.378  18.481  0.00  0.00    +0.000 C 
ATOM      2  O   UNL     1       2.359  11.199  17.920  0.00  0.00    +0.000 OA
ATOM      3  N   UNL     1       0.423  10.723  19.047  0.00  0.00    +0.000 N 
ATOM      4  H   UNL     1      -0.059   9.997  19.564  0.00  0.00    +0.000 HD
ENDROOT
BRANCH   3   5
ATOM      5  C   UNL     1      -0.093  12.090  19.018  0.00  0.00    +0.000 C 
ATOM      6  C   UNL     1      -0.378  12.641  20.421  0.00  0.00    +0.000 C 
ATOM      7  C   UNL     1      -1.695  12.135  21.001  0.00  0.00    +0.000 C 
ATOM      8  N   UNL     1      -2.779  12.314  20.039  0.00  0.00    +0.000 N 
ATOM      9  C   UNL     1      -3.910  13.023  20.400  0.00  0.00    +0.000 A 
ATOM     10  C   UNL     1      -5.148  12.738  19.847  0.00  0.00    +0.000 A 
ATOM     11  C   UNL     1      -6.237  13.486  20.253  0.00  0.00    +0.000 A 
ATOM     12  C   UNL     1      -7.610  13.201  19.726  0.00  0.00    +0.000 C 
ATOM     13  N   UNL     1      -6.126  14.489  21.138  0.00  0.00    +0.000 NA
ATOM     14  C   UNL     1      -4.898  14.713  21.633  0.00  0.00    +0.000 A 
ATOM     15  C   UNL     1      -4.745  15.852  22.591  0.00  0.00    +0.000 C 
ATOM     16  N   UNL     1      -3.794  14.007  21.312  0.00  0.00    +0.000 NA
ATOM     17  C   UNL     1      -2.602  11.707  18.729  0.00  0.00    +0.000 C 
ATOM     18  C   UNL     1      -1.310  12.218  18.097  0.00  0.00    +0.000 C 
ENDBRANCH   3   5
BRANCH   1  25
ATOM     19  C   UNL     1       3.477   3.129  18.419  0.00  0.00    +0.000 C 
ATOM     20  C   UNL     1       2.996   4.495  18.823  0.00  0.00    +0.000 A 
ATOM     21  C   UNL     1       2.437   4.709  20.092  0.00  0.00    +0.000 A 
ATOM     22  C   UNL     1       1.975   5.971  20.488  0.00  0.00    +0.000 A 
ATOM     23  C   UNL     1       2.097   6.999  19.559  0.00  0.00    +0.000 A 
ATOM     24  O   UNL     1       1.699   8.289  19.747  0.00  0.00    +0.000 OA
ATOM     25  C   UNL     1       1.983   8.974  18.591  0.00  0.00    +0.000 A 
ATOM     26  C   UNL     1       2.573   8.117  17.680  0.00  0.00    +0.000 A 
ATOM     27  C   UNL     1       2.645   6.840  18.292  0.00  0.00    +0.000 A 
ATOM     28  C   UNL     1       3.107   5.566  17.913  0.00  0.00    +0.000 A 
ENDBRANCH   1  25
TORSDOF 2
ENDMDL
MODEL 2
REMARK VINA RESULT:      -7.4      1.146      1.353
REMARK  Name = 
REMARK  5 active torsions:
REMARK  status: ('A' for Active; 'I' for Inactive)
REMARK    1  A    between atoms: C_1  and  C_2
REMARK    2  A    between atoms: C_7  and  C_8
REMARK    3  A    between atoms: N_10  and  C_11
REMARK    4  A    between atoms: C_17  and  C_18
REMARK    5  A    between atoms: C_20  and  C_21
REMARK                            x       y       z     vdW  Elec       q    Type
REMARK                         _______ _______ _______ _____ _____    ______ ____
ROOT
ATOM      1  C   UNL     1       1.921   9.257  18.460  0.00  0.00    +0.000 C 
ATOM      2  O   UNL     1       2.291   9.849  17.450  0.00  0.00    +0.000 OA
ATOM      3  N   UNL     1       1.229   9.891  19.479  0.00  0.00    +0.000 N 
ATOM      4  H   UNL     1       1.043   9.342  20.311  0.00  0.00    +0.000 HD
ENDROOT
BRANCH   3   5
ATOM      5  C   UNL     1       0.888  11.311  19.427  0.00  0.00    +0.000 C 
ATOM      6  C   UNL     1       0.780  11.942  20.821  0.00  0.00    +0.000 C 
ATOM      7  C   UNL     1      -0.543  11.629  21.514  0.00  0.00    +0.000 C 
ATOM      8  N   UNL     1      -1.664  11.913  20.622  0.00  0.00    +0.000 N 
ATOM      9  C   UNL     1      -2.667  12.773  21.031  0.00  0.00    +0.000 A 
ATOM     10  C   UNL     1      -3.969  12.631  20.578  0.00  0.00    +0.000 A 
ATOM     11  C   UNL     1      -4.922  13.525  21.027  0.00  0.00    +0.000 A 
ATOM     12  C   UNL     1      -6.356  13.402  20.609  0.00  0.00    +0.000 C 
ATOM     13  N   UNL     1      -4.620  14.536  21.857  0.00  0.00    +0.000 NA
ATOM     14  C   UNL     1      -3.340  14.617  22.255  0.00  0.00    +0.000 A 
ATOM     15  C   UNL     1      -2.973  15.760  23.149  0.00  0.00    +0.000 C 
ATOM     16  N   UNL     1      -2.361  13.765  21.888  0.00  0.00    +0.000 NA
ATOM     17  C   UNL     1      -1.663  11.243  19.331  0.00  0.00    +0.000 C 
ATOM     18  C   UNL     1      -0.369  11.563  18.589  0.00  0.00    +0.000 C 
ENDBRANCH   3   5
BRANCH   1  25
ATOM     19  C   UNL     1       3.175   1.900  18.945  0.00  0.00    +0.000 C 
ATOM     20  C   UNL     1       2.825   3.331  19.250  0.00  0.00    +0.000 A 
ATOM     21  C   UNL     1       2.350   3.694  20.519  0.00  0.00    +0.000 A 
ATOM     22  C   UNL     1       2.010   5.018  20.825  0.00  0.00    +0.000 A 
ATOM     23  C   UNL     1       2.165   5.952  19.806  0.00  0.00    +0.000 A 
ATOM     24  O   UNL     1       1.880   7.282  19.899  0.00  0.00    +0.000 OA
ATOM     25  C   UNL     1       2.158   7.843  18.677  0.00  0.00    +0.000 A 
ATOM     26  C   UNL     1       2.632   6.868  17.818  0.00  0.00    +0.000 A 
ATOM     27  C   UNL     1       2.634   5.644  18.534  0.00  0.00    +0.000 A 
ATOM     28  C   UNL     1       2.974   4.309  18.247  0.00  0.00    +0.000 A 
ENDBRANCH   1  25
TORSDOF 2
ENDMDL
MODEL 3
REMARK VINA RESULT:      -7.4      2.886      3.360
REMARK  Name = 
REMARK  5 active torsions:
REMARK  status: ('A' for Active; 'I' for Inactive)
REMARK    1  A    between atoms: C_1  and  C_2
REMARK    2  A    between atoms: C_7  and  C_8
REMARK    3  A    between atoms: N_10  and  C_11
REMARK    4  A    between atoms: C_17  and  C_18
REMARK    5  A    between atoms: C_20  and  C_21
REMARK                            x       y       z     vdW  Elec       q    Type
REMARK                         _______ _______ _______ _____ _____    ______ ____
ROOT
ATOM      1  C   UNL     1       1.844   9.200  18.310  0.00  0.00    +0.000 C 
ATOM      2  O   UNL     1       2.360   9.843  17.400  0.00  0.00    +0.000 OA
ATOM      3  N   UNL     1       0.855   9.729  19.123  0.00  0.00    +0.000 N 
ATOM      4  H   UNL     1       0.552   9.155  19.902  0.00  0.00    +0.000 HD
ENDROOT
BRANCH   3   5
ATOM      5  C   UNL     1       0.352  11.091  18.958  0.00  0.00    +0.000 C 
ATOM      6  C   UNL     1       1.358  12.151  19.427  0.00  0.00    +0.000 C 
ATOM      7  C   UNL     1       1.376  12.321  20.942  0.00  0.00    +0.000 C 
ATOM      8  N   UNL     1       0.019  12.494  21.453  0.00  0.00    +0.000 N 
ATOM      9  C   UNL     1      -0.293  13.603  22.217  0.00  0.00    +0.000 A 
ATOM     10  C   UNL     1      -1.276  13.556  23.193  0.00  0.00    +0.000 A 
ATOM     11  C   UNL     1      -1.536  14.702  23.919  0.00  0.00    +0.000 A 
ATOM     12  C   UNL     1      -2.556  14.706  25.017  0.00  0.00    +0.000 C 
ATOM     13  N   UNL     1      -0.892  15.857  23.689  0.00  0.00    +0.000 NA
ATOM     14  C   UNL     1       0.045  15.835  22.727  0.00  0.00    +0.000 A 
ATOM     15  C   UNL     1       0.747  17.121  22.427  0.00  0.00    +0.000 C 
ATOM     16  N   UNL     1       0.380  14.749  21.999  0.00  0.00    +0.000 NA
ATOM     17  C   UNL     1      -0.942  11.451  21.130  0.00  0.00    +0.000 C 
ATOM     18  C   UNL     1      -1.019  11.276  19.615  0.00  0.00    +0.000 C 
ENDBRANCH   3   5
BRANCH   1  25
ATOM     19  C   UNL     1       3.808   2.044  19.238  0.00  0.00    +0.000 C 
ATOM     20  C   UNL     1       3.284   3.438  19.446  0.00  0.00    +0.000 A 
ATOM     21  C   UNL     1       2.664   3.795  20.653  0.00  0.00    +0.000 A 
ATOM     22  C   UNL     1       2.162   5.085  20.867  0.00  0.00    +0.000 A 
ATOM     23  C   UNL     1       2.309   5.993  19.823  0.00  0.00    +0.000 A 
ATOM     24  O   UNL     1       1.880   7.287  19.830  0.00  0.00    +0.000 OA
ATOM     25  C   UNL     1       2.206   7.829  18.611  0.00  0.00    +0.000 A 
ATOM     26  C   UNL     1       2.853   6.879  17.841  0.00  0.00    +0.000 A 
ATOM     27  C   UNL     1       2.919   5.690  18.611  0.00  0.00    +0.000 A 
ATOM     28  C   UNL     1       3.420   4.390  18.415  0.00  0.00    +0.000 A 
ENDBRANCH   1  25
TORSDOF 2
ENDMDL
MODEL 4
REMARK VINA RESULT:      -7.3      2.633      3.083
REMARK  Name = 
REMARK  5 active torsions:
REMARK  status: ('A' for Active; 'I' for Inactive)
REMARK    1  A    between atoms: C_1  and  C_2
REMARK    2  A    between atoms: C_7  and  C_8
REMARK    3  A    between atoms: N_10  and  C_11
REMARK    4  A    between atoms: C_17  and  C_18
REMARK    5  A    between atoms: C_20  and  C_21
REMARK                            x       y       z     vdW  Elec       q    Type
REMARK                         _______ _______ _______ _____ _____    ______ ____
ROOT
ATOM      1  C   UNL     1       1.992   8.984  18.188  0.00  0.00    +0.000 C 
ATOM      2  O   UNL     1       2.212   9.638  17.172  0.00  0.00    +0.000 OA
ATOM      3  N   UNL     1       1.205   9.464  19.222  0.00  0.00    +0.000 N 
ATOM      4  H   UNL     1       1.151   8.890  20.056  0.00  0.00    +0.000 HD
ENDROOT
BRANCH   3   5
ATOM      5  C   UNL     1       0.579  10.784  19.181  0.00  0.00    +0.000 C 
ATOM      6  C   UNL     1       1.244  11.781  20.139  0.00  0.00    +0.000 C 
ATOM      7  C   UNL     1       0.803  11.596  21.588  0.00  0.00    +0.000 C 
ATOM      8  N   UNL     1      -0.653  11.538  21.675  0.00  0.00    +0.000 N 
ATOM      9  C   UNL     1      -1.328  12.412  22.507  0.00  0.00    +0.000 A 
ATOM     10  C   UNL     1      -2.531  12.062  23.100  0.00  0.00    +0.000 A 
ATOM     11  C   UNL     1      -3.152  12.985  23.921  0.00  0.00    +0.000 A 
ATOM     12  C   UNL     1      -4.431  12.654  24.625  0.00  0.00    +0.000 C 
ATOM     13  N   UNL     1      -2.643  14.208  24.135  0.00  0.00    +0.000 NA
ATOM     14  C   UNL     1      -1.477  14.483  23.527  0.00  0.00    +0.000 A 
ATOM     15  C   UNL     1      -0.913  15.856  23.721  0.00  0.00    +0.000 C 
ATOM     16  N   UNL     1      -0.795  13.626  22.740  0.00  0.00    +0.000 NA
ATOM     17  C   UNL     1      -1.320  10.527  20.869  0.00  0.00    +0.000 C 
ATOM     18  C   UNL     1      -0.934  10.703  19.403  0.00  0.00    +0.000 C 
ENDBRANCH   3   5
BRANCH   1  25
ATOM     19  C   UNL     1       4.496   2.138  19.857  0.00  0.00    +0.000 C 
ATOM     20  C   UNL     1       4.230   3.456  19.183  0.00  0.00    +0.000 A 
ATOM     21  C   UNL     1       4.878   3.788  17.984  0.00  0.00    +0.000 A 
ATOM     22  C   UNL     1       4.652   5.013  17.342  0.00  0.00    +0.000 A 
ATOM     23  C   UNL     1       3.756   5.882  17.955  0.00  0.00    +0.000 A 
ATOM     24  O   UNL     1       3.412   7.119  17.498  0.00  0.00    +0.000 OA
ATOM     25  C   UNL     1       2.518   7.649  18.395  0.00  0.00    +0.000 A 
ATOM     26  C   UNL     1       2.288   6.740  19.411  0.00  0.00    +0.000 A 
ATOM     27  C   UNL     1       3.087   5.599  19.140  0.00  0.00    +0.000 A 
ATOM     28  C   UNL     1       3.324   4.363  19.769  0.00  0.00    +0.000 A 
ENDBRANCH   1  25
TORSDOF 2
ENDMDL
MODEL 5
REMARK VINA RESULT:      -7.3      2.632      4.480
REMARK  Name = 
REMARK  5 active torsions:
REMARK  status: ('A' for Active; 'I' for Inactive)
REMARK    1  A    between atoms: C_1  and  C_2
REMARK    2  A    between atoms: C_7  and  C_8
REMARK    3  A    between atoms: N_10  and  C_11
REMARK    4  A    between atoms: C_17  and  C_18
REMARK    5  A    between atoms: C_20  and  C_21
REMARK                            x       y       z     vdW  Elec       q    Type
REMARK                         _______ _______ _______ _____ _____    ______ ____
ROOT
ATOM      1  C   UNL     1       1.858   6.196  20.252  0.00  0.00    +0.000 C 
ATOM      2  O   UNL     1       1.285   5.352  20.936  0.00  0.00    +0.000 OA
ATOM      3  N   UNL     1       1.770   7.552  20.521  0.00  0.00    +0.000 N 
ATOM      4  H   UNL     1       2.204   8.176  19.851  0.00  0.00    +0.000 HD
ENDROOT
BRANCH   3   5
ATOM      5  C   UNL     1       0.990   8.079  21.639  0.00  0.00    +0.000 C 
ATOM      6  C   UNL     1      -0.459   8.397  21.247  0.00  0.00    +0.000 C 
ATOM      7  C   UNL     1      -0.595   9.721  20.503  0.00  0.00    +0.000 C 
ATOM      8  N   UNL     1       0.094  10.786  21.227  0.00  0.00    +0.000 N 
ATOM      9  C   UNL     1      -0.594  11.930  21.587  0.00  0.00    +0.000 A 
ATOM     10  C   UNL     1       0.046  13.154  21.695  0.00  0.00    +0.000 A 
ATOM     11  C   UNL     1      -0.703  14.257  22.059  0.00  0.00    +0.000 A 
ATOM     12  C   UNL     1      -0.081  15.617  22.153  0.00  0.00    +0.000 C 
ATOM     13  N   UNL     1      -2.013  14.173  22.337  0.00  0.00    +0.000 NA
ATOM     14  C   UNL     1      -2.570  12.956  22.216  0.00  0.00    +0.000 A 
ATOM     15  C   UNL     1      -4.021  12.832  22.559  0.00  0.00    +0.000 C 
ATOM     16  N   UNL     1      -1.915  11.841  21.833  0.00  0.00    +0.000 NA
ATOM     17  C   UNL     1       1.503  10.577  21.517  0.00  0.00    +0.000 C 
ATOM     18  C   UNL     1       1.679   9.277  22.298  0.00  0.00    +0.000 C 
ENDBRANCH   3   5
BRANCH   1  25
ATOM     19  C   UNL     1       6.133   3.843  14.586  0.00  0.00    +0.000 C 
ATOM     20  C   UNL     1       5.395   4.690  15.585  0.00  0.00    +0.000 A 
ATOM     21  C   UNL     1       5.533   6.086  15.577  0.00  0.00    +0.000 A 
ATOM     22  C   UNL     1       4.862   6.895  16.503  0.00  0.00    +0.000 A 
ATOM     23  C   UNL     1       4.054   6.244  17.430  0.00  0.00    +0.000 A 
ATOM     24  O   UNL     1       3.330   6.849  18.414  0.00  0.00    +0.000 OA
ATOM     25  C   UNL     1       2.688   5.856  19.112  0.00  0.00    +0.000 A 
ATOM     26  C   UNL     1       2.996   4.627  18.559  0.00  0.00    +0.000 A 
ATOM     27  C   UNL     1       3.882   4.866  17.476  0.00  0.00    +0.000 A 
ATOM     28  C   UNL     1       4.561   4.070  16.536  0.00  0.00    +0.000 A 
ENDBRANCH   1  25
TORSDOF 2
ENDMDL
MODEL 6
REMARK VINA RESULT:      -7.3      2.740      4.499
REMARK  Name = 
REMARK  5 active torsions:
REMARK  status: ('A' for Active; 'I' for Inactive)
REMARK    1  A    between atoms: C_1  and  C_2
REMARK    2  A    between atoms: C_7  and  C_8
REMARK    3  A    between atoms: N_10  and  C_11
REMARK    4  A    between atoms: C_17  and  C_18
REMARK    5  A    between atoms: C_20  and  C_21
REMARK                            x       y       z     vdW  Elec       q    Type
REMARK                         _______ _______ _______ _____ _____    ______ ____
ROOT
ATOM      1  C   UNL     1       2.119   6.260  20.243  0.00  0.00    +0.000 C 
ATOM      2  O   UNL     1       1.487   5.373  20.812  0.00  0.00    +0.000 OA
ATOM      3  N   UNL     1       1.908   7.604  20.503  0.00  0.00    +0.000 N 
ATOM      4  H   UNL     1       2.413   8.263  19.923  0.00  0.00    +0.000 HD
ENDROOT
BRANCH   3   5
ATOM      5  C   UNL     1       0.918   8.066  21.475  0.00  0.00    +0.000 C 
ATOM      6  C   UNL     1      -0.412   8.457  20.818  0.00  0.00    +0.000 C 
ATOM      7  C   UNL     1      -0.372   9.838  20.172  0.00  0.00    +0.000 C 
ATOM      8  N   UNL     1       0.165  10.823  21.107  0.00  0.00    +0.000 N 
ATOM      9  C   UNL     1      -0.568  11.956  21.408  0.00  0.00    +0.000 A 
ATOM     10  C   UNL     1       0.051  13.149  21.746  0.00  0.00    +0.000 A 
ATOM     11  C   UNL     1      -0.742  14.243  22.036  0.00  0.00    +0.000 A 
ATOM     12  C   UNL     1      -0.135  15.572  22.367  0.00  0.00    +0.000 C 
ATOM     13  N   UNL     1      -2.082  14.176  22.028  0.00  0.00    +0.000 NA
ATOM     14  C   UNL     1      -2.618  12.990  21.695  0.00  0.00    +0.000 A 
ATOM     15  C   UNL     1      -4.110  12.884  21.719  0.00  0.00    +0.000 C 
ATOM     16  N   UNL     1      -1.912  11.888  21.368  0.00  0.00    +0.000 NA
ATOM     17  C   UNL     1       1.479  10.550  21.666  0.00  0.00    +0.000 C 
ATOM     18  C   UNL     1       1.470   9.190  22.357  0.00  0.00    +0.000 C 
ENDBRANCH   3   5
BRANCH   1  25
ATOM     19  C   UNL     1       6.982   4.866  14.736  0.00  0.00    +0.000 C 
ATOM     20  C   UNL     1       6.329   5.033  16.080  0.00  0.00    +0.000 A 
ATOM     21  C   UNL     1       7.020   4.703  17.255  0.00  0.00    +0.000 A 
ATOM     22  C   UNL     1       6.429   4.842  18.518  0.00  0.00    +0.000 A 
ATOM     23  C   UNL     1       5.124   5.323  18.546  0.00  0.00    +0.000 A 
ATOM     24  O   UNL     1       4.375   5.518  19.668  0.00  0.00    +0.000 OA
ATOM     25  C   UNL     1       3.150   5.987  19.261  0.00  0.00    +0.000 A 
ATOM     26  C   UNL     1       3.133   6.099  17.883  0.00  0.00    +0.000 A 
ATOM     27  C   UNL     1       4.399   5.668  17.412  0.00  0.00    +0.000 A 
ATOM     28  C   UNL     1       5.010   5.524  16.153  0.00  0.00    +0.000 A 
ENDBRANCH   1  25
TORSDOF 2
ENDMDL
MODEL 7
REMARK VINA RESULT:      -7.2      4.093      9.625
REMARK  Name = 
REMARK  5 active torsions:
REMARK  status: ('A' for Active; 'I' for Inactive)
REMARK    1  A    between atoms: C_1  and  C_2
REMARK    2  A    between atoms: C_7  and  C_8
REMARK    3  A    between atoms: N_10  and  C_11
REMARK    4  A    between atoms: C_17  and  C_18
REMARK    5  A    between atoms: C_20  and  C_21
REMARK                            x       y       z     vdW  Elec       q    Type
REMARK                         _______ _______ _______ _____ _____    ______ ____
ROOT
ATOM      1  C   UNL     1       0.559  12.457  18.973  0.00  0.00    +0.000 C 
ATOM      2  O   UNL     1      -0.498  12.527  18.353  0.00  0.00    +0.000 OA
ATOM      3  N   UNL     1       1.072  11.253  19.430  0.00  0.00    +0.000 N 
ATOM      4  H   UNL     1       1.903  11.304  20.007  0.00  0.00    +0.000 HD
ENDROOT
BRANCH   3   5
ATOM      5  C   UNL     1       0.392   9.979  19.207  0.00  0.00    +0.000 C 
ATOM      6  C   UNL     1       0.449   9.059  20.434  0.00  0.00    +0.000 C 
ATOM      7  C   UNL     1       1.788   8.342  20.576  0.00  0.00    +0.000 C 
ATOM      8  N   UNL     1       2.164   7.709  19.314  0.00  0.00    +0.000 N 
ATOM      9  C   UNL     1       2.444   6.355  19.281  0.00  0.00    +0.000 A 
ATOM     10  C   UNL     1       3.343   5.826  18.368  0.00  0.00    +0.000 A 
ATOM     11  C   UNL     1       3.576   4.464  18.390  0.00  0.00    +0.000 A 
ATOM     12  C   UNL     1       4.567   3.835  17.459  0.00  0.00    +0.000 C 
ATOM     13  N   UNL     1       2.941   3.643  19.241  0.00  0.00    +0.000 NA
ATOM     14  C   UNL     1       2.081   4.221  20.096  0.00  0.00    +0.000 A 
ATOM     15  C   UNL     1       1.333   3.319  21.027  0.00  0.00    +0.000 C 
ATOM     16  N   UNL     1       1.825   5.544  20.159  0.00  0.00    +0.000 NA
ATOM     17  C   UNL     1       2.236   8.569  18.144  0.00  0.00    +0.000 C 
ATOM     18  C   UNL     1       0.899   9.277  17.944  0.00  0.00    +0.000 C 
ENDBRANCH   3   5
BRANCH   1  25
ATOM     19  C   UNL     1       5.245  18.035  20.663  0.00  0.00    +0.000 C 
ATOM     20  C   UNL     1       4.022  17.222  20.337  0.00  0.00    +0.000 A 
ATOM     21  C   UNL     1       2.752  17.818  20.320  0.00  0.00    +0.000 A 
ATOM     22  C   UNL     1       1.598  17.080  20.026  0.00  0.00    +0.000 A 
ATOM     23  C   UNL     1       1.776  15.727  19.754  0.00  0.00    +0.000 A 
ATOM     24  O   UNL     1       0.784  14.841  19.459  0.00  0.00    +0.000 OA
ATOM     25  C   UNL     1       1.376  13.616  19.273  0.00  0.00    +0.000 A 
ATOM     26  C   UNL     1       2.744  13.734  19.438  0.00  0.00    +0.000 A 
ATOM     27  C   UNL     1       3.012  15.091  19.755  0.00  0.00    +0.000 A 
ATOM     28  C   UNL     1       4.160  15.849  20.049  0.00  0.00    +0.000 A 
ENDBRANCH   1  25
TORSDOF 2
ENDMDL
MODEL 8
REMARK VINA RESULT:      -7.2      4.201      9.619
REMARK  Name = 
REMARK  5 active torsions:
REMARK  status: ('A' for Active; 'I' for Inactive)
REMARK    1  A    between atoms: C_1  and  C_2
REMARK    2  A    between atoms: C_7  and  C_8
REMARK    3  A    between atoms: N_10  and  C_11
REMARK    4  A    between atoms: C_17  and  C_18
REMARK    5  A    between atoms: C_20  and  C_21
REMARK                            x       y       z     vdW  Elec       q    Type
REMARK                         _______ _______ _______ _____ _____    ______ ____
ROOT
ATOM      1  C   UNL     1       0.801  12.472  19.351  0.00  0.00    +0.000 C 
ATOM      2  O   UNL     1      -0.406  12.635  19.199  0.00  0.00    +0.000 OA
ATOM      3  N   UNL     1       1.388  11.217  19.336  0.00  0.00    +0.000 N 
ATOM      4  H   UNL     1       2.376  11.176  19.557  0.00  0.00    +0.000 HD
ENDROOT
BRANCH   3   5
ATOM      5  C   UNL     1       0.613   9.994  19.137  0.00  0.00    +0.000 C 
ATOM      6  C   UNL     1       0.669   9.058  20.351  0.00  0.00    +0.000 C 
ATOM      7  C   UNL     1       1.962   8.251  20.418  0.00  0.00    +0.000 C 
ATOM      8  N   UNL     1       2.230   7.609  19.133  0.00  0.00    +0.000 N 
ATOM      9  C   UNL     1       2.416   6.240  19.074  0.00  0.00    +0.000 A 
ATOM     10  C   UNL     1       3.229   5.663  18.112  0.00  0.00    +0.000 A 
ATOM     11  C   UNL     1       3.370   4.288  18.110  0.00  0.00    +0.000 A 
ATOM     12  C   UNL     1       4.268   3.605  17.124  0.00  0.00    +0.000 C 
ATOM     13  N   UNL     1       2.726   3.502  18.985  0.00  0.00    +0.000 NA
ATOM     14  C   UNL     1       1.951   4.125  19.888  0.00  0.00    +0.000 A 
ATOM     15  C   UNL     1       1.192   3.265  20.849  0.00  0.00    +0.000 C 
ATOM     16  N   UNL     1       1.789   5.462  19.976  0.00  0.00    +0.000 NA
ATOM     17  C   UNL     1       2.301   8.476  17.968  0.00  0.00    +0.000 C 
ATOM     18  C   UNL     1       1.006   9.275  17.844  0.00  0.00    +0.000 C 
ENDBRANCH   3   5
BRANCH   1  25
ATOM     19  C   UNL     1       5.207  18.329  20.837  0.00  0.00    +0.000 C 
ATOM     20  C   UNL     1       4.548  17.144  20.188  0.00  0.00    +0.000 A 
ATOM     21  C   UNL     1       4.929  16.730  18.903  0.00  0.00    +0.000 A 
ATOM     22  C   UNL     1       4.324  15.633  18.275  0.00  0.00    +0.000 A 
ATOM     23  C   UNL     1       3.327  14.978  18.989  0.00  0.00    +0.000 A 
ATOM     24  O   UNL     1       2.614  13.902  18.551  0.00  0.00    +0.000 OA
ATOM     25  C   UNL     1       1.726  13.571  19.545  0.00  0.00    +0.000 A 
ATOM     26  C   UNL     1       1.890  14.431  20.616  0.00  0.00    +0.000 A 
ATOM     27  C   UNL     1       2.916  15.346  20.265  0.00  0.00    +0.000 A 
ATOM     28  C   UNL     1       3.537  16.448  20.881  0.00  0.00    +0.000 A 
ENDBRANCH   1  25
TORSDOF 2
ENDMDL
MODEL 9
REMARK VINA RESULT:      -7.2      2.822      3.412
REMARK  Name = 
REMARK  5 active torsions:
REMARK  status: ('A' for Active; 'I' for Inactive)
REMARK    1  A    between atoms: C_1  and  C_2
REMARK    2  A    between atoms: C_7  and  C_8
REMARK    3  A    between atoms: N_10  and  C_11
REMARK    4  A    between atoms: C_17  and  C_18
REMARK    5  A    between atoms: C_20  and  C_21
REMARK                            x       y       z     vdW  Elec       q    Type
REMARK                         _______ _______ _______ _____ _____    ______ ____
ROOT
ATOM      1  C   UNL     1       1.788   9.418  18.318  0.00  0.00    +0.000 C 
ATOM      2  O   UNL     1       2.296  10.120  17.448  0.00  0.00    +0.000 OA
ATOM      3  N   UNL     1       0.755   9.867  19.124  0.00  0.00    +0.000 N 
ATOM      4  H   UNL     1       0.460   9.249  19.871  0.00  0.00    +0.000 HD
ENDROOT
BRANCH   3   5
ATOM      5  C   UNL     1       0.192  11.210  18.998  0.00  0.00    +0.000 C 
ATOM      6  C   UNL     1       1.148  12.299  19.501  0.00  0.00    +0.000 C 
ATOM      7  C   UNL     1       1.157  12.424  21.022  0.00  0.00    +0.000 C 
ATOM      8  N   UNL     1      -0.208  12.520  21.533  0.00  0.00    +0.000 N 
ATOM      9  C   UNL     1      -0.571  13.591  22.329  0.00  0.00    +0.000 A 
ATOM     10  C   UNL     1      -1.551  13.470  23.300  0.00  0.00    +0.000 A 
ATOM     11  C   UNL     1      -1.865  14.581  24.060  0.00  0.00    +0.000 A 
ATOM     12  C   UNL     1      -2.885  14.506  25.155  0.00  0.00    +0.000 C 
ATOM     13  N   UNL     1      -1.273  15.770  23.867  0.00  0.00    +0.000 NA
ATOM     14  C   UNL     1      -0.334  15.819  22.907  0.00  0.00    +0.000 A 
ATOM     15  C   UNL     1       0.310  17.144  22.648  0.00  0.00    +0.000 C 
ATOM     16  N   UNL     1       0.050  14.772  22.148  0.00  0.00    +0.000 NA
ATOM     17  C   UNL     1      -1.120  11.446  21.176  0.00  0.00    +0.000 C 
ATOM     18  C   UNL     1      -1.187  11.313  19.657  0.00  0.00    +0.000 C 
ENDBRANCH   3   5
BRANCH   1  25
ATOM     19  C   UNL     1       3.877   2.506  20.263  0.00  0.00    +0.000 C 
ATOM     20  C   UNL     1       3.616   3.777  19.504  0.00  0.00    +0.000 A 
ATOM     21  C   UNL     1       4.041   3.916  18.174  0.00  0.00    +0.000 A 
ATOM     22  C   UNL     1       3.815   5.094  17.450  0.00  0.00    +0.000 A 
ATOM     23  C   UNL     1       3.151   6.118  18.117  0.00  0.00    +0.000 A 
ATOM     24  O   UNL     1       2.848   7.339  17.593  0.00  0.00    +0.000 OA
ATOM     25  C   UNL     1       2.208   8.054  18.575  0.00  0.00    +0.000 A 
ATOM     26  C   UNL     1       2.097   7.278  19.714  0.00  0.00    +0.000 A 
ATOM     27  C   UNL     1       2.707   6.029  19.430  0.00  0.00    +0.000 A 
ATOM     28  C   UNL     1       2.939   4.837  20.141  0.00  0.00    +0.000 A 
ENDBRANCH   1  25
TORSDOF 2
ENDMDL
