MODEL 1
REMARK VINA RESULT:      -7.5      0.000      0.000
REMARK  Name = 
REMARK  4 active torsions:
REMARK  status: ('A' for Active; 'I' for Inactive)
REMARK    1  A    between atoms: C_2  and  C_3
REMARK    2  A    between atoms: C_7  and  C_8
REMARK    3  A    between atoms: N_17  and  S_18
REMARK    4  A    between atoms: S_18  and  C_21
REMARK                            x       y       z     vdW  Elec       q    Type
REMARK                         _______ _______ _______ _____ _____    ______ ____
ROOT
ATOM      1  O   UNL     1       2.402   5.509  20.834  0.00  0.00    +0.000 OA
ATOM      2  C   UNL     1       2.373   5.927  19.678  0.00  0.00    +0.000 C 
ATOM      3  N   UNL     1       2.046   7.272  19.408  0.00  0.00    +0.000 N 
ATOM      4  C   UNL     1       1.794   7.814  18.066  0.00  0.00    +0.000 C 
ATOM      5  C   UNL     1       2.033   9.322  17.936  0.00  0.00    +0.000 C 
ATOM      6  N   UNL     1       1.374  10.106  19.012  0.00  0.00    +0.000 NA
ATOM      7  C   UNL     1       1.848   9.592  20.346  0.00  0.00    +0.000 C 
ATOM      8  C   UNL     1       1.552   8.092  20.528  0.00  0.00    +0.000 C 
ENDROOT
BRANCH   2   9
ATOM      9  C   UNL     1       2.733   5.053  18.558  0.00  0.00    +0.000 A 
ATOM     10  C   UNL     1       1.964   4.041  18.005  0.00  0.00    +0.000 A 
ATOM     11  N   UNL     1       2.657   3.553  16.947  0.00  0.00    +0.000 N 
ATOM     12  N   UNL     1       3.879   4.067  16.834  0.00  0.00    +0.000 NA
ATOM     13  C   UNL     1       3.985   4.940  17.856  0.00  0.00    +0.000 A 
ATOM     14  H   UNL     1       2.368   2.854  16.272  0.00  0.00    +0.000 HD
BRANCH  13  15
ATOM     15  C   UNL     1       5.286   5.574  18.110  0.00  0.00    +0.000 A 
ATOM     16  C   UNL     1       6.131   5.186  19.154  0.00  0.00    +0.000 A 
ATOM     17  C   UNL     1       7.394   5.771  19.297  0.00  0.00    +0.000 A 
ATOM     18  C   UNL     1       7.819   6.760  18.411  0.00  0.00    +0.000 A 
ATOM     19  C   UNL     1       6.974   7.183  17.390  0.00  0.00    +0.000 A 
ATOM     20  C   UNL     1       5.717   6.596  17.245  0.00  0.00    +0.000 A 
ENDBRANCH  13  15
ENDBRANCH   2   9
BRANCH   6  21
ATOM     21  S   UNL     1      -0.316  10.323  18.924  0.00  0.00    +0.000 S 
ATOM     22  O   UNL     1      -0.747   9.945  17.595  0.00  0.00    +0.000 OA
ATOM     23  O   UNL     1      -0.898   9.691  20.091  0.00  0.00    +0.000 OA
BRANCH  21  24
ATOM     24  C   UNL     1      -0.591  12.073  19.099  0.00  0.00    +0.000 A 
ATOM     25  C   UNL     1      -1.612  12.531  19.946  0.00  0.00    +0.000 A 
ATOM     26  C   UNL     1      -1.692  13.890  20.259  0.00  0.00    +0.000 A 
ATOM     27  C   UNL     1      -0.758  14.773  19.726  0.00  0.00    +0.000 A 
ATOM     28  F   UNL     1      -0.808  16.067  20.067  0.00  0.00    +0.000 F 
ATOM     29  C   UNL     1       0.241  14.328  18.865  0.00  0.00    +0.000 A 
ATOM     30  C   UNL     1       0.331  12.969  18.548  0.00  0.00    +0.000 A 
ENDBRANCH  21  24
ENDBRANCH   6  21
TORSDOF 4
ENDMDL
MODEL 2
REMARK VINA RESULT:      -7.2      3.580      8.176
REMARK  Name = 
REMARK  4 active torsions:
REMARK  status: ('A' for Active; 'I' for Inactive)
REMARK    1  A    between atoms: C_2  and  C_3
REMARK    2  A    between atoms: C_7  and  C_8
REMARK    3  A    between atoms: N_17  and  S_18
REMARK    4  A    between atoms: S_18  and  C_21
REMARK                            x       y       z     vdW  Elec       q    Type
REMARK                         _______ _______ _______ _____ _____    ______ ____
ROOT
ATOM      1  O   UNL     1       1.785   7.465  21.546  0.00  0.00    +0.000 OA
ATOM      2  C   UNL     1       1.822   7.233  20.338  0.00  0.00    +0.000 C 
ATOM      3  N   UNL     1       1.889   5.907  19.863  0.00  0.00    +0.000 N 
ATOM      4  C   UNL     1       2.134   5.537  18.463  0.00  0.00    +0.000 C 
ATOM      5  C   UNL     1       1.605   4.153  18.071  0.00  0.00    +0.000 C 
ATOM      6  N   UNL     1       2.002   3.090  19.031  0.00  0.00    +0.000 NA
ATOM      7  C   UNL     1       1.535   3.482  20.408  0.00  0.00    +0.000 C 
ATOM      8  C   UNL     1       2.114   4.838  20.852  0.00  0.00    +0.000 C 
ENDROOT
BRANCH   2   9
ATOM      9  C   UNL     1       1.739   8.325  19.365  0.00  0.00    +0.000 A 
ATOM     10  C   UNL     1       2.474   8.464  18.199  0.00  0.00    +0.000 A 
ATOM     11  N   UNL     1       2.014   9.576  17.574  0.00  0.00    +0.000 N 
ATOM     12  N   UNL     1       1.127  10.258  18.294  0.00  0.00    +0.000 NA
ATOM     13  C   UNL     1       0.991   9.553  19.436  0.00  0.00    +0.000 A 
ATOM     14  H   UNL     1       2.275   9.942  16.665  0.00  0.00    +0.000 HD
BRANCH  13  15
ATOM     15  C   UNL     1       0.188  10.125  20.525  0.00  0.00    +0.000 A 
ATOM     16  C   UNL     1       0.264   9.673  21.846  0.00  0.00    +0.000 A 
ATOM     17  C   UNL     1      -0.466  10.310  22.856  0.00  0.00    +0.000 A 
ATOM     18  C   UNL     1      -1.292  11.392  22.554  0.00  0.00    +0.000 A 
ATOM     19  C   UNL     1      -1.408  11.828  21.239  0.00  0.00    +0.000 A 
ATOM     20  C   UNL     1      -0.676  11.196  20.233  0.00  0.00    +0.000 A 
ENDBRANCH  13  15
ENDBRANCH   2   9
BRANCH   6  21
ATOM     21  S   UNL     1       3.614   2.533  18.987  0.00  0.00    +0.000 S 
ATOM     22  O   UNL     1       4.072   2.381  20.351  0.00  0.00    +0.000 OA
ATOM     23  O   UNL     1       3.665   1.415  18.067  0.00  0.00    +0.000 OA
BRANCH  21  24
ATOM     24  C   UNL     1       4.561   3.847  18.247  0.00  0.00    +0.000 A 
ATOM     25  C   UNL     1       5.279   4.728  19.069  0.00  0.00    +0.000 A 
ATOM     26  C   UNL     1       6.194   5.616  18.496  0.00  0.00    +0.000 A 
ATOM     27  C   UNL     1       6.379   5.615  17.117  0.00  0.00    +0.000 A 
ATOM     28  F   UNL     1       7.292   6.433  16.577  0.00  0.00    +0.000 F 
ATOM     29  C   UNL     1       5.650   4.761  16.295  0.00  0.00    +0.000 A 
ATOM     30  C   UNL     1       4.735   3.867  16.859  0.00  0.00    +0.000 A 
ENDBRANCH  21  24
ENDBRANCH   6  21
TORSDOF 4
ENDMDL
MODEL 3
REMARK VINA RESULT:      -7.2      2.487      3.193
REMARK  Name = 
REMARK  4 active torsions:
REMARK  status: ('A' for Active; 'I' for Inactive)
REMARK    1  A    between atoms: C_2  and  C_3
REMARK    2  A    between atoms: C_7  and  C_8
REMARK    3  A    between atoms: N_17  and  S_18
REMARK    4  A    between atoms: S_18  and  C_21
REMARK                            x       y       z     vdW  Elec       q    Type
REMARK                         _______ _______ _______ _____ _____    ______ ____
ROOT
ATOM      1  O   UNL     1       3.200   7.377  18.161  0.00  0.00    +0.000 OA
ATOM      2  C   UNL     1       2.568   7.019  19.154  0.00  0.00    +0.000 C 
ATOM      3  N   UNL     1       1.611   7.873  19.742  0.00  0.00    +0.000 N 
ATOM      4  C   UNL     1       0.953   7.622  21.031  0.00  0.00    +0.000 C 
ATOM      5  C   UNL     1      -0.405   8.314  21.195  0.00  0.00    +0.000 C 
ATOM      6  N   UNL     1      -0.366   9.755  20.834  0.00  0.00    +0.000 NA
ATOM      7  C   UNL     1       0.147   9.888  19.424  0.00  0.00    +0.000 C 
ATOM      8  C   UNL     1       1.543   9.262  19.254  0.00  0.00    +0.000 C 
ENDROOT
BRANCH   2   9
ATOM      9  C   UNL     1       2.752   5.678  19.714  0.00  0.00    +0.000 A 
ATOM     10  C   UNL     1       2.027   5.093  20.740  0.00  0.00    +0.000 A 
ATOM     11  N   UNL     1       2.486   3.825  20.873  0.00  0.00    +0.000 N 
ATOM     12  N   UNL     1       3.545   3.564  20.110  0.00  0.00    +0.000 NA
ATOM     13  C   UNL     1       3.780   4.709  19.438  0.00  0.00    +0.000 A 
ATOM     14  H   UNL     1       2.141   3.089  21.479  0.00  0.00    +0.000 HD
BRANCH  13  15
ATOM     15  C   UNL     1       4.991   4.805  18.612  0.00  0.00    +0.000 A 
ATOM     16  C   UNL     1       6.216   5.263  19.107  0.00  0.00    +0.000 A 
ATOM     17  C   UNL     1       7.355   5.256  18.294  0.00  0.00    +0.000 A 
ATOM     18  C   UNL     1       7.279   4.810  16.975  0.00  0.00    +0.000 A 
ATOM     19  C   UNL     1       6.059   4.388  16.457  0.00  0.00    +0.000 A 
ATOM     20  C   UNL     1       4.924   4.390  17.269  0.00  0.00    +0.000 A 
ENDBRANCH  13  15
ENDBRANCH   2   9
BRANCH   6  21
ATOM     21  S   UNL     1       0.367  10.835  21.932  0.00  0.00    +0.000 S 
ATOM     22  O   UNL     1       0.775  10.080  23.098  0.00  0.00    +0.000 OA
ATOM     23  O   UNL     1       1.332  11.621  21.192  0.00  0.00    +0.000 OA
BRANCH  21  24
ATOM     24  C   UNL     1      -0.920  11.955  22.444  0.00  0.00    +0.000 A 
ATOM     25  C   UNL     1      -0.982  13.239  21.883  0.00  0.00    +0.000 A 
ATOM     26  C   UNL     1      -2.104  14.039  22.109  0.00  0.00    +0.000 A 
ATOM     27  C   UNL     1      -3.148  13.551  22.889  0.00  0.00    +0.000 A 
ATOM     28  F   UNL     1      -4.244  14.300  23.064  0.00  0.00    +0.000 F 
ATOM     29  C   UNL     1      -3.081  12.287  23.470  0.00  0.00    +0.000 A 
ATOM     30  C   UNL     1      -1.962  11.479  23.247  0.00  0.00    +0.000 A 
ENDBRANCH  21  24
ENDBRANCH   6  21
TORSDOF 4
ENDMDL
MODEL 4
REMARK VINA RESULT:      -7.1      3.848      8.710
REMARK  Name = 
REMARK  4 active torsions:
REMARK  status: ('A' for Active; 'I' for Inactive)
REMARK    1  A    between atoms: C_2  and  C_3
REMARK    2  A    between atoms: C_7  and  C_8
REMARK    3  A    between atoms: N_17  and  S_18
REMARK    4  A    between atoms: S_18  and  C_21
REMARK                            x       y       z     vdW  Elec       q    Type
REMARK                         _______ _______ _______ _____ _____    ______ ____
ROOT
ATOM      1  O   UNL     1       1.159   7.973  21.453  0.00  0.00    +0.000 OA
ATOM      2  C   UNL     1       1.534   7.974  20.282  0.00  0.00    +0.000 C 
ATOM      3  N   UNL     1       2.117   6.822  19.714  0.00  0.00    +0.000 N 
ATOM      4  C   UNL     1       2.771   6.783  18.399  0.00  0.00    +0.000 C 
ATOM      5  C   UNL     1       2.802   5.396  17.747  0.00  0.00    +0.000 C 
ATOM      6  N   UNL     1       3.286   4.335  18.668  0.00  0.00    +0.000 NA
ATOM      7  C   UNL     1       2.425   4.337  19.905  0.00  0.00    +0.000 C 
ATOM      8  C   UNL     1       2.438   5.702  20.617  0.00  0.00    +0.000 C 
ENDROOT
BRANCH   2   9
ATOM      9  C   UNL     1       1.334   9.152  19.434  0.00  0.00    +0.000 A 
ATOM     10  C   UNL     1       2.017   9.471  18.272  0.00  0.00    +0.000 A 
ATOM     11  N   UNL     1       1.451  10.601  17.781  0.00  0.00    +0.000 N 
ATOM     12  N   UNL     1       0.538  11.130  18.592  0.00  0.00    +0.000 NA
ATOM     13  C   UNL     1       0.495  10.300  19.654  0.00  0.00    +0.000 A 
ATOM     14  H   UNL     1       1.652  11.081  16.910  0.00  0.00    +0.000 HD
BRANCH  13  15
ATOM     15  C   UNL     1      -0.315  10.687  20.818  0.00  0.00    +0.000 A 
ATOM     16  C   UNL     1      -0.191  10.075  22.068  0.00  0.00    +0.000 A 
ATOM     17  C   UNL     1      -0.932  10.541  23.161  0.00  0.00    +0.000 A 
ATOM     18  C   UNL     1      -1.816  11.608  23.011  0.00  0.00    +0.000 A 
ATOM     19  C   UNL     1      -1.978  12.202  21.764  0.00  0.00    +0.000 A 
ATOM     20  C   UNL     1      -1.235  11.741  20.676  0.00  0.00    +0.000 A 
ENDBRANCH  13  15
ENDBRANCH   2   9
BRANCH   6  21
ATOM     21  S   UNL     1       4.957   4.264  18.998  0.00  0.00    +0.000 S 
ATOM     22  O   UNL     1       5.328   5.480  19.692  0.00  0.00    +0.000 OA
ATOM     23  O   UNL     1       5.231   2.970  19.589  0.00  0.00    +0.000 OA
BRANCH  21  24
ATOM     24  C   UNL     1       5.767   4.284  17.413  0.00  0.00    +0.000 A 
ATOM     25  C   UNL     1       5.114   3.741  16.297  0.00  0.00    +0.000 A 
ATOM     26  C   UNL     1       5.641   3.948  15.019  0.00  0.00    +0.000 A 
ATOM     27  C   UNL     1       6.809   4.690  14.871  0.00  0.00    +0.000 A 
ATOM     28  F   UNL     1       7.284   4.929  13.642  0.00  0.00    +0.000 F 
ATOM     29  C   UNL     1       7.475   5.210  15.977  0.00  0.00    +0.000 A 
ATOM     30  C   UNL     1       6.954   5.010  17.259  0.00  0.00    +0.000 A 
ENDBRANCH  21  24
ENDBRANCH   6  21
TORSDOF 4
ENDMDL
MODEL 5
REMARK VINA RESULT:      -7.1      2.590      3.252
REMARK  Name = 
REMARK  4 active torsions:
REMARK  status: ('A' for Active; 'I' for Inactive)
REMARK    1  A    between atoms: C_2  and  C_3
REMARK    2  A    between atoms: C_7  and  C_8
REMARK    3  A    between atoms: N_17  and  S_18
REMARK    4  A    between atoms: S_18  and  C_21
REMARK                            x       y       z     vdW  Elec       q    Type
REMARK                         _______ _______ _______ _____ _____    ______ ____
ROOT
ATOM      1  O   UNL     1       3.087   7.568  17.995  0.00  0.00    +0.000 OA
ATOM      2  C   UNL     1       2.525   7.150  19.006  0.00  0.00    +0.000 C 
ATOM      3  N   UNL     1       1.572   7.943  19.679  0.00  0.00    +0.000 N 
ATOM      4  C   UNL     1       0.997   7.618  20.991  0.00  0.00    +0.000 C 
ATOM      5  C   UNL     1      -0.373   8.251  21.257  0.00  0.00    +0.000 C 
ATOM      6  N   UNL     1      -0.409   9.704  20.950  0.00  0.00    +0.000 NA
ATOM      7  C   UNL     1       0.019   9.909  19.520  0.00  0.00    +0.000 C 
ATOM      8  C   UNL     1       1.425   9.345  19.249  0.00  0.00    +0.000 C 
ENDROOT
BRANCH   2   9
ATOM      9  C   UNL     1       2.790   5.797  19.503  0.00  0.00    +0.000 A 
ATOM     10  C   UNL     1       2.223   5.186  20.610  0.00  0.00    +0.000 A 
ATOM     11  N   UNL     1       2.698   3.917  20.646  0.00  0.00    +0.000 N 
ATOM     12  N   UNL     1       3.634   3.677  19.730  0.00  0.00    +0.000 NA
ATOM     13  C   UNL     1       3.767   4.838  19.058  0.00  0.00    +0.000 A 
ATOM     14  H   UNL     1       2.445   3.166  21.279  0.00  0.00    +0.000 HD
BRANCH  13  15
ATOM     15  C   UNL     1       4.845   4.958  18.066  0.00  0.00    +0.000 A 
ATOM     16  C   UNL     1       4.685   4.609  16.722  0.00  0.00    +0.000 A 
ATOM     17  C   UNL     1       5.722   4.821  15.807  0.00  0.00    +0.000 A 
ATOM     18  C   UNL     1       6.934   5.367  16.228  0.00  0.00    +0.000 A 
ATOM     19  C   UNL     1       7.122   5.683  17.569  0.00  0.00    +0.000 A 
ATOM     20  C   UNL     1       6.085   5.477  18.480  0.00  0.00    +0.000 A 
ENDBRANCH  13  15
ENDBRANCH   2   9
BRANCH   6  21
ATOM     21  S   UNL     1       0.344  10.771  22.048  0.00  0.00    +0.000 S 
ATOM     22  O   UNL     1       0.714  10.015  23.225  0.00  0.00    +0.000 OA
ATOM     23  O   UNL     1       1.344  11.519  21.313  0.00  0.00    +0.000 OA
BRANCH  21  24
ATOM     24  C   UNL     1      -0.912  11.936  22.532  0.00  0.00    +0.000 A 
ATOM     25  C   UNL     1      -2.095  11.470  23.125  0.00  0.00    +0.000 A 
ATOM     26  C   UNL     1      -2.983  12.380  23.705  0.00  0.00    +0.000 A 
ATOM     27  C   UNL     1      -2.682  13.738  23.687  0.00  0.00    +0.000 A 
ATOM     28  F   UNL     1      -3.509  14.603  24.286  0.00  0.00    +0.000 F 
ATOM     29  C   UNL     1      -1.522  14.209  23.078  0.00  0.00    +0.000 A 
ATOM     30  C   UNL     1      -0.626  13.305  22.497  0.00  0.00    +0.000 A 
ENDBRANCH  21  24
ENDBRANCH   6  21
TORSDOF 4
ENDMDL
MODEL 6
REMARK VINA RESULT:      -7.0      2.545      3.414
REMARK  Name = 
REMARK  4 active torsions:
REMARK  status: ('A' for Active; 'I' for Inactive)
REMARK    1  A    between atoms: C_2  and  C_3
REMARK    2  A    between atoms: C_7  and  C_8
REMARK    3  A    between atoms: N_17  and  S_18
REMARK    4  A    between atoms: S_18  and  C_21
REMARK                            x       y       z     vdW  Elec       q    Type
REMARK                         _______ _______ _______ _____ _____    ______ ____
ROOT
ATOM      1  O   UNL     1       2.785   8.207  17.304  0.00  0.00    +0.000 OA
ATOM      2  C   UNL     1       2.317   8.011  18.424  0.00  0.00    +0.000 C 
ATOM      3  N   UNL     1       1.416   8.932  18.997  0.00  0.00    +0.000 N 
ATOM      4  C   UNL     1       0.959   8.891  20.393  0.00  0.00    +0.000 C 
ATOM      5  C   UNL     1      -0.391   9.573  20.638  0.00  0.00    +0.000 C 
ATOM      6  N   UNL     1      -0.469  10.932  20.042  0.00  0.00    +0.000 NA
ATOM      7  C   UNL     1      -0.168  10.833  18.569  0.00  0.00    +0.000 C 
ATOM      8  C   UNL     1       1.217  10.216  18.301  0.00  0.00    +0.000 C 
ENDROOT
BRANCH   2   9
ATOM      9  C   UNL     1       2.639   6.789  19.165  0.00  0.00    +0.000 A 
ATOM     10  C   UNL     1       2.156   6.413  20.408  0.00  0.00    +0.000 A 
ATOM     11  N   UNL     1       2.656   5.180  20.668  0.00  0.00    +0.000 N 
ATOM     12  N   UNL     1       3.536   4.765  19.760  0.00  0.00    +0.000 NA
ATOM     13  C   UNL     1       3.604   5.765  18.859  0.00  0.00    +0.000 A 
ATOM     14  H   UNL     1       2.459   4.572  21.456  0.00  0.00    +0.000 HD
BRANCH  13  15
ATOM     15  C   UNL     1       4.613   5.687  17.794  0.00  0.00    +0.000 A 
ATOM     16  C   UNL     1       5.796   6.432  17.811  0.00  0.00    +0.000 A 
ATOM     17  C   UNL     1       6.758   6.255  16.809  0.00  0.00    +0.000 A 
ATOM     18  C   UNL     1       6.540   5.348  15.773  0.00  0.00    +0.000 A 
ATOM     19  C   UNL     1       5.351   4.629  15.722  0.00  0.00    +0.000 A 
ATOM     20  C   UNL     1       4.395   4.801  16.724  0.00  0.00    +0.000 A 
ENDBRANCH  13  15
ENDBRANCH   2   9
BRANCH   6  21
ATOM     21  S   UNL     1       0.363  12.198  20.826  0.00  0.00    +0.000 S 
ATOM     22  O   UNL     1       1.549  11.642  21.441  0.00  0.00    +0.000 OA
ATOM     23  O   UNL     1       0.470  13.297  19.887  0.00  0.00    +0.000 OA
BRANCH  21  24
ATOM     24  C   UNL     1      -0.712  12.748  22.135  0.00  0.00    +0.000 A 
ATOM     25  C   UNL     1      -0.522  14.019  22.697  0.00  0.00    +0.000 A 
ATOM     26  C   UNL     1      -1.486  14.544  23.562  0.00  0.00    +0.000 A 
ATOM     27  C   UNL     1      -2.623  13.797  23.855  0.00  0.00    +0.000 A 
ATOM     28  F   UNL     1      -3.569  14.322  24.644  0.00  0.00    +0.000 F 
ATOM     29  C   UNL     1      -2.805  12.525  23.320  0.00  0.00    +0.000 A 
ATOM     30  C   UNL     1      -1.846  11.993  22.452  0.00  0.00    +0.000 A 
ENDBRANCH  21  24
ENDBRANCH   6  21
TORSDOF 4
ENDMDL
MODEL 7
REMARK VINA RESULT:      -7.0      4.192      9.637
REMARK  Name = 
REMARK  4 active torsions:
REMARK  status: ('A' for Active; 'I' for Inactive)
REMARK    1  A    between atoms: C_2  and  C_3
REMARK    2  A    between atoms: C_7  and  C_8
REMARK    3  A    between atoms: N_17  and  S_18
REMARK    4  A    between atoms: S_18  and  C_21
REMARK                            x       y       z     vdW  Elec       q    Type
REMARK                         _______ _______ _______ _____ _____    ______ ____
ROOT
ATOM      1  O   UNL     1      -2.099  14.746  21.019  0.00  0.00    +0.000 OA
ATOM      2  C   UNL     1      -2.257  13.556  21.285  0.00  0.00    +0.000 C 
ATOM      3  N   UNL     1      -1.216  12.628  21.073  0.00  0.00    +0.000 N 
ATOM      4  C   UNL     1      -1.369  11.170  21.171  0.00  0.00    +0.000 C 
ATOM      5  C   UNL     1      -0.070  10.416  21.478  0.00  0.00    +0.000 C 
ATOM      6  N   UNL     1       1.056  10.824  20.599  0.00  0.00    +0.000 NA
ATOM      7  C   UNL     1       1.249  12.313  20.718  0.00  0.00    +0.000 C 
ATOM      8  C   UNL     1      -0.024  13.094  20.343  0.00  0.00    +0.000 C 
ENDROOT
BRANCH   2   9
ATOM      9  C   UNL     1      -3.509  13.084  21.882  0.00  0.00    +0.000 A 
ATOM     10  C   UNL     1      -3.727  12.742  23.207  0.00  0.00    +0.000 A 
ATOM     11  N   UNL     1      -5.043  12.440  23.324  0.00  0.00    +0.000 N 
ATOM     12  N   UNL     1      -5.687  12.424  22.160  0.00  0.00    +0.000 NA
ATOM     13  C   UNL     1      -4.752  12.745  21.242  0.00  0.00    +0.000 A 
ATOM     14  H   UNL     1      -5.566  12.213  24.163  0.00  0.00    +0.000 HD
BRANCH  13  15
ATOM     15  C   UNL     1      -5.107  12.665  19.818  0.00  0.00    +0.000 A 
ATOM     16  C   UNL     1      -4.357  11.941  18.887  0.00  0.00    +0.000 A 
ATOM     17  C   UNL     1      -4.789  11.835  17.559  0.00  0.00    +0.000 A 
ATOM     18  C   UNL     1      -5.962  12.464  17.146  0.00  0.00    +0.000 A 
ATOM     19  C   UNL     1      -6.698  13.219  18.052  0.00  0.00    +0.000 A 
ATOM     20  C   UNL     1      -6.270  13.321  19.377  0.00  0.00    +0.000 A 
ENDBRANCH  13  15
ENDBRANCH   2   9
BRANCH   6  21
ATOM     21  S   UNL     1       1.058  10.261  18.988  0.00  0.00    +0.000 S 
ATOM     22  O   UNL     1      -0.313  10.009  18.600  0.00  0.00    +0.000 OA
ATOM     23  O   UNL     1       1.887  11.161  18.213  0.00  0.00    +0.000 OA
BRANCH  21  24
ATOM     24  C   UNL     1       1.901   8.693  19.023  0.00  0.00    +0.000 A 
ATOM     25  C   UNL     1       1.733   7.842  20.126  0.00  0.00    +0.000 A 
ATOM     26  C   UNL     1       2.207   6.529  20.065  0.00  0.00    +0.000 A 
ATOM     27  C   UNL     1       2.841   6.082  18.909  0.00  0.00    +0.000 A 
ATOM     28  F   UNL     1       3.251   4.810  18.835  0.00  0.00    +0.000 F 
ATOM     29  C   UNL     1       3.034   6.930  17.822  0.00  0.00    +0.000 A 
ATOM     30  C   UNL     1       2.560   8.244  17.873  0.00  0.00    +0.000 A 
ENDBRANCH  21  24
ENDBRANCH   6  21
TORSDOF 4
ENDMDL
MODEL 8
REMARK VINA RESULT:      -6.9      3.484      8.012
REMARK  Name = 
REMARK  4 active torsions:
REMARK  status: ('A' for Active; 'I' for Inactive)
REMARK    1  A    between atoms: C_2  and  C_3
REMARK    2  A    between atoms: C_7  and  C_8
REMARK    3  A    between atoms: N_17  and  S_18
REMARK    4  A    between atoms: S_18  and  C_21
REMARK                            x       y       z     vdW  Elec       q    Type
REMARK                         _______ _______ _______ _____ _____    ______ ____
ROOT
ATOM      1  O   UNL     1       1.840   7.449  21.585  0.00  0.00    +0.000 OA
ATOM      2  C   UNL     1       1.846   7.191  20.383  0.00  0.00    +0.000 C 
ATOM      3  N   UNL     1       1.901   5.855  19.934  0.00  0.00    +0.000 N 
ATOM      4  C   UNL     1       2.110   5.455  18.536  0.00  0.00    +0.000 C 
ATOM      5  C   UNL     1       1.571   4.063  18.188  0.00  0.00    +0.000 C 
ATOM      6  N   UNL     1       1.992   3.020  19.160  0.00  0.00    +0.000 NA
ATOM      7  C   UNL     1       1.561   3.442  20.541  0.00  0.00    +0.000 C 
ATOM      8  C   UNL     1       2.152   4.807  20.940  0.00  0.00    +0.000 C 
ENDROOT
BRANCH   2   9
ATOM      9  C   UNL     1       1.738   8.262  19.389  0.00  0.00    +0.000 A 
ATOM     10  C   UNL     1       2.397   8.344  18.173  0.00  0.00    +0.000 A 
ATOM     11  N   UNL     1       1.938   9.458  17.551  0.00  0.00    +0.000 N 
ATOM     12  N   UNL     1       1.128  10.191  18.311  0.00  0.00    +0.000 NA
ATOM     13  C   UNL     1       1.043   9.520  19.477  0.00  0.00    +0.000 A 
ATOM     14  H   UNL     1       2.150   9.792  16.617  0.00  0.00    +0.000 HD
BRANCH  13  15
ATOM     15  C   UNL     1       0.338  10.148  20.602  0.00  0.00    +0.000 A 
ATOM     16  C   UNL     1      -0.238   9.416  21.644  0.00  0.00    +0.000 A 
ATOM     17  C   UNL     1      -0.827  10.073  22.730  0.00  0.00    +0.000 A 
ATOM     18  C   UNL     1      -0.863  11.466  22.778  0.00  0.00    +0.000 A 
ATOM     19  C   UNL     1      -0.329  12.207  21.730  0.00  0.00    +0.000 A 
ATOM     20  C   UNL     1       0.263  11.552  20.650  0.00  0.00    +0.000 A 
ENDBRANCH  13  15
ENDBRANCH   2   9
BRANCH   6  21
ATOM     21  S   UNL     1       3.603   2.463  19.087  0.00  0.00    +0.000 S 
ATOM     22  O   UNL     1       4.108   2.377  20.440  0.00  0.00    +0.000 OA
ATOM     23  O   UNL     1       3.623   1.301  18.222  0.00  0.00    +0.000 OA
BRANCH  21  24
ATOM     24  C   UNL     1       4.521   3.738  18.252  0.00  0.00    +0.000 A 
ATOM     25  C   UNL     1       4.430   3.855  16.856  0.00  0.00    +0.000 A 
ATOM     26  C   UNL     1       4.965   4.978  16.220  0.00  0.00    +0.000 A 
ATOM     27  C   UNL     1       5.583   5.967  16.980  0.00  0.00    +0.000 A 
ATOM     28  F   UNL     1       6.052   7.065  16.373  0.00  0.00    +0.000 F 
ATOM     29  C   UNL     1       5.700   5.844  18.361  0.00  0.00    +0.000 A 
ATOM     30  C   UNL     1       5.165   4.725  19.007  0.00  0.00    +0.000 A 
ENDBRANCH  21  24
ENDBRANCH   6  21
TORSDOF 4
ENDMDL
MODEL 9
REMARK VINA RESULT:      -6.9      1.257      1.385
REMARK  Name = 
REMARK  4 active torsions:
REMARK  status: ('A' for Active; 'I' for Inactive)
REMARK    1  A    between atoms: C_2  and  C_3
REMARK    2  A    between atoms: C_7  and  C_8
REMARK    3  A    between atoms: N_17  and  S_18
REMARK    4  A    between atoms: S_18  and  C_21
REMARK                            x       y       z     vdW  Elec       q    Type
REMARK                         _______ _______ _______ _____ _____    ______ ____
ROOT
ATOM      1  O   UNL     1       2.501   5.274  20.896  0.00  0.00    +0.000 OA
ATOM      2  C   UNL     1       2.425   5.777  19.776  0.00  0.00    +0.000 C 
ATOM      3  N   UNL     1       2.079   7.135  19.621  0.00  0.00    +0.000 N 
ATOM      4  C   UNL     1       1.772   7.773  18.333  0.00  0.00    +0.000 C 
ATOM      5  C   UNL     1       1.996   9.289  18.307  0.00  0.00    +0.000 C 
ATOM      6  N   UNL     1       1.373   9.985  19.463  0.00  0.00    +0.000 NA
ATOM      7  C   UNL     1       1.902   9.377  20.737  0.00  0.00    +0.000 C 
ATOM      8  C   UNL     1       1.623   7.865  20.816  0.00  0.00    +0.000 C 
ENDROOT
BRANCH   2   9
ATOM      9  C   UNL     1       2.747   4.992  18.582  0.00  0.00    +0.000 A 
ATOM     10  C   UNL     1       1.969   4.008  17.992  0.00  0.00    +0.000 A 
ATOM     11  N   UNL     1       2.621   3.610  16.872  0.00  0.00    +0.000 N 
ATOM     12  N   UNL     1       3.828   4.154  16.742  0.00  0.00    +0.000 NA
ATOM     13  C   UNL     1       3.967   4.954  17.818  0.00  0.00    +0.000 A 
ATOM     14  H   UNL     1       2.312   2.955  16.161  0.00  0.00    +0.000 HD
BRANCH  13  15
ATOM     15  C   UNL     1       5.268   5.592  18.059  0.00  0.00    +0.000 A 
ATOM     16  C   UNL     1       6.159   5.157  19.045  0.00  0.00    +0.000 A 
ATOM     17  C   UNL     1       7.419   5.753  19.173  0.00  0.00    +0.000 A 
ATOM     18  C   UNL     1       7.794   6.799  18.332  0.00  0.00    +0.000 A 
ATOM     19  C   UNL     1       6.904   7.268  17.372  0.00  0.00    +0.000 A 
ATOM     20  C   UNL     1       5.650   6.670  17.241  0.00  0.00    +0.000 A 
ENDBRANCH  13  15
ENDBRANCH   2   9
BRANCH   6  21
ATOM     21  S   UNL     1      -0.320  10.191  19.456  0.00  0.00    +0.000 S 
ATOM     22  O   UNL     1      -0.708  10.663  18.144  0.00  0.00    +0.000 OA
ATOM     23  O   UNL     1      -0.908   8.987  20.006  0.00  0.00    +0.000 OA
BRANCH  21  24
ATOM     24  C   UNL     1      -0.655  11.499  20.616  0.00  0.00    +0.000 A 
ATOM     25  C   UNL     1      -1.093  11.180  21.911  0.00  0.00    +0.000 A 
ATOM     26  C   UNL     1      -1.145  12.177  22.888  0.00  0.00    +0.000 A 
ATOM     27  C   UNL     1      -0.762  13.475  22.564  0.00  0.00    +0.000 A 
ATOM     28  F   UNL     1      -0.766  14.418  23.516  0.00  0.00    +0.000 F 
ATOM     29  C   UNL     1      -0.352  13.803  21.276  0.00  0.00    +0.000 A 
ATOM     30  C   UNL     1      -0.294  12.811  20.291  0.00  0.00    +0.000 A 
ENDBRANCH  21  24
ENDBRANCH   6  21
TORSDOF 4
ENDMDL
