MODEL 1
REMARK VINA RESULT:      -7.6      0.000      0.000
REMARK  Name = 
REMARK  3 active torsions:
REMARK  status: ('A' for Active; 'I' for Inactive)
REMARK    1  A    between atoms: C_5  and  C_6
REMARK    2  A    between atoms: C_8  and  C_9
REMARK    3  A    between atoms: C_18  and  C_19
REMARK                            x       y       z     vdW  Elec       q    Type
REMARK                         _______ _______ _______ _____ _____    ______ ____
ROOT
ATOM      1  C   UNL     1       2.663   6.065  17.788  0.00  0.00    +0.000 C 
ATOM      2  C   UNL     1       2.485   7.574  17.916  0.00  0.00    +0.000 C 
ATOM      3  C   UNL     1       1.919   8.111  19.014  0.00  0.00    +0.000 C 
ATOM      4  N   UNL     1       1.501   7.318  20.063  0.00  0.00    +0.000 N 
ATOM      5  C   UNL     1       1.725   5.988  20.109  0.00  0.00    +0.000 A 
ATOM      6  N   UNL     1       1.506   5.109  21.049  0.00  0.00    +0.000 NA
ATOM      7  C   UNL     1       1.982   3.917  20.503  0.00  0.00    +0.000 A 
ATOM      8  N   UNL     1       2.427   4.040  19.232  0.00  0.00    +0.000 NA
ATOM      9  N   UNL     1       2.300   5.368  19.031  0.00  0.00    +0.000 N 
ATOM     10  H   UNL     1       1.052   7.777  20.848  0.00  0.00    +0.000 HD
ENDROOT
BRANCH   1  15
ATOM     11  F   UNL     1       7.862   4.598  16.105  0.00  0.00    +0.000 F 
ATOM     12  C   UNL     1       6.633   4.952  16.503  0.00  0.00    +0.000 A 
ATOM     13  C   UNL     1       6.450   6.153  17.178  0.00  0.00    +0.000 A 
ATOM     14  C   UNL     1       5.171   6.523  17.594  0.00  0.00    +0.000 A 
ATOM     15  C   UNL     1       4.068   5.689  17.334  0.00  0.00    +0.000 A 
ATOM     16  C   UNL     1       4.280   4.478  16.650  0.00  0.00    +0.000 A 
ATOM     17  C   UNL     1       5.560   4.111  16.235  0.00  0.00    +0.000 A 
ENDBRANCH   1  15
BRANCH   3  18
ATOM     18  C   UNL     1       1.737   9.566  19.136  0.00  0.00    +0.000 A 
ATOM     19  C   UNL     1       2.222  10.427  18.150  0.00  0.00    +0.000 A 
ATOM     20  C   UNL     1       2.014  11.788  18.304  0.00  0.00    +0.000 A 
ATOM     21  N   UNL     1       1.364  12.335  19.356  0.00  0.00    +0.000 NA
ATOM     22  C   UNL     1       0.907  11.483  20.297  0.00  0.00    +0.000 A 
ATOM     23  C   UNL     1       1.067  10.106  20.236  0.00  0.00    +0.000 A 
ENDBRANCH   3  18
BRANCH   7  24
ATOM     24  C   UNL     1       2.004   2.614  21.273  0.00  0.00    +0.000 C 
ATOM     25  F   UNL     1       1.752   1.531  20.485  0.00  0.00    +0.000 F 
ATOM     26  F   UNL     1       3.210   2.381  21.866  0.00  0.00    +0.000 F 
ATOM     27  F   UNL     1       1.072   2.585  22.266  0.00  0.00    +0.000 F 
ENDBRANCH   7  24
TORSDOF 3
ENDMDL
MODEL 2
REMARK VINA RESULT:      -7.6      2.763      6.096
REMARK  Name = 
REMARK  3 active torsions:
REMARK  status: ('A' for Active; 'I' for Inactive)
REMARK    1  A    between atoms: C_5  and  C_6
REMARK    2  A    between atoms: C_8  and  C_9
REMARK    3  A    between atoms: C_18  and  C_19
REMARK                            x       y       z     vdW  Elec       q    Type
REMARK                         _______ _______ _______ _____ _____    ______ ____
ROOT
ATOM      1  C   UNL     1       4.407   5.912  18.440  0.00  0.00    +0.000 C 
ATOM      2  C   UNL     1       5.079   5.809  17.075  0.00  0.00    +0.000 C 
ATOM      3  C   UNL     1       5.198   4.620  16.453  0.00  0.00    +0.000 C 
ATOM      4  N   UNL     1       4.701   3.465  17.019  0.00  0.00    +0.000 N 
ATOM      5  C   UNL     1       3.978   3.461  18.159  0.00  0.00    +0.000 A 
ATOM      6  N   UNL     1       3.345   2.499  18.775  0.00  0.00    +0.000 NA
ATOM      7  C   UNL     1       2.769   3.136  19.875  0.00  0.00    +0.000 A 
ATOM      8  N   UNL     1       3.089   4.445  19.974  0.00  0.00    +0.000 NA
ATOM      9  N   UNL     1       3.810   4.632  18.850  0.00  0.00    +0.000 N 
ATOM     10  H   UNL     1       4.849   2.595  16.518  0.00  0.00    +0.000 HD
ENDROOT
BRANCH   1  15
ATOM     11  F   UNL     1       0.569  10.062  18.683  0.00  0.00    +0.000 F 
ATOM     12  C   UNL     1       1.482   9.083  18.622  0.00  0.00    +0.000 A 
ATOM     13  C   UNL     1       2.278   8.959  17.490  0.00  0.00    +0.000 A 
ATOM     14  C   UNL     1       3.229   7.940  17.423  0.00  0.00    +0.000 A 
ATOM     15  C   UNL     1       3.385   7.040  18.493  0.00  0.00    +0.000 A 
ATOM     16  C   UNL     1       2.566   7.187  19.628  0.00  0.00    +0.000 A 
ATOM     17  C   UNL     1       1.617   8.208  19.691  0.00  0.00    +0.000 A 
ENDBRANCH   1  15
BRANCH   3  18
ATOM     18  C   UNL     1       5.855   4.516  15.141  0.00  0.00    +0.000 A 
ATOM     19  C   UNL     1       5.290   3.744  14.124  0.00  0.00    +0.000 A 
ATOM     20  C   UNL     1       5.939   3.688  12.902  0.00  0.00    +0.000 A 
ATOM     21  N   UNL     1       7.092   4.340  12.632  0.00  0.00    +0.000 NA
ATOM     22  C   UNL     1       7.620   5.078  13.631  0.00  0.00    +0.000 A 
ATOM     23  C   UNL     1       7.049   5.196  14.890  0.00  0.00    +0.000 A 
ENDBRANCH   3  18
BRANCH   7  24
ATOM     24  C   UNL     1       1.862   2.420  20.854  0.00  0.00    +0.000 C 
ATOM     25  F   UNL     1       2.485   2.122  22.029  0.00  0.00    +0.000 F 
ATOM     26  F   UNL     1       0.765   3.160  21.182  0.00  0.00    +0.000 F 
ATOM     27  F   UNL     1       1.401   1.238  20.359  0.00  0.00    +0.000 F 
ENDBRANCH   7  24
TORSDOF 3
ENDMDL
MODEL 3
REMARK VINA RESULT:      -7.6      0.041      1.186
REMARK  Name = 
REMARK  3 active torsions:
REMARK  status: ('A' for Active; 'I' for Inactive)
REMARK    1  A    between atoms: C_5  and  C_6
REMARK    2  A    between atoms: C_8  and  C_9
REMARK    3  A    between atoms: C_18  and  C_19
REMARK                            x       y       z     vdW  Elec       q    Type
REMARK                         _______ _______ _______ _____ _____    ______ ____
ROOT
ATOM      1  C   UNL     1       2.675   6.089  17.762  0.00  0.00    +0.000 C 
ATOM      2  C   UNL     1       2.492   7.598  17.891  0.00  0.00    +0.000 C 
ATOM      3  C   UNL     1       1.924   8.131  18.990  0.00  0.00    +0.000 C 
ATOM      4  N   UNL     1       1.509   7.337  20.038  0.00  0.00    +0.000 N 
ATOM      5  C   UNL     1       1.737   6.007  20.083  0.00  0.00    +0.000 A 
ATOM      6  N   UNL     1       1.521   5.126  21.022  0.00  0.00    +0.000 NA
ATOM      7  C   UNL     1       2.000   3.936  20.474  0.00  0.00    +0.000 A 
ATOM      8  N   UNL     1       2.445   4.062  19.204  0.00  0.00    +0.000 NA
ATOM      9  N   UNL     1       2.314   5.390  19.004  0.00  0.00    +0.000 N 
ATOM     10  H   UNL     1       1.059   7.793  20.824  0.00  0.00    +0.000 HD
ENDROOT
BRANCH   1  15
ATOM     11  F   UNL     1       7.878   4.640  16.077  0.00  0.00    +0.000 F 
ATOM     12  C   UNL     1       6.648   4.990  16.475  0.00  0.00    +0.000 A 
ATOM     13  C   UNL     1       6.461   6.190  17.150  0.00  0.00    +0.000 A 
ATOM     14  C   UNL     1       5.181   6.556  17.567  0.00  0.00    +0.000 A 
ATOM     15  C   UNL     1       4.081   5.718  17.308  0.00  0.00    +0.000 A 
ATOM     16  C   UNL     1       4.296   4.508  16.622  0.00  0.00    +0.000 A 
ATOM     17  C   UNL     1       5.578   4.146  16.206  0.00  0.00    +0.000 A 
ENDBRANCH   1  15
BRANCH   3  18
ATOM     18  C   UNL     1       1.737   9.586  19.114  0.00  0.00    +0.000 A 
ATOM     19  C   UNL     1       1.071  10.124  20.216  0.00  0.00    +0.000 A 
ATOM     20  C   UNL     1       0.932  11.500  20.294  0.00  0.00    +0.000 A 
ATOM     21  N   UNL     1       1.406  12.357  19.362  0.00  0.00    +0.000 NA
ATOM     22  C   UNL     1       2.044  11.814  18.305  0.00  0.00    +0.000 A 
ATOM     23  C   UNL     1       2.232  10.450  18.134  0.00  0.00    +0.000 A 
ENDBRANCH   3  18
BRANCH   7  24
ATOM     24  C   UNL     1       2.027   2.632  21.244  0.00  0.00    +0.000 C 
ATOM     25  F   UNL     1       1.115   2.599  22.256  0.00  0.00    +0.000 F 
ATOM     26  F   UNL     1       1.758   1.555  20.452  0.00  0.00    +0.000 F 
ATOM     27  F   UNL     1       3.240   2.398  21.819  0.00  0.00    +0.000 F 
ENDBRANCH   7  24
TORSDOF 3
ENDMDL
MODEL 4
REMARK VINA RESULT:      -7.6      2.758      6.064
REMARK  Name = 
REMARK  3 active torsions:
REMARK  status: ('A' for Active; 'I' for Inactive)
REMARK    1  A    between atoms: C_5  and  C_6
REMARK    2  A    between atoms: C_8  and  C_9
REMARK    3  A    between atoms: C_18  and  C_19
REMARK                            x       y       z     vdW  Elec       q    Type
REMARK                         _______ _______ _______ _____ _____    ______ ____
ROOT
ATOM      1  C   UNL     1       4.360   5.958  18.468  0.00  0.00    +0.000 C 
ATOM      2  C   UNL     1       5.030   5.858  17.102  0.00  0.00    +0.000 C 
ATOM      3  C   UNL     1       5.162   4.668  16.485  0.00  0.00    +0.000 C 
ATOM      4  N   UNL     1       4.681   3.508  17.056  0.00  0.00    +0.000 N 
ATOM      5  C   UNL     1       3.962   3.500  18.199  0.00  0.00    +0.000 A 
ATOM      6  N   UNL     1       3.342   2.533  18.821  0.00  0.00    +0.000 NA
ATOM      7  C   UNL     1       2.761   3.167  19.920  0.00  0.00    +0.000 A 
ATOM      8  N   UNL     1       3.065   4.481  20.012  0.00  0.00    +0.000 NA
ATOM      9  N   UNL     1       3.781   4.672  18.885  0.00  0.00    +0.000 N 
ATOM     10  H   UNL     1       4.839   2.639  16.559  0.00  0.00    +0.000 HD
ENDROOT
BRANCH   1  15
ATOM     11  F   UNL     1       0.552  10.140  18.609  0.00  0.00    +0.000 F 
ATOM     12  C   UNL     1       1.449   9.146  18.579  0.00  0.00    +0.000 A 
ATOM     13  C   UNL     1       1.557   8.288  19.667  0.00  0.00    +0.000 A 
ATOM     14  C   UNL     1       2.492   7.252  19.639  0.00  0.00    +0.000 A 
ATOM     15  C   UNL     1       3.324   7.073  18.519  0.00  0.00    +0.000 A 
ATOM     16  C   UNL     1       3.196   7.956  17.431  0.00  0.00    +0.000 A 
ATOM     17  C   UNL     1       2.259   8.990  17.462  0.00  0.00    +0.000 A 
ENDBRANCH   1  15
BRANCH   3  18
ATOM     18  C   UNL     1       5.816   4.566  15.171  0.00  0.00    +0.000 A 
ATOM     19  C   UNL     1       7.013   5.240  14.920  0.00  0.00    +0.000 A 
ATOM     20  C   UNL     1       7.598   5.102  13.672  0.00  0.00    +0.000 A 
ATOM     21  N   UNL     1       7.077   4.349  12.677  0.00  0.00    +0.000 NA
ATOM     22  C   UNL     1       5.919   3.710  12.942  0.00  0.00    +0.000 A 
ATOM     23  C   UNL     1       5.255   3.786  14.158  0.00  0.00    +0.000 A 
ENDBRANCH   3  18
BRANCH   7  24
ATOM     24  C   UNL     1       1.866   2.444  20.904  0.00  0.00    +0.000 C 
ATOM     25  F   UNL     1       2.534   2.031  22.018  0.00  0.00    +0.000 F 
ATOM     26  F   UNL     1       0.839   3.226  21.343  0.00  0.00    +0.000 F 
ATOM     27  F   UNL     1       1.302   1.328  20.364  0.00  0.00    +0.000 F 
ENDBRANCH   7  24
TORSDOF 3
ENDMDL
MODEL 5
REMARK VINA RESULT:      -7.6      0.075      1.519
REMARK  Name = 
REMARK  3 active torsions:
REMARK  status: ('A' for Active; 'I' for Inactive)
REMARK    1  A    between atoms: C_5  and  C_6
REMARK    2  A    between atoms: C_8  and  C_9
REMARK    3  A    between atoms: C_18  and  C_19
REMARK                            x       y       z     vdW  Elec       q    Type
REMARK                         _______ _______ _______ _____ _____    ______ ____
ROOT
ATOM      1  C   UNL     1       2.612   6.062  17.794  0.00  0.00    +0.000 C 
ATOM      2  C   UNL     1       2.438   7.572  17.922  0.00  0.00    +0.000 C 
ATOM      3  C   UNL     1       1.889   8.110  19.027  0.00  0.00    +0.000 C 
ATOM      4  N   UNL     1       1.484   7.320  20.083  0.00  0.00    +0.000 N 
ATOM      5  C   UNL     1       1.706   5.989  20.127  0.00  0.00    +0.000 A 
ATOM      6  N   UNL     1       1.498   5.111  21.072  0.00  0.00    +0.000 NA
ATOM      7  C   UNL     1       1.964   3.918  20.520  0.00  0.00    +0.000 A 
ATOM      8  N   UNL     1       2.392   4.040  19.243  0.00  0.00    +0.000 NA
ATOM      9  N   UNL     1       2.265   5.367  19.042  0.00  0.00    +0.000 N 
ATOM     10  H   UNL     1       1.046   7.781  20.874  0.00  0.00    +0.000 HD
ENDROOT
BRANCH   1  15
ATOM     11  F   UNL     1       7.819   4.728  16.029  0.00  0.00    +0.000 F 
ATOM     12  C   UNL     1       6.585   5.037  16.448  0.00  0.00    +0.000 A 
ATOM     13  C   UNL     1       5.555   4.120  16.281  0.00  0.00    +0.000 A 
ATOM     14  C   UNL     1       4.268   4.440  16.716  0.00  0.00    +0.000 A 
ATOM     15  C   UNL     1       4.009   5.683  17.321  0.00  0.00    +0.000 A 
ATOM     16  C   UNL     1       5.070   6.595  17.477  0.00  0.00    +0.000 A 
ATOM     17  C   UNL     1       6.355   6.271  17.042  0.00  0.00    +0.000 A 
ENDBRANCH   1  15
BRANCH   3  18
ATOM     18  C   UNL     1       1.710   9.566  19.151  0.00  0.00    +0.000 A 
ATOM     19  C   UNL     1       1.086  10.112  20.274  0.00  0.00    +0.000 A 
ATOM     20  C   UNL     1       0.954  11.489  20.350  0.00  0.00    +0.000 A 
ATOM     21  N   UNL     1       1.397  12.340  19.397  0.00  0.00    +0.000 NA
ATOM     22  C   UNL     1       1.994  11.789  18.321  0.00  0.00    +0.000 A 
ATOM     23  C   UNL     1       2.172  10.424  18.149  0.00  0.00    +0.000 A 
ENDBRANCH   3  18
BRANCH   7  24
ATOM     24  C   UNL     1       1.995   2.616  21.292  0.00  0.00    +0.000 C 
ATOM     25  F   UNL     1       3.195   2.391  21.897  0.00  0.00    +0.000 F 
ATOM     26  F   UNL     1       1.056   2.574  22.279  0.00  0.00    +0.000 F 
ATOM     27  F   UNL     1       1.766   1.537  20.492  0.00  0.00    +0.000 F 
ENDBRANCH   7  24
TORSDOF 3
ENDMDL
MODEL 6
REMARK VINA RESULT:      -7.5      2.013      5.014
REMARK  Name = 
REMARK  3 active torsions:
REMARK  status: ('A' for Active; 'I' for Inactive)
REMARK    1  A    between atoms: C_5  and  C_6
REMARK    2  A    between atoms: C_8  and  C_9
REMARK    3  A    between atoms: C_18  and  C_19
REMARK                            x       y       z     vdW  Elec       q    Type
REMARK                         _______ _______ _______ _____ _____    ______ ____
ROOT
ATOM      1  C   UNL     1       3.350   6.030  19.140  0.00  0.00    +0.000 C 
ATOM      2  C   UNL     1       2.428   7.245  19.152  0.00  0.00    +0.000 C 
ATOM      3  C   UNL     1       2.582   8.236  18.253  0.00  0.00    +0.000 C 
ATOM      4  N   UNL     1       3.562   8.177  17.284  0.00  0.00    +0.000 N 
ATOM      5  C   UNL     1       4.348   7.093  17.104  0.00  0.00    +0.000 A 
ATOM      6  N   UNL     1       5.237   6.816  16.188  0.00  0.00    +0.000 NA
ATOM      7  C   UNL     1       5.675   5.537  16.533  0.00  0.00    +0.000 A 
ATOM      8  N   UNL     1       5.119   5.059  17.668  0.00  0.00    +0.000 NA
ATOM      9  N   UNL     1       4.248   6.042  17.976  0.00  0.00    +0.000 N 
ATOM     10  H   UNL     1       3.651   8.968  16.656  0.00  0.00    +0.000 HD
ENDROOT
BRANCH   1  15
ATOM     11  F   UNL     1       0.425   1.195  19.414  0.00  0.00    +0.000 F 
ATOM     12  C   UNL     1       1.122   2.337  19.353  0.00  0.00    +0.000 A 
ATOM     13  C   UNL     1       1.881   2.736  20.447  0.00  0.00    +0.000 A 
ATOM     14  C   UNL     1       2.607   3.926  20.387  0.00  0.00    +0.000 A 
ATOM     15  C   UNL     1       2.575   4.722  19.227  0.00  0.00    +0.000 A 
ATOM     16  C   UNL     1       1.799   4.296  18.133  0.00  0.00    +0.000 A 
ATOM     17  C   UNL     1       1.075   3.105  18.197  0.00  0.00    +0.000 A 
ENDBRANCH   1  15
BRANCH   3  18
ATOM     18  C   UNL     1       1.700   9.414  18.267  0.00  0.00    +0.000 A 
ATOM     19  C   UNL     1       0.317   9.267  18.154  0.00  0.00    +0.000 A 
ATOM     20  C   UNL     1      -0.472  10.405  18.186  0.00  0.00    +0.000 A 
ATOM     21  N   UNL     1       0.021  11.657  18.323  0.00  0.00    +0.000 NA
ATOM     22  C   UNL     1       1.360  11.774  18.429  0.00  0.00    +0.000 A 
ATOM     23  C   UNL     1       2.235  10.698  18.404  0.00  0.00    +0.000 A 
ENDBRANCH   3  18
BRANCH   7  24
ATOM     24  C   UNL     1       6.672   4.761  15.699  0.00  0.00    +0.000 C 
ATOM     25  F   UNL     1       7.770   4.379  16.410  0.00  0.00    +0.000 F 
ATOM     26  F   UNL     1       6.138   3.618  15.181  0.00  0.00    +0.000 F 
ATOM     27  F   UNL     1       7.137   5.486  14.644  0.00  0.00    +0.000 F 
ENDBRANCH   7  24
TORSDOF 3
ENDMDL
MODEL 7
REMARK VINA RESULT:      -7.5      2.057      5.070
REMARK  Name = 
REMARK  3 active torsions:
REMARK  status: ('A' for Active; 'I' for Inactive)
REMARK    1  A    between atoms: C_5  and  C_6
REMARK    2  A    between atoms: C_8  and  C_9
REMARK    3  A    between atoms: C_18  and  C_19
REMARK                            x       y       z     vdW  Elec       q    Type
REMARK                         _______ _______ _______ _____ _____    ______ ____
ROOT
ATOM      1  C   UNL     1       3.517   5.994  18.943  0.00  0.00    +0.000 C 
ATOM      2  C   UNL     1       2.587   7.200  19.031  0.00  0.00    +0.000 C 
ATOM      3  C   UNL     1       2.656   8.191  18.122  0.00  0.00    +0.000 C 
ATOM      4  N   UNL     1       3.552   8.140  17.075  0.00  0.00    +0.000 N 
ATOM      5  C   UNL     1       4.331   7.065  16.830  0.00  0.00    +0.000 A 
ATOM      6  N   UNL     1       5.143   6.795  15.843  0.00  0.00    +0.000 NA
ATOM      7  C   UNL     1       5.622   5.521  16.150  0.00  0.00    +0.000 A 
ATOM      8  N   UNL     1       5.167   5.039  17.328  0.00  0.00    +0.000 NA
ATOM      9  N   UNL     1       4.315   6.013  17.708  0.00  0.00    +0.000 N 
ATOM     10  H   UNL     1       3.580   8.932  16.441  0.00  0.00    +0.000 HD
ENDROOT
BRANCH   1  15
ATOM     11  F   UNL     1       0.785   1.077  19.546  0.00  0.00    +0.000 F 
ATOM     12  C   UNL     1       1.426   2.244  19.400  0.00  0.00    +0.000 A 
ATOM     13  C   UNL     1       1.131   3.057  18.312  0.00  0.00    +0.000 A 
ATOM     14  C   UNL     1       1.798   4.272  18.157  0.00  0.00    +0.000 A 
ATOM     15  C   UNL     1       2.766   4.678  19.095  0.00  0.00    +0.000 A 
ATOM     16  C   UNL     1       3.047   3.836  20.187  0.00  0.00    +0.000 A 
ATOM     17  C   UNL     1       2.377   2.622  20.339  0.00  0.00    +0.000 A 
ENDBRANCH   1  15
BRANCH   3  18
ATOM     18  C   UNL     1       1.767   9.361  18.210  0.00  0.00    +0.000 A 
ATOM     19  C   UNL     1       0.380   9.201  18.186  0.00  0.00    +0.000 A 
ATOM     20  C   UNL     1      -0.414  10.331  18.285  0.00  0.00    +0.000 A 
ATOM     21  N   UNL     1       0.075  11.586  18.406  0.00  0.00    +0.000 NA
ATOM     22  C   UNL     1       1.417  11.715  18.424  0.00  0.00    +0.000 A 
ATOM     23  C   UNL     1       2.298  10.647  18.328  0.00  0.00    +0.000 A 
ENDBRANCH   3  18
BRANCH   7  24
ATOM     24  C   UNL     1       6.553   4.754  15.236  0.00  0.00    +0.000 C 
ATOM     25  F   UNL     1       6.875   5.448  14.108  0.00  0.00    +0.000 F 
ATOM     26  F   UNL     1       7.734   4.441  15.841  0.00  0.00    +0.000 F 
ATOM     27  F   UNL     1       6.009   3.578  14.815  0.00  0.00    +0.000 F 
ENDBRANCH   7  24
TORSDOF 3
ENDMDL
MODEL 8
REMARK VINA RESULT:      -7.5      1.942      4.895
REMARK  Name = 
REMARK  3 active torsions:
REMARK  status: ('A' for Active; 'I' for Inactive)
REMARK    1  A    between atoms: C_5  and  C_6
REMARK    2  A    between atoms: C_8  and  C_9
REMARK    3  A    between atoms: C_18  and  C_19
REMARK                            x       y       z     vdW  Elec       q    Type
REMARK                         _______ _______ _______ _____ _____    ______ ____
ROOT
ATOM      1  C   UNL     1       3.105   6.006  19.552  0.00  0.00    +0.000 C 
ATOM      2  C   UNL     1       2.086   7.122  19.750  0.00  0.00    +0.000 C 
ATOM      3  C   UNL     1       2.080   8.202  18.945  0.00  0.00    +0.000 C 
ATOM      4  N   UNL     1       2.980   8.324  17.907  0.00  0.00    +0.000 N 
ATOM      5  C   UNL     1       3.839   7.340  17.564  0.00  0.00    +0.000 A 
ATOM      6  N   UNL     1       4.672   7.232  16.564  0.00  0.00    +0.000 NA
ATOM      7  C   UNL     1       5.246   5.974  16.747  0.00  0.00    +0.000 A 
ATOM      8  N   UNL     1       4.827   5.344  17.867  0.00  0.00    +0.000 NA
ATOM      9  N   UNL     1       3.902   6.208  18.333  0.00  0.00    +0.000 N 
ATOM     10  H   UNL     1       2.949   9.174  17.355  0.00  0.00    +0.000 HD
ENDROOT
BRANCH   1  15
ATOM     11  F   UNL     1       0.647   0.910  19.551  0.00  0.00    +0.000 F 
ATOM     12  C   UNL     1       1.234   2.114  19.555  0.00  0.00    +0.000 A 
ATOM     13  C   UNL     1       1.925   2.535  20.685  0.00  0.00    +0.000 A 
ATOM     14  C   UNL     1       2.537   3.789  20.692  0.00  0.00    +0.000 A 
ATOM     15  C   UNL     1       2.457   4.628  19.565  0.00  0.00    +0.000 A 
ATOM     16  C   UNL     1       1.750   4.178  18.434  0.00  0.00    +0.000 A 
ATOM     17  C   UNL     1       1.141   2.923  18.430  0.00  0.00    +0.000 A 
ENDBRANCH   1  15
BRANCH   3  18
ATOM     18  C   UNL     1       1.104   9.286  19.140  0.00  0.00    +0.000 A 
ATOM     19  C   UNL     1       0.400   9.809  18.054  0.00  0.00    +0.000 A 
ATOM     20  C   UNL     1      -0.518  10.819  18.290  0.00  0.00    +0.000 A 
ATOM     21  N   UNL     1      -0.775  11.331  19.515  0.00  0.00    +0.000 NA
ATOM     22  C   UNL     1      -0.080  10.811  20.548  0.00  0.00    +0.000 A 
ATOM     23  C   UNL     1       0.862   9.800  20.415  0.00  0.00    +0.000 A 
ENDBRANCH   3  18
BRANCH   7  24
ATOM     24  C   UNL     1       6.235   5.375  15.771  0.00  0.00    +0.000 C 
ATOM     25  F   UNL     1       5.890   5.592  14.471  0.00  0.00    +0.000 F 
ATOM     26  F   UNL     1       7.491   5.886  15.923  0.00  0.00    +0.000 F 
ATOM     27  F   UNL     1       6.346   4.024  15.913  0.00  0.00    +0.000 F 
ENDBRANCH   7  24
TORSDOF 3
ENDMDL
MODEL 9
REMARK VINA RESULT:      -7.5      1.936      4.953
REMARK  Name = 
REMARK  3 active torsions:
REMARK  status: ('A' for Active; 'I' for Inactive)
REMARK    1  A    between atoms: C_5  and  C_6
REMARK    2  A    between atoms: C_8  and  C_9
REMARK    3  A    between atoms: C_18  and  C_19
REMARK                            x       y       z     vdW  Elec       q    Type
REMARK                         _______ _______ _______ _____ _____    ______ ____
ROOT
ATOM      1  C   UNL     1       3.089   6.016  19.539  0.00  0.00    +0.000 C 
ATOM      2  C   UNL     1       2.072   7.136  19.732  0.00  0.00    +0.000 C 
ATOM      3  C   UNL     1       2.078   8.218  18.930  0.00  0.00    +0.000 C 
ATOM      4  N   UNL     1       2.988   8.341  17.901  0.00  0.00    +0.000 N 
ATOM      5  C   UNL     1       3.847   7.355  17.563  0.00  0.00    +0.000 A 
ATOM      6  N   UNL     1       4.689   7.248  16.571  0.00  0.00    +0.000 NA
ATOM      7  C   UNL     1       5.257   5.987  16.756  0.00  0.00    +0.000 A 
ATOM      8  N   UNL     1       4.825   5.354  17.869  0.00  0.00    +0.000 NA
ATOM      9  N   UNL     1       3.899   6.221  18.329  0.00  0.00    +0.000 N 
ATOM     10  H   UNL     1       2.965   9.193  17.352  0.00  0.00    +0.000 HD
ENDROOT
BRANCH   1  15
ATOM     11  F   UNL     1       0.713   0.882  19.597  0.00  0.00    +0.000 F 
ATOM     12  C   UNL     1       1.270   2.100  19.579  0.00  0.00    +0.000 A 
ATOM     13  C   UNL     1       1.142   2.896  18.447  0.00  0.00    +0.000 A 
ATOM     14  C   UNL     1       1.723   4.164  18.426  0.00  0.00    +0.000 A 
ATOM     15  C   UNL     1       2.436   4.640  19.541  0.00  0.00    +0.000 A 
ATOM     16  C   UNL     1       2.552   3.815  20.675  0.00  0.00    +0.000 A 
ATOM     17  C   UNL     1       1.969   2.547  20.693  0.00  0.00    +0.000 A 
ENDBRANCH   1  15
BRANCH   3  18
ATOM     18  C   UNL     1       1.104   9.305  19.119  0.00  0.00    +0.000 A 
ATOM     19  C   UNL     1       0.368   9.793  18.038  0.00  0.00    +0.000 A 
ATOM     20  C   UNL     1      -0.547  10.808  18.269  0.00  0.00    +0.000 A 
ATOM     21  N   UNL     1      -0.771  11.355  19.485  0.00  0.00    +0.000 NA
ATOM     22  C   UNL     1      -0.047  10.868  20.513  0.00  0.00    +0.000 A 
ATOM     23  C   UNL     1       0.895   9.857  20.385  0.00  0.00    +0.000 A 
ENDBRANCH   3  18
BRANCH   7  24
ATOM     24  C   UNL     1       6.254   5.388  15.787  0.00  0.00    +0.000 C 
ATOM     25  F   UNL     1       6.407   4.044  15.953  0.00  0.00    +0.000 F 
ATOM     26  F   UNL     1       5.890   5.572  14.486  0.00  0.00    +0.000 F 
ATOM     27  F   UNL     1       7.496   5.931  15.923  0.00  0.00    +0.000 F 
ENDBRANCH   7  24
TORSDOF 3
ENDMDL
