MODEL 1
REMARK VINA RESULT:      -8.3      0.000      0.000
REMARK  Name = 
REMARK  5 active torsions:
REMARK  status: ('A' for Active; 'I' for Inactive)
REMARK    1  A    between atoms: C_2  and  C_7
REMARK    2  A    between atoms: N_3  and  C_4
REMARK    3  A    between atoms: C_12  and  N_13
REMARK    4  A    between atoms: C_14  and  C_16
REMARK    5  A    between atoms: C_18  and  O_19
REMARK                            x       y       z     vdW  Elec       q    Type
REMARK                         _______ _______ _______ _____ _____    ______ ____
ROOT
ATOM      1  N   UNL     1       2.049   6.210  18.158  0.00  0.00    +0.000 N 
ATOM      2  C   UNL     1       2.219   6.882  19.365  0.00  0.00    +0.000 C 
ATOM      3  O   UNL     1       2.614   6.388  20.411  0.00  0.00    +0.000 OA
ATOM      4  H   UNL     1       2.174   6.783  17.332  0.00  0.00    +0.000 HD
ENDROOT
BRANCH   2   5
ATOM      5  C   UNL     1       1.931   8.355  19.336  0.00  0.00    +0.000 A 
ATOM      6  C   UNL     1       2.482   9.100  18.295  0.00  0.00    +0.000 A 
ATOM      7  C   UNL     1       2.037  10.392  18.152  0.00  0.00    +0.000 A 
ATOM      8  N   UNL     1       1.175  11.016  18.961  0.00  0.00    +0.000 NA
ATOM      9  C   UNL     1       0.722  10.335  20.020  0.00  0.00    +0.000 A 
ATOM     10  C   UNL     1      -0.070  11.024  20.929  0.00  0.00    +0.000 A 
ATOM     11  C   UNL     1      -0.522  10.429  22.105  0.00  0.00    +0.000 A 
ATOM     12  C   UNL     1      -0.238   9.092  22.346  0.00  0.00    +0.000 A 
ATOM     13  C   UNL     1       0.515   8.363  21.423  0.00  0.00    +0.000 A 
ATOM     14  C   UNL     1       1.050   8.975  20.263  0.00  0.00    +0.000 A 
BRANCH   7  15
ATOM     15  O   UNL     1       2.445  11.154  17.109  0.00  0.00    +0.000 OA
ATOM     16  H   UNL     1       1.800  10.875  16.432  0.00  0.00    +0.000 HD
ENDBRANCH   7  15
ENDBRANCH   2   5
BRANCH   1  22
ATOM     17  C   UNL     1       3.571   4.310  17.488  0.00  0.00    +0.000 A 
ATOM     18  C   UNL     1       3.733   2.917  17.330  0.00  0.00    +0.000 A 
ATOM     19  C   UNL     1       2.740   2.034  17.757  0.00  0.00    +0.000 A 
ATOM     20  C   UNL     1       1.594   2.533  18.363  0.00  0.00    +0.000 A 
ATOM     21  C   UNL     1       1.414   3.913  18.504  0.00  0.00    +0.000 A 
ATOM     22  C   UNL     1       2.371   4.823  18.030  0.00  0.00    +0.000 A 
BRANCH  17  24
ATOM     23  O   UNL     1       4.903   5.898  16.343  0.00  0.00    +0.000 OA
ATOM     24  C   UNL     1       4.817   5.102  17.273  0.00  0.00    +0.000 C 
ATOM     25  N   UNL     1       5.880   4.738  18.077  0.00  0.00    +0.000 N 
ATOM     26  H   UNL     1       5.722   4.031  18.781  0.00  0.00    +0.000 HD
BRANCH  25  27
ATOM     27  C   UNL     1       7.192   5.258  17.900  0.00  0.00    +0.000 C 
ATOM     28  C   UNL     1       7.970   5.808  19.064  0.00  0.00    +0.000 C 
ATOM     29  C   UNL     1       7.424   6.736  18.018  0.00  0.00    +0.000 C 
ENDBRANCH  25  27
ENDBRANCH  17  24
ENDBRANCH   1  22
TORSDOF 5
ENDMDL
MODEL 2
REMARK VINA RESULT:      -8.3      1.567      1.743
REMARK  Name = 
REMARK  5 active torsions:
REMARK  status: ('A' for Active; 'I' for Inactive)
REMARK    1  A    between atoms: C_2  and  C_7
REMARK    2  A    between atoms: N_3  and  C_4
REMARK    3  A    between atoms: C_12  and  N_13
REMARK    4  A    between atoms: C_14  and  C_16
REMARK    5  A    between atoms: C_18  and  O_19
REMARK                            x       y       z     vdW  Elec       q    Type
REMARK                         _______ _______ _______ _____ _____    ______ ____
ROOT
ATOM      1  N   UNL     1       2.385   6.411  20.112  0.00  0.00    +0.000 N 
ATOM      2  C   UNL     1       2.020   7.113  18.968  0.00  0.00    +0.000 C 
ATOM      3  O   UNL     1       1.786   6.624  17.872  0.00  0.00    +0.000 OA
ATOM      4  H   UNL     1       2.099   6.842  20.983  0.00  0.00    +0.000 HD
ENDROOT
BRANCH   2   5
ATOM      5  C   UNL     1       1.858   8.595  19.136  0.00  0.00    +0.000 A 
ATOM      6  C   UNL     1       2.435   9.422  18.173  0.00  0.00    +0.000 A 
ATOM      7  C   UNL     1       2.097  10.753  18.212  0.00  0.00    +0.000 A 
ATOM      8  N   UNL     1       1.320  11.335  19.131  0.00  0.00    +0.000 NA
ATOM      9  C   UNL     1       0.846  10.562  20.116  0.00  0.00    +0.000 A 
ATOM     10  C   UNL     1       0.148  11.191  21.139  0.00  0.00    +0.000 A 
ATOM     11  C   UNL     1      -0.313  10.488  22.250  0.00  0.00    +0.000 A 
ATOM     12  C   UNL     1      -0.136   9.112  22.309  0.00  0.00    +0.000 A 
ATOM     13  C   UNL     1       0.520   8.449  21.269  0.00  0.00    +0.000 A 
ATOM     14  C   UNL     1       1.066   9.160  20.172  0.00  0.00    +0.000 A 
BRANCH   7  15
ATOM     15  O   UNL     1       2.533  11.607  17.256  0.00  0.00    +0.000 OA
ATOM     16  H   UNL     1       1.707  12.096  17.076  0.00  0.00    +0.000 HD
ENDBRANCH   7  15
ENDBRANCH   2   5
BRANCH   1  22
ATOM     17  C   UNL     1       3.516   4.243  19.482  0.00  0.00    +0.000 A 
ATOM     18  C   UNL     1       3.458   2.833  19.468  0.00  0.00    +0.000 A 
ATOM     19  C   UNL     1       2.422   2.159  20.116  0.00  0.00    +0.000 A 
ATOM     20  C   UNL     1       1.453   2.885  20.799  0.00  0.00    +0.000 A 
ATOM     21  C   UNL     1       1.490   4.284  20.799  0.00  0.00    +0.000 A 
ATOM     22  C   UNL     1       2.489   4.986  20.107  0.00  0.00    +0.000 A 
BRANCH  17  24
ATOM     23  O   UNL     1       5.492   5.517  19.763  0.00  0.00    +0.000 OA
ATOM     24  C   UNL     1       4.818   4.809  19.021  0.00  0.00    +0.000 C 
ATOM     25  N   UNL     1       5.091   4.615  17.681  0.00  0.00    +0.000 N 
ATOM     26  H   UNL     1       4.443   4.061  17.140  0.00  0.00    +0.000 HD
BRANCH  25  27
ATOM     27  C   UNL     1       6.196   5.227  17.025  0.00  0.00    +0.000 C 
ATOM     28  C   UNL     1       6.844   4.578  15.833  0.00  0.00    +0.000 C 
ATOM     29  C   UNL     1       7.561   4.619  17.151  0.00  0.00    +0.000 C 
ENDBRANCH  25  27
ENDBRANCH  17  24
ENDBRANCH   1  22
TORSDOF 5
ENDMDL
MODEL 3
REMARK VINA RESULT:      -8.2      1.434      1.449
REMARK  Name = 
REMARK  5 active torsions:
REMARK  status: ('A' for Active; 'I' for Inactive)
REMARK    1  A    between atoms: C_2  and  C_7
REMARK    2  A    between atoms: N_3  and  C_4
REMARK    3  A    between atoms: C_12  and  N_13
REMARK    4  A    between atoms: C_14  and  C_16
REMARK    5  A    between atoms: C_18  and  O_19
REMARK                            x       y       z     vdW  Elec       q    Type
REMARK                         _______ _______ _______ _____ _____    ______ ____
ROOT
ATOM      1  N   UNL     1       2.738   6.419  20.144  0.00  0.00    +0.000 N 
ATOM      2  C   UNL     1       2.121   7.019  19.051  0.00  0.00    +0.000 C 
ATOM      3  O   UNL     1       1.717   6.442  18.051  0.00  0.00    +0.000 OA
ATOM      4  H   UNL     1       2.594   6.895  21.027  0.00  0.00    +0.000 HD
ENDROOT
BRANCH   2   5
ATOM      5  C   UNL     1       1.900   8.499  19.158  0.00  0.00    +0.000 A 
ATOM      6  C   UNL     1       2.475   9.311  18.182  0.00  0.00    +0.000 A 
ATOM      7  C   UNL     1       2.088  10.629  18.161  0.00  0.00    +0.000 A 
ATOM      8  N   UNL     1       1.262  11.214  19.034  0.00  0.00    +0.000 NA
ATOM      9  C   UNL     1       0.787  10.461  20.033  0.00  0.00    +0.000 A 
ATOM     10  C   UNL     1       0.035  11.099  21.011  0.00  0.00    +0.000 A 
ATOM     11  C   UNL     1      -0.434  10.421  22.133  0.00  0.00    +0.000 A 
ATOM     12  C   UNL     1      -0.208   9.056  22.250  0.00  0.00    +0.000 A 
ATOM     13  C   UNL     1       0.503   8.381  21.255  0.00  0.00    +0.000 A 
ATOM     14  C   UNL     1       1.056   9.071  20.149  0.00  0.00    +0.000 A 
BRANCH   7  15
ATOM     15  O   UNL     1       2.520  11.463  17.187  0.00  0.00    +0.000 OA
ATOM     16  H   UNL     1       1.756  12.067  17.129  0.00  0.00    +0.000 HD
ENDBRANCH   7  15
ENDBRANCH   2   5
BRANCH   1  22
ATOM     17  C   UNL     1       3.773   4.257  19.352  0.00  0.00    +0.000 A 
ATOM     18  C   UNL     1       3.806   2.849  19.451  0.00  0.00    +0.000 A 
ATOM     19  C   UNL     1       3.055   2.188  20.424  0.00  0.00    +0.000 A 
ATOM     20  C   UNL     1       2.285   2.926  21.314  0.00  0.00    +0.000 A 
ATOM     21  C   UNL     1       2.228   4.321  21.209  0.00  0.00    +0.000 A 
ATOM     22  C   UNL     1       2.929   5.004  20.204  0.00  0.00    +0.000 A 
BRANCH  17  24
ATOM     23  O   UNL     1       4.665   4.975  17.279  0.00  0.00    +0.000 OA
ATOM     24  C   UNL     1       4.840   4.837  18.486  0.00  0.00    +0.000 C 
ATOM     25  N   UNL     1       6.056   5.029  19.116  0.00  0.00    +0.000 N 
ATOM     26  H   UNL     1       6.113   4.834  20.105  0.00  0.00    +0.000 HD
BRANCH  25  27
ATOM     27  C   UNL     1       7.234   5.408  18.414  0.00  0.00    +0.000 C 
ATOM     28  C   UNL     1       8.166   6.447  18.974  0.00  0.00    +0.000 C 
ATOM     29  C   UNL     1       7.313   6.766  17.782  0.00  0.00    +0.000 C 
ENDBRANCH  25  27
ENDBRANCH  17  24
ENDBRANCH   1  22
TORSDOF 5
ENDMDL
MODEL 4
REMARK VINA RESULT:      -8.1      1.347      1.572
REMARK  Name = 
REMARK  5 active torsions:
REMARK  status: ('A' for Active; 'I' for Inactive)
REMARK    1  A    between atoms: C_2  and  C_7
REMARK    2  A    between atoms: N_3  and  C_4
REMARK    3  A    between atoms: C_12  and  N_13
REMARK    4  A    between atoms: C_14  and  C_16
REMARK    5  A    between atoms: C_18  and  O_19
REMARK                            x       y       z     vdW  Elec       q    Type
REMARK                         _______ _______ _______ _____ _____    ______ ____
ROOT
ATOM      1  N   UNL     1       1.782   5.998  18.511  0.00  0.00    +0.000 N 
ATOM      2  C   UNL     1       2.082   6.736  19.651  0.00  0.00    +0.000 C 
ATOM      3  O   UNL     1       2.570   6.295  20.682  0.00  0.00    +0.000 OA
ATOM      4  H   UNL     1       1.834   6.518  17.643  0.00  0.00    +0.000 HD
ENDROOT
BRANCH   2   5
ATOM      5  C   UNL     1       1.818   8.211  19.561  0.00  0.00    +0.000 A 
ATOM      6  C   UNL     1       2.361   8.899  18.477  0.00  0.00    +0.000 A 
ATOM      7  C   UNL     1       1.935  10.191  18.283  0.00  0.00    +0.000 A 
ATOM      8  N   UNL     1       1.099  10.865  19.079  0.00  0.00    +0.000 NA
ATOM      9  C   UNL     1       0.655  10.241  20.177  0.00  0.00    +0.000 A 
ATOM     10  C   UNL     1      -0.107  10.984  21.068  0.00  0.00    +0.000 A 
ATOM     11  C   UNL     1      -0.547  10.451  22.277  0.00  0.00    +0.000 A 
ATOM     12  C   UNL     1      -0.280   9.121  22.574  0.00  0.00    +0.000 A 
ATOM     13  C   UNL     1       0.442   8.337  21.671  0.00  0.00    +0.000 A 
ATOM     14  C   UNL     1       0.966   8.887  20.475  0.00  0.00    +0.000 A 
BRANCH   7  15
ATOM     15  O   UNL     1       2.335  10.898  17.200  0.00  0.00    +0.000 OA
ATOM     16  H   UNL     1       2.932  10.247  16.784  0.00  0.00    +0.000 HD
ENDBRANCH   7  15
ENDBRANCH   2   5
BRANCH   1  22
ATOM     17  C   UNL     1       3.108   4.016  17.681  0.00  0.00    +0.000 A 
ATOM     18  C   UNL     1       3.229   2.611  17.616  0.00  0.00    +0.000 A 
ATOM     19  C   UNL     1       2.362   1.789  18.336  0.00  0.00    +0.000 A 
ATOM     20  C   UNL     1       1.385   2.363  19.142  0.00  0.00    +0.000 A 
ATOM     21  C   UNL     1       1.243   3.753  19.196  0.00  0.00    +0.000 A 
ATOM     22  C   UNL     1       2.066   4.599  18.436  0.00  0.00    +0.000 A 
BRANCH  17  24
ATOM     23  O   UNL     1       4.691   5.777  17.660  0.00  0.00    +0.000 OA
ATOM     24  C   UNL     1       4.271   4.760  17.116  0.00  0.00    +0.000 C 
ATOM     25  N   UNL     1       4.696   4.316  15.878  0.00  0.00    +0.000 N 
ATOM     26  H   UNL     1       4.248   3.499  15.488  0.00  0.00    +0.000 HD
BRANCH  25  27
ATOM     27  C   UNL     1       5.674   5.005  15.108  0.00  0.00    +0.000 C 
ATOM     28  C   UNL     1       6.451   4.297  14.032  0.00  0.00    +0.000 C 
ATOM     29  C   UNL     1       7.128   4.696  15.311  0.00  0.00    +0.000 C 
ENDBRANCH  25  27
ENDBRANCH  17  24
ENDBRANCH   1  22
TORSDOF 5
ENDMDL
MODEL 5
REMARK VINA RESULT:      -8.1      2.548      7.004
REMARK  Name = 
REMARK  5 active torsions:
REMARK  status: ('A' for Active; 'I' for Inactive)
REMARK    1  A    between atoms: C_2  and  C_7
REMARK    2  A    between atoms: N_3  and  C_4
REMARK    3  A    between atoms: C_12  and  N_13
REMARK    4  A    between atoms: C_14  and  C_16
REMARK    5  A    between atoms: C_18  and  O_19
REMARK                            x       y       z     vdW  Elec       q    Type
REMARK                         _______ _______ _______ _____ _____    ______ ____
ROOT
ATOM      1  N   UNL     1       4.321   4.545  18.944  0.00  0.00    +0.000 N 
ATOM      2  C   UNL     1       4.214   4.619  17.559  0.00  0.00    +0.000 C 
ATOM      3  O   UNL     1       3.261   4.239  16.894  0.00  0.00    +0.000 OA
ATOM      4  H   UNL     1       4.893   5.269  19.364  0.00  0.00    +0.000 HD
ENDROOT
BRANCH   2   5
ATOM      5  C   UNL     1       5.365   5.271  16.850  0.00  0.00    +0.000 A 
ATOM      6  C   UNL     1       6.048   6.282  17.522  0.00  0.00    +0.000 A 
ATOM      7  C   UNL     1       7.225   6.716  16.962  0.00  0.00    +0.000 A 
ATOM      8  N   UNL     1       7.736   6.302  15.799  0.00  0.00    +0.000 NA
ATOM      9  C   UNL     1       7.031   5.403  15.101  0.00  0.00    +0.000 A 
ATOM     10  C   UNL     1       7.496   5.071  13.836  0.00  0.00    +0.000 A 
ATOM     11  C   UNL     1       6.790   4.211  12.998  0.00  0.00    +0.000 A 
ATOM     12  C   UNL     1       5.628   3.610  13.461  0.00  0.00    +0.000 A 
ATOM     13  C   UNL     1       5.165   3.889  14.749  0.00  0.00    +0.000 A 
ATOM     14  C   UNL     1       5.826   4.824  15.582  0.00  0.00    +0.000 A 
BRANCH   7  15
ATOM     15  O   UNL     1       8.002   7.625  17.598  0.00  0.00    +0.000 OA
ATOM     16  H   UNL     1       7.705   8.442  17.156  0.00  0.00    +0.000 HD
ENDBRANCH   7  15
ENDBRANCH   2   5
BRANCH   1  22
ATOM     17  C   UNL     1       2.271   4.800  20.396  0.00  0.00    +0.000 A 
ATOM     18  C   UNL     1       1.324   4.174  21.234  0.00  0.00    +0.000 A 
ATOM     19  C   UNL     1       1.316   2.787  21.385  0.00  0.00    +0.000 A 
ATOM     20  C   UNL     1       2.235   2.016  20.683  0.00  0.00    +0.000 A 
ATOM     21  C   UNL     1       3.192   2.629  19.867  0.00  0.00    +0.000 A 
ATOM     22  C   UNL     1       3.257   4.026  19.744  0.00  0.00    +0.000 A 
BRANCH  17  24
ATOM     23  O   UNL     1       2.353   6.744  19.047  0.00  0.00    +0.000 OA
ATOM     24  C   UNL     1       1.974   6.231  20.094  0.00  0.00    +0.000 C 
ATOM     25  N   UNL     1       1.413   6.938  21.141  0.00  0.00    +0.000 N 
ATOM     26  H   UNL     1       1.186   6.434  21.986  0.00  0.00    +0.000 HD
BRANCH  25  27
ATOM     27  C   UNL     1       1.220   8.348  21.101  0.00  0.00    +0.000 C 
ATOM     28  C   UNL     1       1.133   9.152  22.368  0.00  0.00    +0.000 C 
ATOM     29  C   UNL     1      -0.094   8.927  21.534  0.00  0.00    +0.000 C 
ENDBRANCH  25  27
ENDBRANCH  17  24
ENDBRANCH   1  22
TORSDOF 5
ENDMDL
MODEL 6
REMARK VINA RESULT:      -8.0      2.103      7.557
REMARK  Name = 
REMARK  5 active torsions:
REMARK  status: ('A' for Active; 'I' for Inactive)
REMARK    1  A    between atoms: C_2  and  C_7
REMARK    2  A    between atoms: N_3  and  C_4
REMARK    3  A    between atoms: C_12  and  N_13
REMARK    4  A    between atoms: C_14  and  C_16
REMARK    5  A    between atoms: C_18  and  O_19
REMARK                            x       y       z     vdW  Elec       q    Type
REMARK                         _______ _______ _______ _____ _____    ______ ____
ROOT
ATOM      1  N   UNL     1       1.701   8.344  19.690  0.00  0.00    +0.000 N 
ATOM      2  C   UNL     1       1.927   6.984  19.880  0.00  0.00    +0.000 C 
ATOM      3  O   UNL     1       1.520   6.316  20.820  0.00  0.00    +0.000 OA
ATOM      4  H   UNL     1       1.678   8.639  18.721  0.00  0.00    +0.000 HD
ENDROOT
BRANCH   2   5
ATOM      5  C   UNL     1       2.699   6.294  18.794  0.00  0.00    +0.000 A 
ATOM      6  C   UNL     1       3.647   7.043  18.099  0.00  0.00    +0.000 A 
ATOM      7  C   UNL     1       4.495   6.354  17.267  0.00  0.00    +0.000 A 
ATOM      8  N   UNL     1       4.449   5.042  17.016  0.00  0.00    +0.000 NA
ATOM      9  C   UNL     1       3.476   4.336  17.604  0.00  0.00    +0.000 A 
ATOM     10  C   UNL     1       3.349   3.002  17.242  0.00  0.00    +0.000 A 
ATOM     11  C   UNL     1       2.318   2.205  17.735  0.00  0.00    +0.000 A 
ATOM     12  C   UNL     1       1.433   2.731  18.666  0.00  0.00    +0.000 A 
ATOM     13  C   UNL     1       1.570   4.057  19.084  0.00  0.00    +0.000 A 
ATOM     14  C   UNL     1       2.562   4.903  18.532  0.00  0.00    +0.000 A 
BRANCH   7  15
ATOM     15  O   UNL     1       5.508   6.989  16.631  0.00  0.00    +0.000 OA
ATOM     16  H   UNL     1       6.233   6.831  17.266  0.00  0.00    +0.000 HD
ENDBRANCH   7  15
ENDBRANCH   2   5
BRANCH   1  22
ATOM     17  C   UNL     1      -0.061  10.065  20.248  0.00  0.00    +0.000 A 
ATOM     18  C   UNL     1      -0.716  10.812  21.249  0.00  0.00    +0.000 A 
ATOM     19  C   UNL     1      -0.459  10.569  22.599  0.00  0.00    +0.000 A 
ATOM     20  C   UNL     1       0.434   9.567  22.957  0.00  0.00    +0.000 A 
ATOM     21  C   UNL     1       1.105   8.835  21.971  0.00  0.00    +0.000 A 
ATOM     22  C   UNL     1       0.907   9.100  20.607  0.00  0.00    +0.000 A 
BRANCH  17  24
ATOM     23  O   UNL     1      -0.017   9.881  17.887  0.00  0.00    +0.000 OA
ATOM     24  C   UNL     1      -0.649  10.216  18.884  0.00  0.00    +0.000 C 
ATOM     25  N   UNL     1      -1.846  10.906  18.844  0.00  0.00    +0.000 N 
ATOM     26  H   UNL     1      -2.261  11.188  19.720  0.00  0.00    +0.000 HD
BRANCH  25  27
ATOM     27  C   UNL     1      -2.467  11.297  17.625  0.00  0.00    +0.000 C 
ATOM     28  C   UNL     1      -3.961  11.443  17.530  0.00  0.00    +0.000 C 
ATOM     29  C   UNL     1      -3.272  10.296  16.850  0.00  0.00    +0.000 C 
ENDBRANCH  25  27
ENDBRANCH  17  24
ENDBRANCH   1  22
TORSDOF 5
ENDMDL
MODEL 7
REMARK VINA RESULT:      -7.9      1.089      1.202
REMARK  Name = 
REMARK  5 active torsions:
REMARK  status: ('A' for Active; 'I' for Inactive)
REMARK    1  A    between atoms: C_2  and  C_7
REMARK    2  A    between atoms: N_3  and  C_4
REMARK    3  A    between atoms: C_12  and  N_13
REMARK    4  A    between atoms: C_14  and  C_16
REMARK    5  A    between atoms: C_18  and  O_19
REMARK                            x       y       z     vdW  Elec       q    Type
REMARK                         _______ _______ _______ _____ _____    ______ ____
ROOT
ATOM      1  N   UNL     1       1.974   5.782  18.731  0.00  0.00    +0.000 N 
ATOM      2  C   UNL     1       1.885   6.525  19.904  0.00  0.00    +0.000 C 
ATOM      3  O   UNL     1       1.973   6.081  21.041  0.00  0.00    +0.000 OA
ATOM      4  H   UNL     1       2.339   6.291  17.934  0.00  0.00    +0.000 HD
ENDROOT
BRANCH   2   5
ATOM      5  C   UNL     1       1.714   8.005  19.728  0.00  0.00    +0.000 A 
ATOM      6  C   UNL     1       2.227   8.580  18.566  0.00  0.00    +0.000 A 
ATOM      7  C   UNL     1       1.876   9.883  18.310  0.00  0.00    +0.000 A 
ATOM      8  N   UNL     1       1.142  10.666  19.107  0.00  0.00    +0.000 NA
ATOM      9  C   UNL     1       0.732  10.148  20.271  0.00  0.00    +0.000 A 
ATOM     10  C   UNL     1       0.082  11.001  21.154  0.00  0.00    +0.000 A 
ATOM     11  C   UNL     1      -0.309  10.580  22.423  0.00  0.00    +0.000 A 
ATOM     12  C   UNL     1      -0.112   9.257  22.795  0.00  0.00    +0.000 A 
ATOM     13  C   UNL     1       0.494   8.367  21.906  0.00  0.00    +0.000 A 
ATOM     14  C   UNL     1       0.971   8.799  20.644  0.00  0.00    +0.000 A 
BRANCH   7  15
ATOM     15  O   UNL     1       2.248  10.487  17.156  0.00  0.00    +0.000 OA
ATOM     16  H   UNL     1       1.370  10.680  16.775  0.00  0.00    +0.000 HD
ENDBRANCH   7  15
ENDBRANCH   2   5
BRANCH   1  22
ATOM     17  C   UNL     1       3.483   3.764  18.569  0.00  0.00    +0.000 A 
ATOM     18  C   UNL     1       3.584   2.357  18.530  0.00  0.00    +0.000 A 
ATOM     19  C   UNL     1       2.458   1.558  18.734  0.00  0.00    +0.000 A 
ATOM     20  C   UNL     1       1.233   2.156  19.001  0.00  0.00    +0.000 A 
ATOM     21  C   UNL     1       1.118   3.550  19.020  0.00  0.00    +0.000 A 
ATOM     22  C   UNL     1       2.223   4.375  18.761  0.00  0.00    +0.000 A 
BRANCH  17  24
ATOM     23  O   UNL     1       4.960   5.413  19.409  0.00  0.00    +0.000 OA
ATOM     24  C   UNL     1       4.794   4.473  18.639  0.00  0.00    +0.000 C 
ATOM     25  N   UNL     1       5.705   4.101  17.669  0.00  0.00    +0.000 N 
ATOM     26  H   UNL     1       5.452   3.349  17.044  0.00  0.00    +0.000 HD
BRANCH  25  27
ATOM     27  C   UNL     1       6.938   4.783  17.469  0.00  0.00    +0.000 C 
ATOM     28  C   UNL     1       6.980   6.114  16.770  0.00  0.00    +0.000 C 
ATOM     29  C   UNL     1       7.509   4.887  16.086  0.00  0.00    +0.000 C 
ENDBRANCH  25  27
ENDBRANCH  17  24
ENDBRANCH   1  22
TORSDOF 5
ENDMDL
MODEL 8
REMARK VINA RESULT:      -7.8      2.203      4.043
REMARK  Name = 
REMARK  5 active torsions:
REMARK  status: ('A' for Active; 'I' for Inactive)
REMARK    1  A    between atoms: C_2  and  C_7
REMARK    2  A    between atoms: N_3  and  C_4
REMARK    3  A    between atoms: C_12  and  N_13
REMARK    4  A    between atoms: C_14  and  C_16
REMARK    5  A    between atoms: C_18  and  O_19
REMARK                            x       y       z     vdW  Elec       q    Type
REMARK                         _______ _______ _______ _____ _____    ______ ____
ROOT
ATOM      1  N   UNL     1       2.942   6.998  18.683  0.00  0.00    +0.000 N 
ATOM      2  C   UNL     1       2.253   8.160  18.351  0.00  0.00    +0.000 C 
ATOM      3  O   UNL     1       2.219   8.682  17.246  0.00  0.00    +0.000 OA
ATOM      4  H   UNL     1       2.528   6.459  19.435  0.00  0.00    +0.000 HD
ENDROOT
BRANCH   2   5
ATOM      5  C   UNL     1       1.447   8.778  19.457  0.00  0.00    +0.000 A 
ATOM      6  C   UNL     1       1.848   8.525  20.768  0.00  0.00    +0.000 A 
ATOM      7  C   UNL     1       1.247   9.265  21.756  0.00  0.00    +0.000 A 
ATOM      8  N   UNL     1       0.268  10.157  21.578  0.00  0.00    +0.000 NA
ATOM      9  C   UNL     1      -0.190  10.329  20.332  0.00  0.00    +0.000 A 
ATOM     10  C   UNL     1      -1.292  11.157  20.167  0.00  0.00    +0.000 A 
ATOM     11  C   UNL     1      -1.894  11.336  18.923  0.00  0.00    +0.000 A 
ATOM     12  C   UNL     1      -1.340  10.730  17.803  0.00  0.00    +0.000 A 
ATOM     13  C   UNL     1      -0.201   9.932  17.935  0.00  0.00    +0.000 A 
ATOM     14  C   UNL     1       0.374   9.675  19.204  0.00  0.00    +0.000 A 
BRANCH   7  15
ATOM     15  O   UNL     1       1.646   9.154  23.045  0.00  0.00    +0.000 OA
ATOM     16  H   UNL     1       2.372   8.509  22.943  0.00  0.00    +0.000 HD
ENDBRANCH   7  15
ENDBRANCH   2   5
BRANCH   1  22
ATOM     17  C   UNL     1       3.613   4.867  17.507  0.00  0.00    +0.000 A 
ATOM     18  C   UNL     1       4.458   4.247  16.562  0.00  0.00    +0.000 A 
ATOM     19  C   UNL     1       5.321   5.009  15.773  0.00  0.00    +0.000 A 
ATOM     20  C   UNL     1       5.329   6.393  15.907  0.00  0.00    +0.000 A 
ATOM     21  C   UNL     1       4.511   7.014  16.856  0.00  0.00    +0.000 A 
ATOM     22  C   UNL     1       3.677   6.265  17.700  0.00  0.00    +0.000 A 
BRANCH  17  24
ATOM     23  O   UNL     1       1.440   3.924  17.517  0.00  0.00    +0.000 OA
ATOM     24  C   UNL     1       2.544   3.979  18.051  0.00  0.00    +0.000 C 
ATOM     25  N   UNL     1       2.845   3.386  19.263  0.00  0.00    +0.000 N 
ATOM     26  H   UNL     1       3.766   3.537  19.648  0.00  0.00    +0.000 HD
BRANCH  25  27
ATOM     27  C   UNL     1       1.890   2.649  20.016  0.00  0.00    +0.000 C 
ATOM     28  C   UNL     1       0.959   3.341  20.973  0.00  0.00    +0.000 C 
ATOM     29  C   UNL     1       2.079   2.490  21.496  0.00  0.00    +0.000 C 
ENDBRANCH  25  27
ENDBRANCH  17  24
ENDBRANCH   1  22
TORSDOF 5
ENDMDL
MODEL 9
REMARK VINA RESULT:      -7.8      1.942      3.613
REMARK  Name = 
REMARK  5 active torsions:
REMARK  status: ('A' for Active; 'I' for Inactive)
REMARK    1  A    between atoms: C_2  and  C_7
REMARK    2  A    between atoms: N_3  and  C_4
REMARK    3  A    between atoms: C_12  and  N_13
REMARK    4  A    between atoms: C_14  and  C_16
REMARK    5  A    between atoms: C_18  and  O_19
REMARK                            x       y       z     vdW  Elec       q    Type
REMARK                         _______ _______ _______ _____ _____    ______ ____
ROOT
ATOM      1  N   UNL     1       2.587   7.705  17.780  0.00  0.00    +0.000 N 
ATOM      2  C   UNL     1       2.149   7.887  19.088  0.00  0.00    +0.000 C 
ATOM      3  O   UNL     1       2.539   7.266  20.067  0.00  0.00    +0.000 OA
ATOM      4  H   UNL     1       2.546   8.534  17.200  0.00  0.00    +0.000 HD
ENDROOT
BRANCH   2   5
ATOM      5  C   UNL     1       1.144   8.983  19.292  0.00  0.00    +0.000 A 
ATOM      6  C   UNL     1       0.638   9.614  18.158  0.00  0.00    +0.000 A 
ATOM      7  C   UNL     1      -0.434  10.455  18.340  0.00  0.00    +0.000 A 
ATOM      8  N   UNL     1      -0.989  10.770  19.514  0.00  0.00    +0.000 NA
ATOM      9  C   UNL     1      -0.440  10.243  20.616  0.00  0.00    +0.000 A 
ATOM     10  C   UNL     1      -0.934  10.672  21.841  0.00  0.00    +0.000 A 
ATOM     11  C   UNL     1      -0.376  10.248  23.044  0.00  0.00    +0.000 A 
ATOM     12  C   UNL     1       0.654   9.317  23.028  0.00  0.00    +0.000 A 
ATOM     13  C   UNL     1       1.135   8.832  21.810  0.00  0.00    +0.000 A 
ATOM     14  C   UNL     1       0.634   9.315  20.577  0.00  0.00    +0.000 A 
BRANCH   7  15
ATOM     15  O   UNL     1      -1.050  11.032  17.281  0.00  0.00    +0.000 OA
ATOM     16  H   UNL     1      -1.751  10.374  17.114  0.00  0.00    +0.000 HD
ENDBRANCH   7  15
ENDBRANCH   2   5
BRANCH   1  22
ATOM     17  C   UNL     1       3.560   5.375  17.776  0.00  0.00    +0.000 A 
ATOM     18  C   UNL     1       4.671   4.552  17.492  0.00  0.00    +0.000 A 
ATOM     19  C   UNL     1       5.796   5.074  16.853  0.00  0.00    +0.000 A 
ATOM     20  C   UNL     1       5.811   6.411  16.474  0.00  0.00    +0.000 A 
ATOM     21  C   UNL     1       4.723   7.239  16.771  0.00  0.00    +0.000 A 
ATOM     22  C   UNL     1       3.605   6.752  17.464  0.00  0.00    +0.000 A 
BRANCH  17  24
ATOM     23  O   UNL     1       1.390   4.506  17.398  0.00  0.00    +0.000 OA
ATOM     24  C   UNL     1       2.330   4.631  18.176  0.00  0.00    +0.000 C 
ATOM     25  N   UNL     1       2.282   4.266  19.508  0.00  0.00    +0.000 N 
ATOM     26  H   UNL     1       3.088   4.462  20.083  0.00  0.00    +0.000 HD
BRANCH  25  27
ATOM     27  C   UNL     1       1.121   3.706  20.111  0.00  0.00    +0.000 C 
ATOM     28  C   UNL     1       1.225   2.852  21.345  0.00  0.00    +0.000 C 
ATOM     29  C   UNL     1       0.884   2.227  20.024  0.00  0.00    +0.000 C 
ENDBRANCH  25  27
ENDBRANCH  17  24
ENDBRANCH   1  22
TORSDOF 5
ENDMDL
