MODEL 1
REMARK VINA RESULT:      -8.6      0.000      0.000
REMARK  Name = 
REMARK  5 active torsions:
REMARK  status: ('A' for Active; 'I' for Inactive)
REMARK    1  A    between atoms: C_1  and  C_2
REMARK    2  A    between atoms: C_5  and  C_6
REMARK    3  A    between atoms: C_6  and  O_7
REMARK    4  A    between atoms: O_7  and  C_8
REMARK    5  A    between atoms: C_8  and  C_10
REMARK                            x       y       z     vdW  Elec       q    Type
REMARK                         _______ _______ _______ _____ _____    ______ ____
ROOT
ATOM      1  C   UNL     1       2.296   7.204  19.354  0.00  0.00    +0.000 A 
ATOM      2  C   UNL     1       2.290   8.073  18.270  0.00  0.00    +0.000 A 
ATOM      3  C   UNL     1       1.680   9.334  18.365  0.00  0.00    +0.000 A 
ATOM      4  C   UNL     1       1.075   9.804  19.550  0.00  0.00    +0.000 A 
ATOM      5  C   UNL     1       1.085   8.885  20.605  0.00  0.00    +0.000 A 
ATOM      6  C   UNL     1       1.667   7.604  20.528  0.00  0.00    +0.000 A 
ATOM      7  S   UNL     1       0.351   9.315  22.138  0.00  0.00    +0.000 S 
ATOM      8  O   UNL     1       1.451   9.386  23.081  0.00  0.00    +0.000 OA
ATOM      9  O   UNL     1      -0.724   8.367  22.334  0.00  0.00    +0.000 OA
ATOM     10  N   UNL     1      -0.273  10.774  21.969  0.00  0.00    +0.000 NA
ATOM     11  C   UNL     1      -0.152  11.466  20.887  0.00  0.00    +0.000 C 
ATOM     12  C   UNL     1      -0.789  12.858  21.092  0.00  0.00    +0.000 C 
ATOM     13  C   UNL     1      -1.388  13.558  19.890  0.00  0.00    +0.000 C 
ATOM     14  C   UNL     1      -0.319  14.280  19.082  0.00  0.00    +0.000 C 
ATOM     15  C   UNL     1       0.904  13.417  18.815  0.00  0.00    +0.000 C 
ATOM     16  C   UNL     1       0.538  11.972  18.502  0.00  0.00    +0.000 C 
ATOM     17  N   UNL     1       0.513  11.101  19.700  0.00  0.00    +0.000 N 
ENDROOT
BRANCH   1  18
ATOM     18  C   UNL     1       2.921   5.872  19.175  0.00  0.00    +0.000 C 
ATOM     19  O   UNL     1       2.416   4.833  19.565  0.00  0.00    +0.000 OA
BRANCH  18  20
ATOM     20  O   UNL     1       4.154   6.011  18.639  0.00  0.00    +0.000 OA
BRANCH  20  21
ATOM     21  C   UNL     1       5.151   5.185  19.256  0.00  0.00    +0.000 C 
BRANCH  21  26
ATOM     22  C   UNL     1       6.732   4.467  14.744  0.00  0.00    +0.000 C 
ATOM     23  C   UNL     1       6.828   4.566  16.209  0.00  0.00    +0.000 A 
ATOM     24  N   UNL     1       7.874   4.422  16.994  0.00  0.00    +0.000 NA
ATOM     25  N   UNL     1       7.422   4.606  18.284  0.00  0.00    +0.000 NA
ATOM     26  C   UNL     1       6.130   4.842  18.196  0.00  0.00    +0.000 A 
ATOM     27  O   UNL     1       5.678   4.836  16.898  0.00  0.00    +0.000 OA
ENDBRANCH  21  26
ENDBRANCH  20  21
ENDBRANCH  18  20
ENDBRANCH   1  18
TORSDOF 4
ENDMDL
MODEL 2
REMARK VINA RESULT:      -8.6      0.967      1.058
REMARK  Name = 
REMARK  5 active torsions:
REMARK  status: ('A' for Active; 'I' for Inactive)
REMARK    1  A    between atoms: C_1  and  C_2
REMARK    2  A    between atoms: C_5  and  C_6
REMARK    3  A    between atoms: C_6  and  O_7
REMARK    4  A    between atoms: O_7  and  C_8
REMARK    5  A    between atoms: C_8  and  C_10
REMARK                            x       y       z     vdW  Elec       q    Type
REMARK                         _______ _______ _______ _____ _____    ______ ____
ROOT
ATOM      1  C   UNL     1       2.419   7.673  18.637  0.00  0.00    +0.000 A 
ATOM      2  C   UNL     1       2.306   8.696  17.704  0.00  0.00    +0.000 A 
ATOM      3  C   UNL     1       1.609   9.875  18.015  0.00  0.00    +0.000 A 
ATOM      4  C   UNL     1       1.019  10.105  19.276  0.00  0.00    +0.000 A 
ATOM      5  C   UNL     1       1.138   9.037  20.171  0.00  0.00    +0.000 A 
ATOM      6  C   UNL     1       1.809   7.834  19.876  0.00  0.00    +0.000 A 
ATOM      7  S   UNL     1       0.436   9.164  21.772  0.00  0.00    +0.000 S 
ATOM      8  O   UNL     1       1.564   9.174  22.685  0.00  0.00    +0.000 OA
ATOM      9  O   UNL     1      -0.558   8.114  21.846  0.00  0.00    +0.000 OA
ATOM     10  N   UNL     1      -0.300  10.577  21.854  0.00  0.00    +0.000 NA
ATOM     11  C   UNL     1      -0.273  11.436  20.892  0.00  0.00    +0.000 C 
ATOM     12  C   UNL     1      -1.002  12.726  21.333  0.00  0.00    +0.000 C 
ATOM     13  C   UNL     1      -1.698  13.555  20.274  0.00  0.00    +0.000 C 
ATOM     14  C   UNL     1      -0.718  14.475  19.561  0.00  0.00    +0.000 C 
ATOM     15  C   UNL     1       0.553  13.764  19.126  0.00  0.00    +0.000 C 
ATOM     16  C   UNL     1       0.282  12.361  18.600  0.00  0.00    +0.000 C 
ATOM     17  N   UNL     1       0.369  11.315  19.645  0.00  0.00    +0.000 N 
ENDROOT
BRANCH   1  18
ATOM     18  C   UNL     1       3.133   6.438  18.232  0.00  0.00    +0.000 C 
ATOM     19  O   UNL     1       2.724   5.314  18.472  0.00  0.00    +0.000 OA
BRANCH  18  20
ATOM     20  O   UNL     1       4.326   6.755  17.683  0.00  0.00    +0.000 OA
BRANCH  20  21
ATOM     21  C   UNL     1       5.381   5.845  18.021  0.00  0.00    +0.000 C 
BRANCH  21  26
ATOM     22  C   UNL     1       6.104   3.884  13.662  0.00  0.00    +0.000 C 
ATOM     23  C   UNL     1       6.405   4.725  14.831  0.00  0.00    +0.000 A 
ATOM     24  N   UNL     1       7.426   5.525  15.050  0.00  0.00    +0.000 NA
ATOM     25  N   UNL     1       7.234   6.070  16.302  0.00  0.00    +0.000 NA
ATOM     26  C   UNL     1       6.111   5.559  16.762  0.00  0.00    +0.000 A 
ATOM     27  O   UNL     1       5.522   4.691  15.875  0.00  0.00    +0.000 OA
ENDBRANCH  21  26
ENDBRANCH  20  21
ENDBRANCH  18  20
ENDBRANCH   1  18
TORSDOF 4
ENDMDL
MODEL 3
REMARK VINA RESULT:      -8.3      1.364      1.400
REMARK  Name = 
REMARK  5 active torsions:
REMARK  status: ('A' for Active; 'I' for Inactive)
REMARK    1  A    between atoms: C_1  and  C_2
REMARK    2  A    between atoms: C_5  and  C_6
REMARK    3  A    between atoms: C_6  and  O_7
REMARK    4  A    between atoms: O_7  and  C_8
REMARK    5  A    between atoms: C_8  and  C_10
REMARK                            x       y       z     vdW  Elec       q    Type
REMARK                         _______ _______ _______ _____ _____    ______ ____
ROOT
ATOM      1  C   UNL     1       2.169   6.961  19.459  0.00  0.00    +0.000 A 
ATOM      2  C   UNL     1       2.333   7.771  18.342  0.00  0.00    +0.000 A 
ATOM      3  C   UNL     1       1.947   9.121  18.373  0.00  0.00    +0.000 A 
ATOM      4  C   UNL     1       1.411   9.737  19.524  0.00  0.00    +0.000 A 
ATOM      5  C   UNL     1       1.244   8.876  20.613  0.00  0.00    +0.000 A 
ATOM      6  C   UNL     1       1.598   7.511  20.600  0.00  0.00    +0.000 A 
ATOM      7  S   UNL     1       0.568   9.489  22.110  0.00  0.00    +0.000 S 
ATOM      8  O   UNL     1       1.646   9.411  23.077  0.00  0.00    +0.000 OA
ATOM      9  O   UNL     1      -0.658   8.749  22.316  0.00  0.00    +0.000 OA
ATOM     10  N   UNL     1       0.207  11.025  21.869  0.00  0.00    +0.000 NA
ATOM     11  C   UNL     1       0.465  11.640  20.764  0.00  0.00    +0.000 C 
ATOM     12  C   UNL     1       0.075  13.128  20.900  0.00  0.00    +0.000 C 
ATOM     13  C   UNL     1      -0.373  13.869  19.658  0.00  0.00    +0.000 C 
ATOM     14  C   UNL     1       0.818  14.362  18.850  0.00  0.00    +0.000 C 
ATOM     15  C   UNL     1       1.879  13.291  18.646  0.00  0.00    +0.000 C 
ATOM     16  C   UNL     1       1.274  11.919  18.380  0.00  0.00    +0.000 C 
ATOM     17  N   UNL     1       1.078  11.117  19.610  0.00  0.00    +0.000 N 
ENDROOT
BRANCH   1  18
ATOM     18  C   UNL     1       2.558   5.535  19.346  0.00  0.00    +0.000 C 
ATOM     19  O   UNL     1       1.812   4.664  18.932  0.00  0.00    +0.000 OA
BRANCH  18  20
ATOM     20  O   UNL     1       3.787   5.350  19.876  0.00  0.00    +0.000 OA
BRANCH  20  21
ATOM     21  C   UNL     1       4.639   4.509  19.087  0.00  0.00    +0.000 C 
BRANCH  21  26
ATOM     22  C   UNL     1       7.782   7.783  17.422  0.00  0.00    +0.000 C 
ATOM     23  C   UNL     1       7.304   6.677  18.267  0.00  0.00    +0.000 A 
ATOM     24  N   UNL     1       7.923   6.029  19.230  0.00  0.00    +0.000 NA
ATOM     25  N   UNL     1       7.036   5.080  19.694  0.00  0.00    +0.000 NA
ATOM     26  C   UNL     1       5.941   5.211  18.975  0.00  0.00    +0.000 A 
ATOM     27  O   UNL     1       6.036   6.217  18.043  0.00  0.00    +0.000 OA
ENDBRANCH  21  26
ENDBRANCH  20  21
ENDBRANCH  18  20
ENDBRANCH   1  18
TORSDOF 4
ENDMDL
MODEL 4
REMARK VINA RESULT:      -8.1      1.328      1.481
REMARK  Name = 
REMARK  5 active torsions:
REMARK  status: ('A' for Active; 'I' for Inactive)
REMARK    1  A    between atoms: C_1  and  C_2
REMARK    2  A    between atoms: C_5  and  C_6
REMARK    3  A    between atoms: C_6  and  O_7
REMARK    4  A    between atoms: O_7  and  C_8
REMARK    5  A    between atoms: C_8  and  C_10
REMARK                            x       y       z     vdW  Elec       q    Type
REMARK                         _______ _______ _______ _____ _____    ______ ____
ROOT
ATOM      1  C   UNL     1       2.238   7.075  19.321  0.00  0.00    +0.000 A 
ATOM      2  C   UNL     1       2.287   7.903  18.205  0.00  0.00    +0.000 A 
ATOM      3  C   UNL     1       1.832   9.229  18.277  0.00  0.00    +0.000 A 
ATOM      4  C   UNL     1       1.336   9.805  19.467  0.00  0.00    +0.000 A 
ATOM      5  C   UNL     1       1.285   8.926  20.553  0.00  0.00    +0.000 A 
ATOM      6  C   UNL     1       1.710   7.583  20.501  0.00  0.00    +0.000 A 
ATOM      7  S   UNL     1       0.671   9.488  22.096  0.00  0.00    +0.000 S 
ATOM      8  O   UNL     1       1.811   9.461  22.994  0.00  0.00    +0.000 OA
ATOM      9  O   UNL     1      -0.497   8.679  22.369  0.00  0.00    +0.000 OA
ATOM     10  N   UNL     1       0.213  11.004  21.897  0.00  0.00    +0.000 NA
ATOM     11  C   UNL     1       0.368  11.641  20.786  0.00  0.00    +0.000 C 
ATOM     12  C   UNL     1      -0.094  13.105  20.964  0.00  0.00    +0.000 C 
ATOM     13  C   UNL     1      -0.658  13.831  19.761  0.00  0.00    +0.000 C 
ATOM     14  C   UNL     1       0.451  14.396  18.887  0.00  0.00    +0.000 C 
ATOM     15  C   UNL     1       1.554  13.387  18.604  0.00  0.00    +0.000 C 
ATOM     16  C   UNL     1       1.009  11.985  18.360  0.00  0.00    +0.000 C 
ATOM     17  N   UNL     1       0.935  11.163  19.590  0.00  0.00    +0.000 N 
ENDROOT
BRANCH   1  18
ATOM     18  C   UNL     1       2.696   5.673  19.167  0.00  0.00    +0.000 C 
ATOM     19  O   UNL     1       3.019   4.963  20.104  0.00  0.00    +0.000 OA
BRANCH  18  20
ATOM     20  O   UNL     1       2.811   5.368  17.855  0.00  0.00    +0.000 OA
BRANCH  20  21
ATOM     21  C   UNL     1       3.894   4.475  17.560  0.00  0.00    +0.000 C 
BRANCH  21  26
ATOM     22  C   UNL     1       7.604   7.573  17.641  0.00  0.00    +0.000 C 
ATOM     23  C   UNL     1       6.638   6.637  17.043  0.00  0.00    +0.000 A 
ATOM     24  N   UNL     1       6.523   6.233  15.797  0.00  0.00    +0.000 NA
ATOM     25  N   UNL     1       5.452   5.364  15.766  0.00  0.00    +0.000 NA
ATOM     26  C   UNL     1       4.985   5.306  16.995  0.00  0.00    +0.000 A 
ATOM     27  O   UNL     1       5.695   6.092  17.870  0.00  0.00    +0.000 OA
ENDBRANCH  21  26
ENDBRANCH  20  21
ENDBRANCH  18  20
ENDBRANCH   1  18
TORSDOF 4
ENDMDL
MODEL 5
REMARK VINA RESULT:      -8.0      2.482      3.345
REMARK  Name = 
REMARK  5 active torsions:
REMARK  status: ('A' for Active; 'I' for Inactive)
REMARK    1  A    between atoms: C_1  and  C_2
REMARK    2  A    between atoms: C_5  and  C_6
REMARK    3  A    between atoms: C_6  and  O_7
REMARK    4  A    between atoms: O_7  and  C_8
REMARK    5  A    between atoms: C_8  and  C_10
REMARK                            x       y       z     vdW  Elec       q    Type
REMARK                         _______ _______ _______ _____ _____    ______ ____
ROOT
ATOM      1  C   UNL     1       2.484   7.535  18.940  0.00  0.00    +0.000 A 
ATOM      2  C   UNL     1       2.390   8.501  17.946  0.00  0.00    +0.000 A 
ATOM      3  C   UNL     1       1.671   9.687  18.163  0.00  0.00    +0.000 A 
ATOM      4  C   UNL     1       1.038   9.984  19.389  0.00  0.00    +0.000 A 
ATOM      5  C   UNL     1       1.140   8.972  20.349  0.00  0.00    +0.000 A 
ATOM      6  C   UNL     1       1.833   7.762  20.147  0.00  0.00    +0.000 A 
ATOM      7  S   UNL     1       0.385   9.184  21.917  0.00  0.00    +0.000 S 
ATOM      8  O   UNL     1       1.483   9.262  22.863  0.00  0.00    +0.000 OA
ATOM      9  O   UNL     1      -0.599   8.129  22.022  0.00  0.00    +0.000 OA
ATOM     10  N   UNL     1      -0.368  10.591  21.892  0.00  0.00    +0.000 NA
ATOM     11  C   UNL     1      -0.319  11.392  20.882  0.00  0.00    +0.000 C 
ATOM     12  C   UNL     1      -1.075  12.696  21.222  0.00  0.00    +0.000 C 
ATOM     13  C   UNL     1      -1.745  13.453  20.095  0.00  0.00    +0.000 C 
ATOM     14  C   UNL     1      -0.752  14.342  19.360  0.00  0.00    +0.000 C 
ATOM     15  C   UNL     1       0.540  13.622  19.009  0.00  0.00    +0.000 C 
ATOM     16  C   UNL     1       0.300  12.187  18.558  0.00  0.00    +0.000 C 
ATOM     17  N   UNL     1       0.364  11.205  19.665  0.00  0.00    +0.000 N 
ENDROOT
BRANCH   1  18
ATOM     18  C   UNL     1       3.223   6.288  18.632  0.00  0.00    +0.000 C 
ATOM     19  O   UNL     1       4.295   5.998  19.135  0.00  0.00    +0.000 OA
BRANCH  18  20
ATOM     20  O   UNL     1       2.594   5.613  17.644  0.00  0.00    +0.000 OA
BRANCH  20  21
ATOM     21  C   UNL     1       2.971   4.233  17.553  0.00  0.00    +0.000 C 
BRANCH  21  26
ATOM     22  C   UNL     1       1.383   2.453  21.758  0.00  0.00    +0.000 C 
ATOM     23  C   UNL     1       1.353   2.740  20.314  0.00  0.00    +0.000 A 
ATOM     24  N   UNL     1       0.439   2.439  19.417  0.00  0.00    +0.000 NA
ATOM     25  N   UNL     1       0.898   2.927  18.212  0.00  0.00    +0.000 NA
ATOM     26  C   UNL     1       2.065   3.486  18.458  0.00  0.00    +0.000 A 
ATOM     27  O   UNL     1       2.422   3.408  19.783  0.00  0.00    +0.000 OA
ENDBRANCH  21  26
ENDBRANCH  20  21
ENDBRANCH  18  20
ENDBRANCH   1  18
TORSDOF 4
ENDMDL
MODEL 6
REMARK VINA RESULT:      -8.0      1.030      1.415
REMARK  Name = 
REMARK  5 active torsions:
REMARK  status: ('A' for Active; 'I' for Inactive)
REMARK    1  A    between atoms: C_1  and  C_2
REMARK    2  A    between atoms: C_5  and  C_6
REMARK    3  A    between atoms: C_6  and  O_7
REMARK    4  A    between atoms: O_7  and  C_8
REMARK    5  A    between atoms: C_8  and  C_10
REMARK                            x       y       z     vdW  Elec       q    Type
REMARK                         _______ _______ _______ _____ _____    ______ ____
ROOT
ATOM      1  C   UNL     1       2.123   7.578  18.828  0.00  0.00    +0.000 A 
ATOM      2  C   UNL     1       2.069   8.550  17.836  0.00  0.00    +0.000 A 
ATOM      3  C   UNL     1       1.567   9.831  18.114  0.00  0.00    +0.000 A 
ATOM      4  C   UNL     1       1.126  10.218  19.398  0.00  0.00    +0.000 A 
ATOM      5  C   UNL     1       1.177   9.200  20.355  0.00  0.00    +0.000 A 
ATOM      6  C   UNL     1       1.651   7.898  20.096  0.00  0.00    +0.000 A 
ATOM      7  S   UNL     1       0.641   9.521  21.993  0.00  0.00    +0.000 S 
ATOM      8  O   UNL     1       1.836   9.427  22.812  0.00  0.00    +0.000 OA
ATOM      9  O   UNL     1      -0.475   8.628  22.220  0.00  0.00    +0.000 OA
ATOM     10  N   UNL     1       0.113  11.026  22.030  0.00  0.00    +0.000 NA
ATOM     11  C   UNL     1       0.172  11.813  21.010  0.00  0.00    +0.000 C 
ATOM     12  C   UNL     1      -0.335  13.217  21.412  0.00  0.00    +0.000 C 
ATOM     13  C   UNL     1      -1.002  14.070  20.354  0.00  0.00    +0.000 C 
ATOM     14  C   UNL     1       0.027  14.799  19.503  0.00  0.00    +0.000 C 
ATOM     15  C   UNL     1       1.148  13.890  19.022  0.00  0.00    +0.000 C 
ATOM     16  C   UNL     1       0.644  12.510  18.621  0.00  0.00    +0.000 C 
ATOM     17  N   UNL     1       0.680  11.527  19.729  0.00  0.00    +0.000 N 
ENDROOT
BRANCH   1  18
ATOM     18  C   UNL     1       2.625   6.234  18.459  0.00  0.00    +0.000 C 
ATOM     19  O   UNL     1       2.193   5.198  18.937  0.00  0.00    +0.000 OA
BRANCH  18  20
ATOM     20  O   UNL     1       3.684   6.350  17.628  0.00  0.00    +0.000 OA
BRANCH  20  21
ATOM     21  C   UNL     1       4.122   5.105  17.067  0.00  0.00    +0.000 C 
BRANCH  21  26
ATOM     22  C   UNL     1       8.254   5.764  19.490  0.00  0.00    +0.000 C 
ATOM     23  C   UNL     1       7.388   5.279  18.403  0.00  0.00    +0.000 A 
ATOM     24  N   UNL     1       7.691   4.561  17.344  0.00  0.00    +0.000 NA
ATOM     25  N   UNL     1       6.518   4.389  16.639  0.00  0.00    +0.000 NA
ATOM     26  C   UNL     1       5.582   5.021  17.315  0.00  0.00    +0.000 A 
ATOM     27  O   UNL     1       6.062   5.613  18.459  0.00  0.00    +0.000 OA
ENDBRANCH  21  26
ENDBRANCH  20  21
ENDBRANCH  18  20
ENDBRANCH   1  18
TORSDOF 4
ENDMDL
MODEL 7
REMARK VINA RESULT:      -8.0      1.018      1.180
REMARK  Name = 
REMARK  5 active torsions:
REMARK  status: ('A' for Active; 'I' for Inactive)
REMARK    1  A    between atoms: C_1  and  C_2
REMARK    2  A    between atoms: C_5  and  C_6
REMARK    3  A    between atoms: C_6  and  O_7
REMARK    4  A    between atoms: O_7  and  C_8
REMARK    5  A    between atoms: C_8  and  C_10
REMARK                            x       y       z     vdW  Elec       q    Type
REMARK                         _______ _______ _______ _____ _____    ______ ____
ROOT
ATOM      1  C   UNL     1       2.086   6.412  19.929  0.00  0.00    +0.000 A 
ATOM      2  C   UNL     1       2.354   7.051  18.724  0.00  0.00    +0.000 A 
ATOM      3  C   UNL     1       2.091   8.421  18.566  0.00  0.00    +0.000 A 
ATOM      4  C   UNL     1       1.580   9.227  19.606  0.00  0.00    +0.000 A 
ATOM      5  C   UNL     1       1.305   8.534  20.789  0.00  0.00    +0.000 A 
ATOM      6  C   UNL     1       1.534   7.155  20.965  0.00  0.00    +0.000 A 
ATOM      7  S   UNL     1       0.644   9.395  22.166  0.00  0.00    +0.000 S 
ATOM      8  O   UNL     1       1.683   9.352  23.178  0.00  0.00    +0.000 OA
ATOM      9  O   UNL     1      -0.649   8.795  22.416  0.00  0.00    +0.000 OA
ATOM     10  N   UNL     1       0.430  10.911  21.715  0.00  0.00    +0.000 NA
ATOM     11  C   UNL     1       0.774  11.350  20.552  0.00  0.00    +0.000 C 
ATOM     12  C   UNL     1       0.515  12.872  20.479  0.00  0.00    +0.000 C 
ATOM     13  C   UNL     1       0.172  13.478  19.135  0.00  0.00    +0.000 C 
ATOM     14  C   UNL     1       1.425  13.757  18.319  0.00  0.00    +0.000 C 
ATOM     15  C   UNL     1       2.391  12.582  18.297  0.00  0.00    +0.000 C 
ATOM     16  C   UNL     1       1.673  11.243  18.186  0.00  0.00    +0.000 C 
ATOM     17  N   UNL     1       1.370  10.630  19.500  0.00  0.00    +0.000 N 
ENDROOT
BRANCH   1  18
ATOM     18  C   UNL     1       2.348   4.955  20.016  0.00  0.00    +0.000 C 
ATOM     19  O   UNL     1       1.501   4.136  20.332  0.00  0.00    +0.000 OA
BRANCH  18  20
ATOM     20  O   UNL     1       3.662   4.711  19.816  0.00  0.00    +0.000 OA
BRANCH  20  21
ATOM     21  C   UNL     1       3.923   3.727  18.807  0.00  0.00    +0.000 C 
BRANCH  21  26
ATOM     22  C   UNL     1       7.013   4.636  15.201  0.00  0.00    +0.000 C 
ATOM     23  C   UNL     1       6.560   4.527  16.598  0.00  0.00    +0.000 A 
ATOM     24  N   UNL     1       7.206   4.793  17.713  0.00  0.00    +0.000 NA
ATOM     25  N   UNL     1       6.334   4.515  18.744  0.00  0.00    +0.000 NA
ATOM     26  C   UNL     1       5.219   4.092  18.186  0.00  0.00    +0.000 A 
ATOM     27  O   UNL     1       5.287   4.075  16.814  0.00  0.00    +0.000 OA
ENDBRANCH  21  26
ENDBRANCH  20  21
ENDBRANCH  18  20
ENDBRANCH   1  18
TORSDOF 4
ENDMDL
MODEL 8
REMARK VINA RESULT:      -8.0      1.577      1.777
REMARK  Name = 
REMARK  5 active torsions:
REMARK  status: ('A' for Active; 'I' for Inactive)
REMARK    1  A    between atoms: C_1  and  C_2
REMARK    2  A    between atoms: C_5  and  C_6
REMARK    3  A    between atoms: C_6  and  O_7
REMARK    4  A    between atoms: O_7  and  C_8
REMARK    5  A    between atoms: C_8  and  C_10
REMARK                            x       y       z     vdW  Elec       q    Type
REMARK                         _______ _______ _______ _____ _____    ______ ____
ROOT
ATOM      1  C   UNL     1       2.321   7.801  18.684  0.00  0.00    +0.000 A 
ATOM      2  C   UNL     1       2.197   8.836  17.766  0.00  0.00    +0.000 A 
ATOM      3  C   UNL     1       1.496  10.007  18.095  0.00  0.00    +0.000 A 
ATOM      4  C   UNL     1       0.912  10.218  19.362  0.00  0.00    +0.000 A 
ATOM      5  C   UNL     1       1.042   9.139  20.243  0.00  0.00    +0.000 A 
ATOM      6  C   UNL     1       1.718   7.943  19.929  0.00  0.00    +0.000 A 
ATOM      7  S   UNL     1       0.350   9.242  21.850  0.00  0.00    +0.000 S 
ATOM      8  O   UNL     1       1.483   9.246  22.756  0.00  0.00    +0.000 OA
ATOM      9  O   UNL     1      -0.639   8.187  21.916  0.00  0.00    +0.000 OA
ATOM     10  N   UNL     1      -0.393  10.650  21.954  0.00  0.00    +0.000 NA
ATOM     11  C   UNL     1      -0.376  11.522  21.003  0.00  0.00    +0.000 C 
ATOM     12  C   UNL     1      -1.109  12.802  21.464  0.00  0.00    +0.000 C 
ATOM     13  C   UNL     1      -1.815  13.641  20.420  0.00  0.00    +0.000 C 
ATOM     14  C   UNL     1      -0.844  14.576  19.714  0.00  0.00    +0.000 C 
ATOM     15  C   UNL     1       0.428  13.876  19.262  0.00  0.00    +0.000 C 
ATOM     16  C   UNL     1       0.160  12.478  18.719  0.00  0.00    +0.000 C 
ATOM     17  N   UNL     1       0.259  11.420  19.751  0.00  0.00    +0.000 N 
ENDROOT
BRANCH   1  18
ATOM     18  C   UNL     1       3.038   6.575  18.259  0.00  0.00    +0.000 C 
ATOM     19  O   UNL     1       2.940   5.503  18.834  0.00  0.00    +0.000 OA
BRANCH  18  20
ATOM     20  O   UNL     1       3.881   6.864  17.244  0.00  0.00    +0.000 OA
BRANCH  20  21
ATOM     21  C   UNL     1       4.852   5.841  16.986  0.00  0.00    +0.000 C 
BRANCH  21  26
ATOM     22  C   UNL     1       8.322   9.103  17.818  0.00  0.00    +0.000 C 
ATOM     23  C   UNL     1       7.649   7.796  17.896  0.00  0.00    +0.000 A 
ATOM     24  N   UNL     1       8.017   6.699  18.522  0.00  0.00    +0.000 NA
ATOM     25  N   UNL     1       7.039   5.759  18.269  0.00  0.00    +0.000 NA
ATOM     26  C   UNL     1       6.147   6.348  17.501  0.00  0.00    +0.000 A 
ATOM     27  O   UNL     1       6.468   7.655  17.222  0.00  0.00    +0.000 OA
ENDBRANCH  21  26
ENDBRANCH  20  21
ENDBRANCH  18  20
ENDBRANCH   1  18
TORSDOF 4
ENDMDL
MODEL 9
REMARK VINA RESULT:      -7.9      2.110      3.020
REMARK  Name = 
REMARK  5 active torsions:
REMARK  status: ('A' for Active; 'I' for Inactive)
REMARK    1  A    between atoms: C_1  and  C_2
REMARK    2  A    between atoms: C_5  and  C_6
REMARK    3  A    between atoms: C_6  and  O_7
REMARK    4  A    between atoms: O_7  and  C_8
REMARK    5  A    between atoms: C_8  and  C_10
REMARK                            x       y       z     vdW  Elec       q    Type
REMARK                         _______ _______ _______ _____ _____    ______ ____
ROOT
ATOM      1  C   UNL     1       2.157   8.337  18.648  0.00  0.00    +0.000 A 
ATOM      2  C   UNL     1       1.894   9.433  17.835  0.00  0.00    +0.000 A 
ATOM      3  C   UNL     1       1.097  10.493  18.298  0.00  0.00    +0.000 A 
ATOM      4  C   UNL     1       0.552  10.529  19.599  0.00  0.00    +0.000 A 
ATOM      5  C   UNL     1       0.825   9.394  20.369  0.00  0.00    +0.000 A 
ATOM      6  C   UNL     1       1.599   8.305  19.920  0.00  0.00    +0.000 A 
ATOM      7  S   UNL     1       0.197   9.280  22.002  0.00  0.00    +0.000 S 
ATOM      8  O   UNL     1       1.363   9.317  22.864  0.00  0.00    +0.000 OA
ATOM      9  O   UNL     1      -0.680   8.129  22.002  0.00  0.00    +0.000 OA
ATOM     10  N   UNL     1      -0.674  10.592  22.263  0.00  0.00    +0.000 NA
ATOM     11  C   UNL     1      -0.784  11.543  21.399  0.00  0.00    +0.000 C 
ATOM     12  C   UNL     1      -1.617  12.695  22.004  0.00  0.00    +0.000 C 
ATOM     13  C   UNL     1      -2.446  13.550  21.069  0.00  0.00    +0.000 C 
ATOM     14  C   UNL     1      -1.603  14.638  20.421  0.00  0.00    +0.000 C 
ATOM     15  C   UNL     1      -0.289  14.113  19.861  0.00  0.00    +0.000 C 
ATOM     16  C   UNL     1      -0.444  12.751  19.198  0.00  0.00    +0.000 C 
ATOM     17  N   UNL     1      -0.198  11.619  20.121  0.00  0.00    +0.000 N 
ENDROOT
BRANCH   1  18
ATOM     18  C   UNL     1       2.971   7.234  18.084  0.00  0.00    +0.000 C 
ATOM     19  O   UNL     1       4.021   7.407  17.488  0.00  0.00    +0.000 OA
BRANCH  18  20
ATOM     20  O   UNL     1       2.317   6.060  18.227  0.00  0.00    +0.000 OA
BRANCH  20  21
ATOM     21  C   UNL     1       3.058   4.922  17.768  0.00  0.00    +0.000 C 
BRANCH  21  26
ATOM     22  C   UNL     1       1.624   2.570  21.741  0.00  0.00    +0.000 C 
ATOM     23  C   UNL     1       2.536   2.946  20.649  0.00  0.00    +0.000 A 
ATOM     24  N   UNL     1       3.743   2.502  20.372  0.00  0.00    +0.000 NA
ATOM     25  N   UNL     1       4.164   3.186  19.251  0.00  0.00    +0.000 NA
ATOM     26  C   UNL     1       3.186   4.005  18.926  0.00  0.00    +0.000 A 
ATOM     27  O   UNL     1       2.108   3.906  19.774  0.00  0.00    +0.000 OA
ENDBRANCH  21  26
ENDBRANCH  20  21
ENDBRANCH  18  20
ENDBRANCH   1  18
TORSDOF 4
ENDMDL
