MODEL 1
REMARK VINA RESULT:      -9.3      0.000      0.000
REMARK  Name = 
REMARK  8 active torsions:
REMARK  status: ('A' for Active; 'I' for Inactive)
REMARK    1  A    between atoms: C_1  and  C_2
REMARK    2  A    between atoms: C_2  and  C_3
REMARK    3  A    between atoms: C_6  and  N_7
REMARK    4  A    between atoms: N_7  and  C_8
REMARK    5  A    between atoms: C_8  and  C_9
REMARK    6  A    between atoms: N_13  and  C_14
REMARK    7  A    between atoms: C_25  and  C_26
REMARK    8  A    between atoms: C_26  and  C_27
REMARK                            x       y       z     vdW  Elec       q    Type
REMARK                         _______ _______ _______ _____ _____    ______ ____
ROOT
ATOM      1  C   UNL     1       3.531   4.024  18.676  0.00  0.00    +0.000 A 
ATOM      2  N   UNL     1       4.120   2.864  18.996  0.00  0.00    +0.000 NA
ATOM      3  N   UNL     1       5.413   3.292  19.351  0.00  0.00    +0.000 NA
ATOM      4  C   UNL     1       5.538   4.526  18.850  0.00  0.00    +0.000 A 
ATOM      5  N   UNL     1       6.648   5.338  18.661  0.00  0.00    +0.000 N 
ATOM      6  C   UNL     1       6.369   6.735  18.241  0.00  0.00    +0.000 C 
ATOM      7  C   UNL     1       7.370   4.635  17.714  0.00  0.00    +0.000 A 
ATOM      8  O   UNL     1       8.474   4.124  17.883  0.00  0.00    +0.000 OA
ATOM      9  C   UNL     1       6.620   4.503  16.437  0.00  0.00    +0.000 A 
ATOM     10  C   UNL     1       7.394   4.596  15.282  0.00  0.00    +0.000 A 
ATOM     11  C   UNL     1       6.761   4.519  14.059  0.00  0.00    +0.000 A 
ATOM     12  C   UNL     1       5.375   4.286  14.032  0.00  0.00    +0.000 A 
ATOM     13  C   UNL     1       4.576   4.204  15.221  0.00  0.00    +0.000 A 
ATOM     14  C   UNL     1       5.178   4.380  16.473  0.00  0.00    +0.000 A 
ATOM     15  N   UNL     1       4.582   4.524  17.839  0.00  0.00    +0.000 N 
ENDROOT
BRANCH   1  16
ATOM     16  C   UNL     1       3.018   4.885  20.043  0.00  0.00    +0.000 C 
BRANCH  16  17
ATOM     17  N   UNL     1       3.087   6.380  19.866  0.00  0.00    +0.000 N 
ATOM     18  H   UNL     1       3.957   6.707  20.301  0.00  0.00    +0.000 HD
BRANCH  17  22
ATOM     19  C   UNL     1       0.695   9.876  19.044  0.00  0.00    +0.000 A 
ATOM     20  C   UNL     1       1.396   9.214  18.013  0.00  0.00    +0.000 A 
ATOM     21  C   UNL     1       2.183   8.037  18.236  0.00  0.00    +0.000 A 
ATOM     22  C   UNL     1       2.283   7.448  19.493  0.00  0.00    +0.000 A 
ATOM     23  C   UNL     1       1.527   8.111  20.509  0.00  0.00    +0.000 A 
ATOM     24  C   UNL     1       0.732   9.290  20.324  0.00  0.00    +0.000 A 
BRANCH  19  26
ATOM     25  C   UNL     1       0.927  12.472  18.782  0.00  0.00    +0.000 C 
ATOM     26  C   UNL     1       0.035  11.231  18.777  0.00  0.00    +0.000 C 
ENDBRANCH  19  26
BRANCH  24  27
ATOM     27  C   UNL     1      -0.019   9.963  21.469  0.00  0.00    +0.000 C 
ATOM     28  C   UNL     1       0.162   9.438  22.888  0.00  0.00    +0.000 C 
ENDBRANCH  24  27
ENDBRANCH  17  22
ENDBRANCH  16  17
ENDBRANCH   1  16
TORSDOF 5
ENDMDL
MODEL 2
REMARK VINA RESULT:      -9.0      4.695      7.024
REMARK  Name = 
REMARK  8 active torsions:
REMARK  status: ('A' for Active; 'I' for Inactive)
REMARK    1  A    between atoms: C_1  and  C_2
REMARK    2  A    between atoms: C_2  and  C_3
REMARK    3  A    between atoms: C_6  and  N_7
REMARK    4  A    between atoms: N_7  and  C_8
REMARK    5  A    between atoms: C_8  and  C_9
REMARK    6  A    between atoms: N_13  and  C_14
REMARK    7  A    between atoms: C_25  and  C_26
REMARK    8  A    between atoms: C_26  and  C_27
REMARK                            x       y       z     vdW  Elec       q    Type
REMARK                         _______ _______ _______ _____ _____    ______ ____
ROOT
ATOM      1  C   UNL     1       7.234   6.708  18.722  0.00  0.00    +0.000 A 
ATOM      2  N   UNL     1       7.972   5.593  18.795  0.00  0.00    +0.000 NA
ATOM      3  N   UNL     1       7.879   5.106  17.477  0.00  0.00    +0.000 NA
ATOM      4  C   UNL     1       6.840   5.743  16.927  0.00  0.00    +0.000 A 
ATOM      5  N   UNL     1       6.121   5.504  15.764  0.00  0.00    +0.000 N 
ATOM      6  C   UNL     1       5.135   6.548  15.381  0.00  0.00    +0.000 C 
ATOM      7  C   UNL     1       5.522   4.285  16.032  0.00  0.00    +0.000 A 
ATOM      8  O   UNL     1       5.743   3.230  15.443  0.00  0.00    +0.000 OA
ATOM      9  C   UNL     1       4.594   4.371  17.190  0.00  0.00    +0.000 A 
ATOM     10  C   UNL     1       3.430   3.614  17.074  0.00  0.00    +0.000 A 
ATOM     11  C   UNL     1       2.503   3.672  18.094  0.00  0.00    +0.000 A 
ATOM     12  C   UNL     1       2.803   4.442  19.232  0.00  0.00    +0.000 A 
ATOM     13  C   UNL     1       3.995   5.233  19.345  0.00  0.00    +0.000 A 
ATOM     14  C   UNL     1       4.904   5.271  18.281  0.00  0.00    +0.000 A 
ATOM     15  N   UNL     1       6.110   6.126  18.049  0.00  0.00    +0.000 N 
ENDROOT
BRANCH   1  16
ATOM     16  C   UNL     1       8.089   8.003  18.039  0.00  0.00    +0.000 C 
BRANCH  16  17
ATOM     17  N   UNL     1       8.904   8.776  19.043  0.00  0.00    +0.000 N 
ATOM     18  H   UNL     1       9.106   8.150  19.832  0.00  0.00    +0.000 HD
BRANCH  17  22
ATOM     19  C   UNL     1       9.910  12.934  19.602  0.00  0.00    +0.000 A 
ATOM     20  C   UNL     1       9.591  12.108  20.702  0.00  0.00    +0.000 A 
ATOM     21  C   UNL     1       9.273  10.716  20.565  0.00  0.00    +0.000 A 
ATOM     22  C   UNL     1       9.289  10.078  19.329  0.00  0.00    +0.000 A 
ATOM     23  C   UNL     1       9.662  10.926  18.239  0.00  0.00    +0.000 A 
ATOM     24  C   UNL     1       9.982  12.320  18.337  0.00  0.00    +0.000 A 
BRANCH  19  26
ATOM     25  C   UNL     1      11.435  15.001  20.118  0.00  0.00    +0.000 C 
ATOM     26  C   UNL     1      10.048  14.447  19.793  0.00  0.00    +0.000 C 
ENDBRANCH  19  26
BRANCH  24  27
ATOM     27  C   UNL     1      10.335  13.170  17.121  0.00  0.00    +0.000 C 
ATOM     28  C   UNL     1      11.797  13.323  16.718  0.00  0.00    +0.000 C 
ENDBRANCH  24  27
ENDBRANCH  17  22
ENDBRANCH  16  17
ENDBRANCH   1  16
TORSDOF 5
ENDMDL
MODEL 3
REMARK VINA RESULT:      -8.8      4.578      6.566
REMARK  Name = 
REMARK  8 active torsions:
REMARK  status: ('A' for Active; 'I' for Inactive)
REMARK    1  A    between atoms: C_1  and  C_2
REMARK    2  A    between atoms: C_2  and  C_3
REMARK    3  A    between atoms: C_6  and  N_7
REMARK    4  A    between atoms: N_7  and  C_8
REMARK    5  A    between atoms: C_8  and  C_9
REMARK    6  A    between atoms: N_13  and  C_14
REMARK    7  A    between atoms: C_25  and  C_26
REMARK    8  A    between atoms: C_26  and  C_27
REMARK                            x       y       z     vdW  Elec       q    Type
REMARK                         _______ _______ _______ _____ _____    ______ ____
ROOT
ATOM      1  C   UNL     1       7.271   6.503  18.760  0.00  0.00    +0.000 A 
ATOM      2  N   UNL     1       7.946   5.351  18.870  0.00  0.00    +0.000 NA
ATOM      3  N   UNL     1       7.830   4.830  17.567  0.00  0.00    +0.000 NA
ATOM      4  C   UNL     1       6.830   5.506  16.993  0.00  0.00    +0.000 A 
ATOM      5  N   UNL     1       6.103   5.272  15.834  0.00  0.00    +0.000 N 
ATOM      6  C   UNL     1       5.179   6.357  15.414  0.00  0.00    +0.000 C 
ATOM      7  C   UNL     1       5.437   4.098  16.135  0.00  0.00    +0.000 A 
ATOM      8  O   UNL     1       5.601   3.014  15.579  0.00  0.00    +0.000 OA
ATOM      9  C   UNL     1       4.510   4.270  17.284  0.00  0.00    +0.000 A 
ATOM     10  C   UNL     1       3.306   3.575  17.186  0.00  0.00    +0.000 A 
ATOM     11  C   UNL     1       2.381   3.716  18.198  0.00  0.00    +0.000 A 
ATOM     12  C   UNL     1       2.719   4.502  19.314  0.00  0.00    +0.000 A 
ATOM     13  C   UNL     1       3.953   5.229  19.409  0.00  0.00    +0.000 A 
ATOM     14  C   UNL     1       4.866   5.184  18.350  0.00  0.00    +0.000 A 
ATOM     15  N   UNL     1       6.119   5.964  18.098  0.00  0.00    +0.000 N 
ENDROOT
BRANCH   1  16
ATOM     16  C   UNL     1       8.199   7.726  18.042  0.00  0.00    +0.000 C 
BRANCH  16  17
ATOM     17  N   UNL     1       8.787   8.692  19.039  0.00  0.00    +0.000 N 
ATOM     18  H   UNL     1       8.682   8.280  19.973  0.00  0.00    +0.000 HD
BRANCH  17  22
ATOM     19  C   UNL     1      10.312  12.682  19.645  0.00  0.00    +0.000 A 
ATOM     20  C   UNL     1      10.362  12.068  18.374  0.00  0.00    +0.000 A 
ATOM     21  C   UNL     1       9.847  10.754  18.123  0.00  0.00    +0.000 A 
ATOM     22  C   UNL     1       9.230  10.004  19.119  0.00  0.00    +0.000 A 
ATOM     23  C   UNL     1       9.151  10.668  20.383  0.00  0.00    +0.000 A 
ATOM     24  C   UNL     1       9.657  11.978  20.673  0.00  0.00    +0.000 A 
BRANCH  19  26
ATOM     25  C   UNL     1      10.262  15.300  19.729  0.00  0.00    +0.000 C 
ATOM     26  C   UNL     1      11.050  14.000  19.890  0.00  0.00    +0.000 C 
ENDBRANCH  19  26
BRANCH  24  27
ATOM     27  C   UNL     1       9.567  12.605  22.060  0.00  0.00    +0.000 C 
ATOM     28  C   UNL     1       8.307  12.398  22.891  0.00  0.00    +0.000 C 
ENDBRANCH  24  27
ENDBRANCH  17  22
ENDBRANCH  16  17
ENDBRANCH   1  16
TORSDOF 5
ENDMDL
MODEL 4
REMARK VINA RESULT:      -8.8      0.787      1.962
REMARK  Name = 
REMARK  8 active torsions:
REMARK  status: ('A' for Active; 'I' for Inactive)
REMARK    1  A    between atoms: C_1  and  C_2
REMARK    2  A    between atoms: C_2  and  C_3
REMARK    3  A    between atoms: C_6  and  N_7
REMARK    4  A    between atoms: N_7  and  C_8
REMARK    5  A    between atoms: C_8  and  C_9
REMARK    6  A    between atoms: N_13  and  C_14
REMARK    7  A    between atoms: C_25  and  C_26
REMARK    8  A    between atoms: C_26  and  C_27
REMARK                            x       y       z     vdW  Elec       q    Type
REMARK                         _______ _______ _______ _____ _____    ______ ____
ROOT
ATOM      1  C   UNL     1       3.559   4.406  18.627  0.00  0.00    +0.000 A 
ATOM      2  N   UNL     1       4.066   3.226  19.007  0.00  0.00    +0.000 NA
ATOM      3  N   UNL     1       5.388   3.580  19.338  0.00  0.00    +0.000 NA
ATOM      4  C   UNL     1       5.596   4.774  18.773  0.00  0.00    +0.000 A 
ATOM      5  N   UNL     1       6.759   5.495  18.542  0.00  0.00    +0.000 N 
ATOM      6  C   UNL     1       6.577   6.885  18.050  0.00  0.00    +0.000 C 
ATOM      7  C   UNL     1       7.427   4.696  17.631  0.00  0.00    +0.000 A 
ATOM      8  O   UNL     1       8.493   4.118  17.825  0.00  0.00    +0.000 OA
ATOM      9  C   UNL     1       6.663   4.551  16.363  0.00  0.00    +0.000 A 
ATOM     10  C   UNL     1       7.435   4.529  15.204  0.00  0.00    +0.000 A 
ATOM     11  C   UNL     1       6.793   4.435  13.987  0.00  0.00    +0.000 A 
ATOM     12  C   UNL     1       5.394   4.298  13.974  0.00  0.00    +0.000 A 
ATOM     13  C   UNL     1       4.597   4.334  15.167  0.00  0.00    +0.000 A 
ATOM     14  C   UNL     1       5.216   4.531  16.407  0.00  0.00    +0.000 A 
ATOM     15  N   UNL     1       4.638   4.787  17.765  0.00  0.00    +0.000 N 
ENDROOT
BRANCH   1  16
ATOM     16  C   UNL     1       3.113   5.370  19.949  0.00  0.00    +0.000 C 
BRANCH  16  17
ATOM     17  N   UNL     1       2.575   6.720  19.547  0.00  0.00    +0.000 N 
ATOM     18  H   UNL     1       2.956   6.947  18.622  0.00  0.00    +0.000 HD
BRANCH  17  22
ATOM     19  C   UNL     1       0.243  10.065  20.958  0.00  0.00    +0.000 A 
ATOM     20  C   UNL     1       0.860   9.173  21.863  0.00  0.00    +0.000 A 
ATOM     21  C   UNL     1       1.662   8.063  21.439  0.00  0.00    +0.000 A 
ATOM     22  C   UNL     1       1.911   7.809  20.094  0.00  0.00    +0.000 A 
ATOM     23  C   UNL     1       1.314   8.753  19.202  0.00  0.00    +0.000 A 
ATOM     24  C   UNL     1       0.505   9.872  19.588  0.00  0.00    +0.000 A 
BRANCH  19  26
ATOM     25  C   UNL     1      -1.160  11.049  22.939  0.00  0.00    +0.000 C 
ATOM     26  C   UNL     1      -0.753  11.109  21.468  0.00  0.00    +0.000 C 
ENDBRANCH  19  26
BRANCH  24  27
ATOM     27  C   UNL     1      -0.129  10.817  18.573  0.00  0.00    +0.000 C 
ATOM     28  C   UNL     1      -1.425  10.407  17.883  0.00  0.00    +0.000 C 
ENDBRANCH  24  27
ENDBRANCH  17  22
ENDBRANCH  16  17
ENDBRANCH   1  16
TORSDOF 5
ENDMDL
MODEL 5
REMARK VINA RESULT:      -8.5      4.374      6.495
REMARK  Name = 
REMARK  8 active torsions:
REMARK  status: ('A' for Active; 'I' for Inactive)
REMARK    1  A    between atoms: C_1  and  C_2
REMARK    2  A    between atoms: C_2  and  C_3
REMARK    3  A    between atoms: C_6  and  N_7
REMARK    4  A    between atoms: N_7  and  C_8
REMARK    5  A    between atoms: C_8  and  C_9
REMARK    6  A    between atoms: N_13  and  C_14
REMARK    7  A    between atoms: C_25  and  C_26
REMARK    8  A    between atoms: C_26  and  C_27
REMARK                            x       y       z     vdW  Elec       q    Type
REMARK                         _______ _______ _______ _____ _____    ______ ____
ROOT
ATOM      1  C   UNL     1       7.250   6.543  18.730  0.00  0.00    +0.000 A 
ATOM      2  N   UNL     1       7.943   5.401  18.823  0.00  0.00    +0.000 NA
ATOM      3  N   UNL     1       7.833   4.897  17.513  0.00  0.00    +0.000 NA
ATOM      4  C   UNL     1       6.821   5.565  16.950  0.00  0.00    +0.000 A 
ATOM      5  N   UNL     1       6.096   5.337  15.789  0.00  0.00    +0.000 N 
ATOM      6  C   UNL     1       5.154   6.412  15.386  0.00  0.00    +0.000 C 
ATOM      7  C   UNL     1       5.449   4.147  16.074  0.00  0.00    +0.000 A 
ATOM      8  O   UNL     1       5.629   3.075  15.503  0.00  0.00    +0.000 OA
ATOM      9  C   UNL     1       4.522   4.289  17.228  0.00  0.00    +0.000 A 
ATOM     10  C   UNL     1       3.329   3.576  17.122  0.00  0.00    +0.000 A 
ATOM     11  C   UNL     1       2.403   3.688  18.137  0.00  0.00    +0.000 A 
ATOM     12  C   UNL     1       2.731   4.463  19.264  0.00  0.00    +0.000 A 
ATOM     13  C   UNL     1       3.953   5.208  19.367  0.00  0.00    +0.000 A 
ATOM     14  C   UNL     1       4.865   5.192  18.306  0.00  0.00    +0.000 A 
ATOM     15  N   UNL     1       6.105   5.996  18.063  0.00  0.00    +0.000 N 
ENDROOT
BRANCH   1  16
ATOM     16  C   UNL     1       8.157   7.792  18.029  0.00  0.00    +0.000 C 
BRANCH  16  17
ATOM     17  N   UNL     1       8.813   8.694  19.042  0.00  0.00    +0.000 N 
ATOM     18  H   UNL     1       8.800   8.211  19.947  0.00  0.00    +0.000 HD
BRANCH  17  22
ATOM     19  C   UNL     1       9.764  12.889  19.384  0.00  0.00    +0.000 A 
ATOM     20  C   UNL     1      10.304  11.944  20.283  0.00  0.00    +0.000 A 
ATOM     21  C   UNL     1      10.034  10.539  20.193  0.00  0.00    +0.000 A 
ATOM     22  C   UNL     1       9.237  10.008  19.184  0.00  0.00    +0.000 A 
ATOM     23  C   UNL     1       8.741  10.981  18.260  0.00  0.00    +0.000 A 
ATOM     24  C   UNL     1       8.988  12.392  18.320  0.00  0.00    +0.000 A 
BRANCH  19  26
ATOM     25  C   UNL     1       9.095  15.013  20.764  0.00  0.00    +0.000 C 
ATOM     26  C   UNL     1       9.934  14.387  19.651  0.00  0.00    +0.000 C 
ENDBRANCH  19  26
BRANCH  24  27
ATOM     27  C   UNL     1       8.391  13.374  17.317  0.00  0.00    +0.000 C 
ATOM     28  C   UNL     1       7.011  13.962  17.582  0.00  0.00    +0.000 C 
ENDBRANCH  24  27
ENDBRANCH  17  22
ENDBRANCH  16  17
ENDBRANCH   1  16
TORSDOF 5
ENDMDL
MODEL 6
REMARK VINA RESULT:      -8.5      4.496      8.916
REMARK  Name = 
REMARK  8 active torsions:
REMARK  status: ('A' for Active; 'I' for Inactive)
REMARK    1  A    between atoms: C_1  and  C_2
REMARK    2  A    between atoms: C_2  and  C_3
REMARK    3  A    between atoms: C_6  and  N_7
REMARK    4  A    between atoms: N_7  and  C_8
REMARK    5  A    between atoms: C_8  and  C_9
REMARK    6  A    between atoms: N_13  and  C_14
REMARK    7  A    between atoms: C_25  and  C_26
REMARK    8  A    between atoms: C_26  and  C_27
REMARK                            x       y       z     vdW  Elec       q    Type
REMARK                         _______ _______ _______ _____ _____    ______ ____
ROOT
ATOM      1  C   UNL     1       1.057  10.259  21.815  0.00  0.00    +0.000 A 
ATOM      2  N   UNL     1       0.266  10.797  22.754  0.00  0.00    +0.000 NA
ATOM      3  N   UNL     1      -0.935  10.977  22.042  0.00  0.00    +0.000 NA
ATOM      4  C   UNL     1      -0.607  10.894  20.749  0.00  0.00    +0.000 A 
ATOM      5  N   UNL     1      -1.302  11.234  19.596  0.00  0.00    +0.000 N 
ATOM      6  C   UNL     1      -0.678  10.822  18.313  0.00  0.00    +0.000 C 
ATOM      7  C   UNL     1      -1.413  12.608  19.713  0.00  0.00    +0.000 A 
ATOM      8  O   UNL     1      -2.459  13.237  19.854  0.00  0.00    +0.000 OA
ATOM      9  C   UNL     1      -0.082  13.269  19.712  0.00  0.00    +0.000 A 
ATOM     10  C   UNL     1      -0.024  14.487  19.037  0.00  0.00    +0.000 A 
ATOM     11  C   UNL     1       1.187  15.141  18.962  0.00  0.00    +0.000 A 
ATOM     12  C   UNL     1       2.295  14.583  19.624  0.00  0.00    +0.000 A 
ATOM     13  C   UNL     1       2.240  13.322  20.307  0.00  0.00    +0.000 A 
ATOM     14  C   UNL     1       1.047  12.589  20.311  0.00  0.00    +0.000 A 
ATOM     15  N   UNL     1       0.750  11.197  20.775  0.00  0.00    +0.000 N 
ENDROOT
BRANCH   1  16
ATOM     16  C   UNL     1       0.773   8.601  21.609  0.00  0.00    +0.000 C 
BRANCH  16  17
ATOM     17  N   UNL     1       1.894   7.888  20.896  0.00  0.00    +0.000 N 
ATOM     18  H   UNL     1       2.716   8.503  20.911  0.00  0.00    +0.000 HD
BRANCH  17  22
ATOM     19  C   UNL     1       2.213   4.327  18.481  0.00  0.00    +0.000 A 
ATOM     20  C   UNL     1       2.656   5.577  17.997  0.00  0.00    +0.000 A 
ATOM     21  C   UNL     1       2.591   6.781  18.773  0.00  0.00    +0.000 A 
ATOM     22  C   UNL     1       2.108   6.788  20.078  0.00  0.00    +0.000 A 
ATOM     23  C   UNL     1       1.710   5.501  20.559  0.00  0.00    +0.000 A 
ATOM     24  C   UNL     1       1.759   4.278  19.813  0.00  0.00    +0.000 A 
BRANCH  19  26
ATOM     25  C   UNL     1       3.201   2.040  17.669  0.00  0.00    +0.000 C 
ATOM     26  C   UNL     1       2.132   3.124  17.538  0.00  0.00    +0.000 C 
ENDBRANCH  19  26
BRANCH  24  27
ATOM     27  C   UNL     1       1.280   2.947  20.383  0.00  0.00    +0.000 C 
ATOM     28  C   UNL     1       1.586   2.608  21.837  0.00  0.00    +0.000 C 
ENDBRANCH  24  27
ENDBRANCH  17  22
ENDBRANCH  16  17
ENDBRANCH   1  16
TORSDOF 5
ENDMDL
MODEL 7
REMARK VINA RESULT:      -8.3      2.116      3.899
REMARK  Name = 
REMARK  8 active torsions:
REMARK  status: ('A' for Active; 'I' for Inactive)
REMARK    1  A    between atoms: C_1  and  C_2
REMARK    2  A    between atoms: C_2  and  C_3
REMARK    3  A    between atoms: C_6  and  N_7
REMARK    4  A    between atoms: N_7  and  C_8
REMARK    5  A    between atoms: C_8  and  C_9
REMARK    6  A    between atoms: N_13  and  C_14
REMARK    7  A    between atoms: C_25  and  C_26
REMARK    8  A    between atoms: C_26  and  C_27
REMARK                            x       y       z     vdW  Elec       q    Type
REMARK                         _______ _______ _______ _____ _____    ______ ____
ROOT
ATOM      1  C   UNL     1       2.694   7.089  19.228  0.00  0.00    +0.000 A 
ATOM      2  N   UNL     1       1.884   7.185  18.165  0.00  0.00    +0.000 NA
ATOM      3  N   UNL     1       1.532   5.839  17.955  0.00  0.00    +0.000 NA
ATOM      4  C   UNL     1       2.432   5.118  18.633  0.00  0.00    +0.000 A 
ATOM      5  N   UNL     1       2.748   3.767  18.598  0.00  0.00    +0.000 N 
ATOM      6  C   UNL     1       3.692   3.291  19.642  0.00  0.00    +0.000 C 
ATOM      7  C   UNL     1       3.252   3.613  17.319  0.00  0.00    +0.000 A 
ATOM      8  O   UNL     1       2.748   2.942  16.422  0.00  0.00    +0.000 OA
ATOM      9  C   UNL     1       4.482   4.423  17.112  0.00  0.00    +0.000 A 
ATOM     10  C   UNL     1       5.465   3.820  16.330  0.00  0.00    +0.000 A 
ATOM     11  C   UNL     1       6.649   4.496  16.125  0.00  0.00    +0.000 A 
ATOM     12  C   UNL     1       6.786   5.790  16.660  0.00  0.00    +0.000 A 
ATOM     13  C   UNL     1       5.779   6.405  17.477  0.00  0.00    +0.000 A 
ATOM     14  C   UNL     1       4.610   5.699  17.783  0.00  0.00    +0.000 A 
ATOM     15  N   UNL     1       3.496   6.009  18.735  0.00  0.00    +0.000 N 
ENDROOT
BRANCH   1  16
ATOM     16  C   UNL     1       1.834   6.947  20.682  0.00  0.00    +0.000 C 
BRANCH  16  17
ATOM     17  N   UNL     1       1.794   8.226  21.479  0.00  0.00    +0.000 N 
ATOM     18  H   UNL     1       2.632   8.254  22.070  0.00  0.00    +0.000 HD
BRANCH  17  22
ATOM     19  C   UNL     1      -1.058  11.399  22.125  0.00  0.00    +0.000 A 
ATOM     20  C   UNL     1      -0.811  10.428  23.119  0.00  0.00    +0.000 A 
ATOM     21  C   UNL     1       0.144   9.371  22.957  0.00  0.00    +0.000 A 
ATOM     22  C   UNL     1       0.917   9.251  21.807  0.00  0.00    +0.000 A 
ATOM     23  C   UNL     1       0.681  10.274  20.836  0.00  0.00    +0.000 A 
ATOM     24  C   UNL     1      -0.266  11.343  20.962  0.00  0.00    +0.000 A 
BRANCH  19  26
ATOM     25  C   UNL     1      -3.135  12.215  23.496  0.00  0.00    +0.000 C 
ATOM     26  C   UNL     1      -2.222  12.380  22.282  0.00  0.00    +0.000 C 
ENDBRANCH  19  26
BRANCH  24  27
ATOM     27  C   UNL     1      -0.488  12.378  19.864  0.00  0.00    +0.000 C 
ATOM     28  C   UNL     1      -1.323  12.002  18.645  0.00  0.00    +0.000 C 
ENDBRANCH  24  27
ENDBRANCH  17  22
ENDBRANCH  16  17
ENDBRANCH   1  16
TORSDOF 5
ENDMDL
MODEL 8
REMARK VINA RESULT:      -8.3      2.524      4.440
REMARK  Name = 
REMARK  8 active torsions:
REMARK  status: ('A' for Active; 'I' for Inactive)
REMARK    1  A    between atoms: C_1  and  C_2
REMARK    2  A    between atoms: C_2  and  C_3
REMARK    3  A    between atoms: C_6  and  N_7
REMARK    4  A    between atoms: N_7  and  C_8
REMARK    5  A    between atoms: C_8  and  C_9
REMARK    6  A    between atoms: N_13  and  C_14
REMARK    7  A    between atoms: C_25  and  C_26
REMARK    8  A    between atoms: C_26  and  C_27
REMARK                            x       y       z     vdW  Elec       q    Type
REMARK                         _______ _______ _______ _____ _____    ______ ____
ROOT
ATOM      1  C   UNL     1       1.826   7.112  18.604  0.00  0.00    +0.000 A 
ATOM      2  N   UNL     1       2.235   7.142  19.879  0.00  0.00    +0.000 NA
ATOM      3  N   UNL     1       3.621   6.943  19.737  0.00  0.00    +0.000 NA
ATOM      4  C   UNL     1       3.794   6.458  18.503  0.00  0.00    +0.000 A 
ATOM      5  N   UNL     1       4.882   5.847  17.894  0.00  0.00    +0.000 N 
ATOM      6  C   UNL     1       4.761   5.604  16.434  0.00  0.00    +0.000 C 
ATOM      7  C   UNL     1       5.003   4.673  18.617  0.00  0.00    +0.000 A 
ATOM      8  O   UNL     1       5.948   4.366  19.338  0.00  0.00    +0.000 OA
ATOM      9  C   UNL     1       3.798   3.814  18.476  0.00  0.00    +0.000 A 
ATOM     10  C   UNL     1       4.049   2.445  18.409  0.00  0.00    +0.000 A 
ATOM     11  C   UNL     1       2.983   1.587  18.240  0.00  0.00    +0.000 A 
ATOM     12  C   UNL     1       1.684   2.127  18.209  0.00  0.00    +0.000 A 
ATOM     13  C   UNL     1       1.426   3.537  18.264  0.00  0.00    +0.000 A 
ATOM     14  C   UNL     1       2.498   4.435  18.333  0.00  0.00    +0.000 A 
ATOM     15  N   UNL     1       2.538   5.928  18.223  0.00  0.00    +0.000 N 
ENDROOT
BRANCH   1  16
ATOM     16  C   UNL     1       2.092   8.586  17.808  0.00  0.00    +0.000 C 
BRANCH  16  17
ATOM     17  N   UNL     1       1.366   9.744  18.442  0.00  0.00    +0.000 N 
ATOM     18  H   UNL     1       1.947  10.097  19.210  0.00  0.00    +0.000 HD
BRANCH  17  22
ATOM     19  C   UNL     1      -2.677  11.252  18.369  0.00  0.00    +0.000 A 
ATOM     20  C   UNL     1      -1.747  11.707  19.329  0.00  0.00    +0.000 A 
ATOM     21  C   UNL     1      -0.388  11.251  19.376  0.00  0.00    +0.000 A 
ATOM     22  C   UNL     1       0.114  10.343  18.449  0.00  0.00    +0.000 A 
ATOM     23  C   UNL     1      -0.835   9.934  17.460  0.00  0.00    +0.000 A 
ATOM     24  C   UNL     1      -2.200  10.366  17.384  0.00  0.00    +0.000 A 
BRANCH  19  26
ATOM     25  C   UNL     1      -4.571  12.505  19.674  0.00  0.00    +0.000 C 
ATOM     26  C   UNL     1      -4.155  11.629  18.493  0.00  0.00    +0.000 C 
ENDBRANCH  19  26
BRANCH  24  27
ATOM     27  C   UNL     1      -3.165   9.855  16.319  0.00  0.00    +0.000 C 
ATOM     28  C   UNL     1      -3.051  10.386  14.895  0.00  0.00    +0.000 C 
ENDBRANCH  24  27
ENDBRANCH  17  22
ENDBRANCH  16  17
ENDBRANCH   1  16
TORSDOF 5
ENDMDL
MODEL 9
REMARK VINA RESULT:      -8.2      4.025      8.958
REMARK  Name = 
REMARK  8 active torsions:
REMARK  status: ('A' for Active; 'I' for Inactive)
REMARK    1  A    between atoms: C_1  and  C_2
REMARK    2  A    between atoms: C_2  and  C_3
REMARK    3  A    between atoms: C_6  and  N_7
REMARK    4  A    between atoms: N_7  and  C_8
REMARK    5  A    between atoms: C_8  and  C_9
REMARK    6  A    between atoms: N_13  and  C_14
REMARK    7  A    between atoms: C_25  and  C_26
REMARK    8  A    between atoms: C_26  and  C_27
REMARK                            x       y       z     vdW  Elec       q    Type
REMARK                         _______ _______ _______ _____ _____    ______ ____
ROOT
ATOM      1  C   UNL     1       1.111   9.945  21.595  0.00  0.00    +0.000 A 
ATOM      2  N   UNL     1       0.494  10.515  22.639  0.00  0.00    +0.000 NA
ATOM      3  N   UNL     1      -0.779  10.786  22.102  0.00  0.00    +0.000 NA
ATOM      4  C   UNL     1      -0.637  10.706  20.774  0.00  0.00    +0.000 A 
ATOM      5  N   UNL     1      -1.459  11.112  19.732  0.00  0.00    +0.000 N 
ATOM      6  C   UNL     1      -1.045  10.685  18.371  0.00  0.00    +0.000 C 
ATOM      7  C   UNL     1      -1.461  12.488  19.876  0.00  0.00    +0.000 A 
ATOM      8  O   UNL     1      -2.434  13.180  20.167  0.00  0.00    +0.000 OA
ATOM      9  C   UNL     1      -0.101  13.062  19.698  0.00  0.00    +0.000 A 
ATOM     10  C   UNL     1      -0.056  14.286  19.034  0.00  0.00    +0.000 A 
ATOM     11  C   UNL     1       1.175  14.862  18.799  0.00  0.00    +0.000 A 
ATOM     12  C   UNL     1       2.323  14.220  19.297  0.00  0.00    +0.000 A 
ATOM     13  C   UNL     1       2.278  12.953  19.969  0.00  0.00    +0.000 A 
ATOM     14  C   UNL     1       1.051  12.299  20.130  0.00  0.00    +0.000 A 
ATOM     15  N   UNL     1       0.729  10.920  20.617  0.00  0.00    +0.000 N 
ENDROOT
BRANCH   1  16
ATOM     16  C   UNL     1       0.692   8.312  21.413  0.00  0.00    +0.000 C 
BRANCH  16  17
ATOM     17  N   UNL     1       1.802   7.473  20.834  0.00  0.00    +0.000 N 
ATOM     18  H   UNL     1       2.674   8.007  20.916  0.00  0.00    +0.000 HD
BRANCH  17  22
ATOM     19  C   UNL     1       2.759   4.015  18.437  0.00  0.00    +0.000 A 
ATOM     20  C   UNL     1       1.818   3.936  19.487  0.00  0.00    +0.000 A 
ATOM     21  C   UNL     1       1.453   5.064  20.293  0.00  0.00    +0.000 A 
ATOM     22  C   UNL     1       1.987   6.329  20.070  0.00  0.00    +0.000 A 
ATOM     23  C   UNL     1       2.900   6.391  18.972  0.00  0.00    +0.000 A 
ATOM     24  C   UNL     1       3.291   5.286  18.146  0.00  0.00    +0.000 A 
BRANCH  19  26
ATOM     25  C   UNL     1       3.557   1.527  18.621  0.00  0.00    +0.000 C 
ATOM     26  C   UNL     1       3.246   2.740  17.745  0.00  0.00    +0.000 C 
ENDBRANCH  19  26
BRANCH  24  27
ATOM     27  C   UNL     1       4.303   5.424  17.014  0.00  0.00    +0.000 C 
ATOM     28  C   UNL     1       4.897   6.793  16.709  0.00  0.00    +0.000 C 
ENDBRANCH  24  27
ENDBRANCH  17  22
ENDBRANCH  16  17
ENDBRANCH   1  16
TORSDOF 5
ENDMDL
