MODEL 1
REMARK VINA RESULT:      -9.4      0.000      0.000
REMARK  Name = 
REMARK  5 active torsions:
REMARK  status: ('A' for Active; 'I' for Inactive)
REMARK    1  A    between atoms: C_2  and  C_18
REMARK    2  A    between atoms: N_3  and  C_4
REMARK    3  A    between atoms: C_4  and  C_5
REMARK    4  A    between atoms: C_4  and  C_12
REMARK    5  A    between atoms: C_5  and  C_6
REMARK                            x       y       z     vdW  Elec       q    Type
REMARK                         _______ _______ _______ _____ _____    ______ ____
ROOT
ATOM      1  O   UNL     1       2.229   8.624  17.427  0.00  0.00    +0.000 OA
ATOM      2  C   UNL     1       1.935   8.447  18.609  0.00  0.00    +0.000 C 
ATOM      3  N   UNL     1       2.301   7.320  19.302  0.00  0.00    +0.000 N 
ATOM      4  H   UNL     1       1.917   7.176  20.232  0.00  0.00    +0.000 HD
ENDROOT
BRANCH   2   5
ATOM      5  C   UNL     1       1.145   9.465  19.351  0.00  0.00    +0.000 A 
ATOM      6  C   UNL     1       0.587  10.450  18.637  0.00  0.00    +0.000 A 
ATOM      7  N   UNL     1      -0.245  11.422  19.122  0.00  0.00    +0.000 NA
ATOM      8  C   UNL     1      -0.574  11.341  20.375  0.00  0.00    +0.000 A 
ATOM      9  C   UNL     1      -1.553  12.323  20.920  0.00  0.00    +0.000 A 
ATOM     10  C   UNL     1      -1.942  12.238  22.194  0.00  0.00    +0.000 A 
ATOM     11  C   UNL     1      -1.397  11.218  23.050  0.00  0.00    +0.000 A 
ATOM     12  C   UNL     1      -0.498  10.350  22.576  0.00  0.00    +0.000 A 
ATOM     13  N   UNL     1      -0.077  10.379  21.249  0.00  0.00    +0.000 N 
ATOM     14  C   UNL     1       0.873   9.455  20.806  0.00  0.00    +0.000 A 
ATOM     15  O   UNL     1       1.472   8.664  21.540  0.00  0.00    +0.000 OA
ENDBRANCH   2   5
BRANCH   3  16
ATOM     16  C   UNL     1       2.942   6.197  18.621  0.00  0.00    +0.000 C 
BRANCH  16  17
ATOM     17  C   UNL     1       2.195   4.906  18.921  0.00  0.00    +0.000 A 
ATOM     18  C   UNL     1       2.093   3.912  17.937  0.00  0.00    +0.000 A 
ATOM     19  C   UNL     1       1.476   2.693  18.220  0.00  0.00    +0.000 A 
ATOM     20  C   UNL     1       0.948   2.455  19.487  0.00  0.00    +0.000 A 
ATOM     21  C   UNL     1       1.017   3.443  20.467  0.00  0.00    +0.000 A 
ATOM     22  C   UNL     1       1.630   4.665  20.185  0.00  0.00    +0.000 A 
ENDBRANCH  16  17
BRANCH  16  23
ATOM     23  C   UNL     1       4.441   6.029  18.966  0.00  0.00    +0.000 C 
BRANCH  23  24
ATOM     24  C   UNL     1       5.290   5.662  17.772  0.00  0.00    +0.000 A 
ATOM     25  C   UNL     1       4.851   5.974  16.478  0.00  0.00    +0.000 A 
ATOM     26  C   UNL     1       5.587   5.567  15.366  0.00  0.00    +0.000 A 
ATOM     27  C   UNL     1       6.770   4.851  15.537  0.00  0.00    +0.000 A 
ATOM     28  C   UNL     1       7.230   4.560  16.820  0.00  0.00    +0.000 A 
ATOM     29  C   UNL     1       6.496   4.967  17.935  0.00  0.00    +0.000 A 
ENDBRANCH  23  24
ENDBRANCH  16  23
ENDBRANCH   3  16
TORSDOF 5
ENDMDL
MODEL 2
REMARK VINA RESULT:      -9.4      0.153      1.298
REMARK  Name = 
REMARK  5 active torsions:
REMARK  status: ('A' for Active; 'I' for Inactive)
REMARK    1  A    between atoms: C_2  and  C_18
REMARK    2  A    between atoms: N_3  and  C_4
REMARK    3  A    between atoms: C_4  and  C_5
REMARK    4  A    between atoms: C_4  and  C_12
REMARK    5  A    between atoms: C_5  and  C_6
REMARK                            x       y       z     vdW  Elec       q    Type
REMARK                         _______ _______ _______ _____ _____    ______ ____
ROOT
ATOM      1  O   UNL     1       2.238   8.775  17.473  0.00  0.00    +0.000 OA
ATOM      2  C   UNL     1       1.892   8.563  18.634  0.00  0.00    +0.000 C 
ATOM      3  N   UNL     1       2.233   7.418  19.311  0.00  0.00    +0.000 N 
ATOM      4  H   UNL     1       1.808   7.246  20.218  0.00  0.00    +0.000 HD
ENDROOT
BRANCH   2   5
ATOM      5  C   UNL     1       1.062   9.555  19.368  0.00  0.00    +0.000 A 
ATOM      6  C   UNL     1       0.416  10.475  18.640  0.00  0.00    +0.000 A 
ATOM      7  N   UNL     1      -0.461  11.408  19.121  0.00  0.00    +0.000 NA
ATOM      8  C   UNL     1      -0.741  11.354  20.386  0.00  0.00    +0.000 A 
ATOM      9  C   UNL     1      -1.763  12.290  20.932  0.00  0.00    +0.000 A 
ATOM     10  C   UNL     1      -2.103  12.229  22.221  0.00  0.00    +0.000 A 
ATOM     11  C   UNL     1      -1.462  11.279  23.093  0.00  0.00    +0.000 A 
ATOM     12  C   UNL     1      -0.525  10.453  22.618  0.00  0.00    +0.000 A 
ATOM     13  N   UNL     1      -0.152  10.460  21.276  0.00  0.00    +0.000 N 
ATOM     14  C   UNL     1       0.841   9.582  20.832  0.00  0.00    +0.000 A 
ATOM     15  O   UNL     1       1.516   8.860  21.570  0.00  0.00    +0.000 OA
ENDBRANCH   2   5
BRANCH   3  16
ATOM     16  C   UNL     1       2.912   6.319  18.628  0.00  0.00    +0.000 C 
BRANCH  16  17
ATOM     17  C   UNL     1       2.227   4.999  18.951  0.00  0.00    +0.000 A 
ATOM     18  C   UNL     1       1.744   4.762  20.246  0.00  0.00    +0.000 A 
ATOM     19  C   UNL     1       1.048   3.589  20.541  0.00  0.00    +0.000 A 
ATOM     20  C   UNL     1       0.832   2.637  19.547  0.00  0.00    +0.000 A 
ATOM     21  C   UNL     1       1.330   2.846  18.263  0.00  0.00    +0.000 A 
ATOM     22  C   UNL     1       2.029   4.016  17.967  0.00  0.00    +0.000 A 
ENDBRANCH  16  17
BRANCH  16  23
ATOM     23  C   UNL     1       4.422   6.220  18.949  0.00  0.00    +0.000 C 
BRANCH  23  24
ATOM     24  C   UNL     1       5.245   5.701  17.794  0.00  0.00    +0.000 A 
ATOM     25  C   UNL     1       6.425   4.987  18.040  0.00  0.00    +0.000 A 
ATOM     26  C   UNL     1       7.234   4.575  16.982  0.00  0.00    +0.000 A 
ATOM     27  C   UNL     1       6.867   4.867  15.670  0.00  0.00    +0.000 A 
ATOM     28  C   UNL     1       5.680   5.551  15.412  0.00  0.00    +0.000 A 
ATOM     29  C   UNL     1       4.868   5.964  16.470  0.00  0.00    +0.000 A 
ENDBRANCH  23  24
ENDBRANCH  16  23
ENDBRANCH   3  16
TORSDOF 5
ENDMDL
MODEL 3
REMARK VINA RESULT:      -9.0      0.449      1.011
REMARK  Name = 
REMARK  5 active torsions:
REMARK  status: ('A' for Active; 'I' for Inactive)
REMARK    1  A    between atoms: C_2  and  C_18
REMARK    2  A    between atoms: N_3  and  C_4
REMARK    3  A    between atoms: C_4  and  C_5
REMARK    4  A    between atoms: C_4  and  C_12
REMARK    5  A    between atoms: C_5  and  C_6
REMARK                            x       y       z     vdW  Elec       q    Type
REMARK                         _______ _______ _______ _____ _____    ______ ____
ROOT
ATOM      1  O   UNL     1       1.621   8.264  17.631  0.00  0.00    +0.000 OA
ATOM      2  C   UNL     1       1.792   8.312  18.849  0.00  0.00    +0.000 C 
ATOM      3  N   UNL     1       2.543   7.386  19.528  0.00  0.00    +0.000 N 
ATOM      4  H   UNL     1       2.537   7.408  20.545  0.00  0.00    +0.000 HD
ENDROOT
BRANCH   2   5
ATOM      5  C   UNL     1       1.170   9.396  19.657  0.00  0.00    +0.000 A 
ATOM      6  C   UNL     1       1.000  10.584  19.064  0.00  0.00    +0.000 A 
ATOM      7  N   UNL     1       0.369  11.669  19.607  0.00  0.00    +0.000 NA
ATOM      8  C   UNL     1      -0.171  11.510  20.776  0.00  0.00    +0.000 A 
ATOM      9  C   UNL     1      -0.949  12.638  21.362  0.00  0.00    +0.000 A 
ATOM     10  C   UNL     1      -1.551  12.488  22.544  0.00  0.00    +0.000 A 
ATOM     11  C   UNL     1      -1.424  11.251  23.268  0.00  0.00    +0.000 A 
ATOM     12  C   UNL     1      -0.706  10.244  22.763  0.00  0.00    +0.000 A 
ATOM     13  N   UNL     1      -0.079  10.339  21.522  0.00  0.00    +0.000 N 
ATOM     14  C   UNL     1       0.670   9.260  21.043  0.00  0.00    +0.000 A 
ATOM     15  O   UNL     1       0.924   8.244  21.694  0.00  0.00    +0.000 OA
ENDBRANCH   2   5
BRANCH   3  16
ATOM     16  C   UNL     1       3.065   6.201  18.849  0.00  0.00    +0.000 C 
BRANCH  16  17
ATOM     17  C   UNL     1       2.194   4.994  19.161  0.00  0.00    +0.000 A 
ATOM     18  C   UNL     1       1.845   4.101  18.137  0.00  0.00    +0.000 A 
ATOM     19  C   UNL     1       1.111   2.948  18.419  0.00  0.00    +0.000 A 
ATOM     20  C   UNL     1       0.710   2.678  19.725  0.00  0.00    +0.000 A 
ATOM     21  C   UNL     1       1.024   3.570  20.748  0.00  0.00    +0.000 A 
ATOM     22  C   UNL     1       1.756   4.724  20.469  0.00  0.00    +0.000 A 
ENDBRANCH  16  17
BRANCH  16  23
ATOM     23  C   UNL     1       4.542   5.886  19.187  0.00  0.00    +0.000 C 
BRANCH  23  24
ATOM     24  C   UNL     1       5.359   5.494  17.978  0.00  0.00    +0.000 A 
ATOM     25  C   UNL     1       6.671   5.030  18.141  0.00  0.00    +0.000 A 
ATOM     26  C   UNL     1       7.461   4.744  17.029  0.00  0.00    +0.000 A 
ATOM     27  C   UNL     1       6.945   4.912  15.745  0.00  0.00    +0.000 A 
ATOM     28  C   UNL     1       5.631   5.344  15.573  0.00  0.00    +0.000 A 
ATOM     29  C   UNL     1       4.838   5.631  16.685  0.00  0.00    +0.000 A 
ENDBRANCH  23  24
ENDBRANCH  16  23
ENDBRANCH   3  16
TORSDOF 5
ENDMDL
MODEL 4
REMARK VINA RESULT:      -8.7      0.949      1.587
REMARK  Name = 
REMARK  5 active torsions:
REMARK  status: ('A' for Active; 'I' for Inactive)
REMARK    1  A    between atoms: C_2  and  C_18
REMARK    2  A    between atoms: N_3  and  C_4
REMARK    3  A    between atoms: C_4  and  C_5
REMARK    4  A    between atoms: C_4  and  C_12
REMARK    5  A    between atoms: C_5  and  C_6
REMARK                            x       y       z     vdW  Elec       q    Type
REMARK                         _______ _______ _______ _____ _____    ______ ____
ROOT
ATOM      1  O   UNL     1       2.217   8.714  18.201  0.00  0.00    +0.000 OA
ATOM      2  C   UNL     1       1.783   8.321  19.283  0.00  0.00    +0.000 C 
ATOM      3  N   UNL     1       2.060   7.074  19.784  0.00  0.00    +0.000 N 
ATOM      4  H   UNL     1       1.567   6.765  20.617  0.00  0.00    +0.000 HD
ENDROOT
BRANCH   2   5
ATOM      5  C   UNL     1       0.911   9.198  20.110  0.00  0.00    +0.000 A 
ATOM      6  C   UNL     1       1.135   9.219  21.430  0.00  0.00    +0.000 A 
ATOM      7  N   UNL     1       0.504  10.023  22.339  0.00  0.00    +0.000 NA
ATOM      8  C   UNL     1      -0.340  10.890  21.869  0.00  0.00    +0.000 A 
ATOM      9  C   UNL     1      -0.978  11.849  22.814  0.00  0.00    +0.000 A 
ATOM     10  C   UNL     1      -1.818  12.779  22.354  0.00  0.00    +0.000 A 
ATOM     11  C   UNL     1      -2.132  12.838  20.951  0.00  0.00    +0.000 A 
ATOM     12  C   UNL     1      -1.585  11.965  20.100  0.00  0.00    +0.000 A 
ATOM     13  N   UNL     1      -0.684  10.991  20.524  0.00  0.00    +0.000 N 
ATOM     14  C   UNL     1      -0.149  10.094  19.595  0.00  0.00    +0.000 A 
ATOM     15  O   UNL     1      -0.503  10.017  18.416  0.00  0.00    +0.000 OA
ENDBRANCH   2   5
BRANCH   3  16
ATOM     16  C   UNL     1       2.777   6.086  18.979  0.00  0.00    +0.000 C 
BRANCH  16  17
ATOM     17  C   UNL     1       2.136   4.716  19.139  0.00  0.00    +0.000 A 
ATOM     18  C   UNL     1       2.055   3.850  18.039  0.00  0.00    +0.000 A 
ATOM     19  C   UNL     1       1.539   2.562  18.185  0.00  0.00    +0.000 A 
ATOM     20  C   UNL     1       1.091   2.126  19.430  0.00  0.00    +0.000 A 
ATOM     21  C   UNL     1       1.139   2.985  20.526  0.00  0.00    +0.000 A 
ATOM     22  C   UNL     1       1.652   4.274  20.382  0.00  0.00    +0.000 A 
ENDBRANCH  16  17
BRANCH  16  23
ATOM     23  C   UNL     1       4.290   6.000  19.295  0.00  0.00    +0.000 C 
BRANCH  23  24
ATOM     24  C   UNL     1       5.139   5.727  18.077  0.00  0.00    +0.000 A 
ATOM     25  C   UNL     1       4.705   6.148  16.813  0.00  0.00    +0.000 A 
ATOM     26  C   UNL     1       5.441   5.829  15.672  0.00  0.00    +0.000 A 
ATOM     27  C   UNL     1       6.618   5.093  15.786  0.00  0.00    +0.000 A 
ATOM     28  C   UNL     1       7.073   4.694  17.041  0.00  0.00    +0.000 A 
ATOM     29  C   UNL     1       6.340   5.012  18.184  0.00  0.00    +0.000 A 
ENDBRANCH  23  24
ENDBRANCH  16  23
ENDBRANCH   3  16
TORSDOF 5
ENDMDL
MODEL 5
REMARK VINA RESULT:      -8.6      0.969      2.045
REMARK  Name = 
REMARK  5 active torsions:
REMARK  status: ('A' for Active; 'I' for Inactive)
REMARK    1  A    between atoms: C_2  and  C_18
REMARK    2  A    between atoms: N_3  and  C_4
REMARK    3  A    between atoms: C_4  and  C_5
REMARK    4  A    between atoms: C_4  and  C_12
REMARK    5  A    between atoms: C_5  and  C_6
REMARK                            x       y       z     vdW  Elec       q    Type
REMARK                         _______ _______ _______ _____ _____    ______ ____
ROOT
ATOM      1  O   UNL     1       2.100   8.800  17.765  0.00  0.00    +0.000 OA
ATOM      2  C   UNL     1       1.784   8.510  18.918  0.00  0.00    +0.000 C 
ATOM      3  N   UNL     1       2.168   7.337  19.519  0.00  0.00    +0.000 N 
ATOM      4  H   UNL     1       1.766   7.101  20.422  0.00  0.00    +0.000 HD
ENDROOT
BRANCH   2   5
ATOM      5  C   UNL     1       0.944   9.435  19.726  0.00  0.00    +0.000 A 
ATOM      6  C   UNL     1       1.256   9.575  21.021  0.00  0.00    +0.000 A 
ATOM      7  N   UNL     1       0.665  10.440  21.900  0.00  0.00    +0.000 NA
ATOM      8  C   UNL     1      -0.233  11.244  21.419  0.00  0.00    +0.000 A 
ATOM      9  C   UNL     1      -0.834  12.266  22.321  0.00  0.00    +0.000 A 
ATOM     10  C   UNL     1      -1.729  13.133  21.844  0.00  0.00    +0.000 A 
ATOM     11  C   UNL     1      -2.138  13.064  20.465  0.00  0.00    +0.000 A 
ATOM     12  C   UNL     1      -1.624  12.133  19.655  0.00  0.00    +0.000 A 
ATOM     13  N   UNL     1      -0.669  11.220  20.097  0.00  0.00    +0.000 N 
ATOM     14  C   UNL     1      -0.172  10.260  19.212  0.00  0.00    +0.000 A 
ATOM     15  O   UNL     1      -0.602  10.073  18.071  0.00  0.00    +0.000 OA
ENDBRANCH   2   5
BRANCH   3  16
ATOM     16  C   UNL     1       2.860   6.299  18.758  0.00  0.00    +0.000 C 
BRANCH  16  17
ATOM     17  C   UNL     1       2.212   4.946  19.010  0.00  0.00    +0.000 A 
ATOM     18  C   UNL     1       1.690   4.646  20.276  0.00  0.00    +0.000 A 
ATOM     19  C   UNL     1       1.026   3.440  20.504  0.00  0.00    +0.000 A 
ATOM     20  C   UNL     1       0.883   2.516  19.472  0.00  0.00    +0.000 A 
ATOM     21  C   UNL     1       1.421   2.788  18.215  0.00  0.00    +0.000 A 
ATOM     22  C   UNL     1       2.088   3.992  17.986  0.00  0.00    +0.000 A 
ENDBRANCH  16  17
BRANCH  16  23
ATOM     23  C   UNL     1       4.378   6.217  19.049  0.00  0.00    +0.000 C 
BRANCH  23  24
ATOM     24  C   UNL     1       5.187   5.738  17.866  0.00  0.00    +0.000 A 
ATOM     25  C   UNL     1       6.342   4.973  18.073  0.00  0.00    +0.000 A 
ATOM     26  C   UNL     1       7.140   4.596  16.993  0.00  0.00    +0.000 A 
ATOM     27  C   UNL     1       6.787   4.974  15.700  0.00  0.00    +0.000 A 
ATOM     28  C   UNL     1       5.624   5.710  15.481  0.00  0.00    +0.000 A 
ATOM     29  C   UNL     1       4.823   6.089  16.559  0.00  0.00    +0.000 A 
ENDBRANCH  23  24
ENDBRANCH  16  23
ENDBRANCH   3  16
TORSDOF 5
ENDMDL
MODEL 6
REMARK VINA RESULT:      -8.5      0.948      1.308
REMARK  Name = 
REMARK  5 active torsions:
REMARK  status: ('A' for Active; 'I' for Inactive)
REMARK    1  A    between atoms: C_2  and  C_18
REMARK    2  A    between atoms: N_3  and  C_4
REMARK    3  A    between atoms: C_4  and  C_5
REMARK    4  A    between atoms: C_4  and  C_12
REMARK    5  A    between atoms: C_5  and  C_6
REMARK                            x       y       z     vdW  Elec       q    Type
REMARK                         _______ _______ _______ _____ _____    ______ ____
ROOT
ATOM      1  O   UNL     1       2.197   8.199  17.592  0.00  0.00    +0.000 OA
ATOM      2  C   UNL     1       1.971   8.110  18.798  0.00  0.00    +0.000 C 
ATOM      3  N   UNL     1       2.341   7.017  19.542  0.00  0.00    +0.000 N 
ATOM      4  H   UNL     1       2.011   6.948  20.501  0.00  0.00    +0.000 HD
ENDROOT
BRANCH   2   5
ATOM      5  C   UNL     1       1.262   9.202  19.517  0.00  0.00    +0.000 A 
ATOM      6  C   UNL     1       0.872  10.261  18.795  0.00  0.00    +0.000 A 
ATOM      7  N   UNL     1       0.133  11.316  19.253  0.00  0.00    +0.000 NA
ATOM      8  C   UNL     1      -0.283  11.253  20.481  0.00  0.00    +0.000 A 
ATOM      9  C   UNL     1      -1.170  12.336  20.990  0.00  0.00    +0.000 A 
ATOM     10  C   UNL     1      -1.647  12.277  22.235  0.00  0.00    +0.000 A 
ATOM     11  C   UNL     1      -1.283  11.183  23.097  0.00  0.00    +0.000 A 
ATOM     12  C   UNL     1      -0.466  10.221  22.657  0.00  0.00    +0.000 A 
ATOM     13  N   UNL     1       0.040  10.223  21.359  0.00  0.00    +0.000 N 
ATOM     14  C   UNL     1       0.899   9.199  20.952  0.00  0.00    +0.000 A 
ATOM     15  O   UNL     1       1.351   8.328  21.700  0.00  0.00    +0.000 OA
ENDBRANCH   2   5
BRANCH   3  16
ATOM     16  C   UNL     1       2.901   5.829  18.900  0.00  0.00    +0.000 C 
BRANCH  16  17
ATOM     17  C   UNL     1       2.520   4.582  19.683  0.00  0.00    +0.000 A 
ATOM     18  C   UNL     1       3.508   3.655  20.044  0.00  0.00    +0.000 A 
ATOM     19  C   UNL     1       3.189   2.544  20.826  0.00  0.00    +0.000 A 
ATOM     20  C   UNL     1       1.877   2.343  21.250  0.00  0.00    +0.000 A 
ATOM     21  C   UNL     1       0.879   3.240  20.876  0.00  0.00    +0.000 A 
ATOM     22  C   UNL     1       1.196   4.350  20.092  0.00  0.00    +0.000 A 
ENDBRANCH  16  17
BRANCH  16  23
ATOM     23  C   UNL     1       4.437   5.885  18.714  0.00  0.00    +0.000 C 
BRANCH  23  24
ATOM     24  C   UNL     1       4.882   5.509  17.320  0.00  0.00    +0.000 A 
ATOM     25  C   UNL     1       5.240   4.186  17.033  0.00  0.00    +0.000 A 
ATOM     26  C   UNL     1       5.730   3.846  15.772  0.00  0.00    +0.000 A 
ATOM     27  C   UNL     1       5.860   4.823  14.788  0.00  0.00    +0.000 A 
ATOM     28  C   UNL     1       5.478   6.137  15.054  0.00  0.00    +0.000 A 
ATOM     29  C   UNL     1       4.987   6.480  16.314  0.00  0.00    +0.000 A 
ENDBRANCH  23  24
ENDBRANCH  16  23
ENDBRANCH   3  16
TORSDOF 5
ENDMDL
MODEL 7
REMARK VINA RESULT:      -8.5      1.054      1.819
REMARK  Name = 
REMARK  5 active torsions:
REMARK  status: ('A' for Active; 'I' for Inactive)
REMARK    1  A    between atoms: C_2  and  C_18
REMARK    2  A    between atoms: N_3  and  C_4
REMARK    3  A    between atoms: C_4  and  C_5
REMARK    4  A    between atoms: C_4  and  C_12
REMARK    5  A    between atoms: C_5  and  C_6
REMARK                            x       y       z     vdW  Elec       q    Type
REMARK                         _______ _______ _______ _____ _____    ______ ____
ROOT
ATOM      1  O   UNL     1       1.899   8.744  17.769  0.00  0.00    +0.000 OA
ATOM      2  C   UNL     1       1.763   8.526  18.973  0.00  0.00    +0.000 C 
ATOM      3  N   UNL     1       2.296   7.422  19.590  0.00  0.00    +0.000 N 
ATOM      4  H   UNL     1       2.038   7.234  20.555  0.00  0.00    +0.000 HD
ENDROOT
BRANCH   2   5
ATOM      5  C   UNL     1       0.989   9.465  19.827  0.00  0.00    +0.000 A 
ATOM      6  C   UNL     1       0.288   8.939  20.840  0.00  0.00    +0.000 A 
ATOM      7  N   UNL     1      -0.408   9.642  21.785  0.00  0.00    +0.000 NA
ATOM      8  C   UNL     1      -0.327  10.936  21.732  0.00  0.00    +0.000 A 
ATOM      9  C   UNL     1      -0.992  11.736  22.798  0.00  0.00    +0.000 A 
ATOM     10  C   UNL     1      -0.890  13.067  22.793  0.00  0.00    +0.000 A 
ATOM     11  C   UNL     1      -0.164  13.733  21.744  0.00  0.00    +0.000 A 
ATOM     12  C   UNL     1       0.413  13.024  20.769  0.00  0.00    +0.000 A 
ATOM     13  N   UNL     1       0.358  11.632  20.740  0.00  0.00    +0.000 N 
ATOM     14  C   UNL     1       0.969  10.939  19.692  0.00  0.00    +0.000 A 
ATOM     15  O   UNL     1       1.471  11.474  18.701  0.00  0.00    +0.000 OA
ENDBRANCH   2   5
BRANCH   3  16
ATOM     16  C   UNL     1       2.939   6.365  18.810  0.00  0.00    +0.000 C 
BRANCH  16  17
ATOM     17  C   UNL     1       2.231   5.039  19.044  0.00  0.00    +0.000 A 
ATOM     18  C   UNL     1       1.746   4.721  20.320  0.00  0.00    +0.000 A 
ATOM     19  C   UNL     1       1.029   3.543  20.535  0.00  0.00    +0.000 A 
ATOM     20  C   UNL     1       0.795   2.666  19.479  0.00  0.00    +0.000 A 
ATOM     21  C   UNL     1       1.295   2.954  18.211  0.00  0.00    +0.000 A 
ATOM     22  C   UNL     1       2.015   4.130  17.994  0.00  0.00    +0.000 A 
ENDBRANCH  16  17
BRANCH  16  23
ATOM     23  C   UNL     1       4.452   6.211  19.094  0.00  0.00    +0.000 C 
BRANCH  23  24
ATOM     24  C   UNL     1       5.248   5.801  17.877  0.00  0.00    +0.000 A 
ATOM     25  C   UNL     1       4.800   6.154  16.597  0.00  0.00    +0.000 A 
ATOM     26  C   UNL     1       5.482   5.711  15.464  0.00  0.00    +0.000 A 
ATOM     27  C   UNL     1       6.619   4.917  15.601  0.00  0.00    +0.000 A 
ATOM     28  C   UNL     1       7.089   4.585  16.870  0.00  0.00    +0.000 A 
ATOM     29  C   UNL     1       6.409   5.028  18.006  0.00  0.00    +0.000 A 
ENDBRANCH  23  24
ENDBRANCH  16  23
ENDBRANCH   3  16
TORSDOF 5
ENDMDL
MODEL 8
REMARK VINA RESULT:      -8.5      1.041      1.828
REMARK  Name = 
REMARK  5 active torsions:
REMARK  status: ('A' for Active; 'I' for Inactive)
REMARK    1  A    between atoms: C_2  and  C_18
REMARK    2  A    between atoms: N_3  and  C_4
REMARK    3  A    between atoms: C_4  and  C_5
REMARK    4  A    between atoms: C_4  and  C_12
REMARK    5  A    between atoms: C_5  and  C_6
REMARK                            x       y       z     vdW  Elec       q    Type
REMARK                         _______ _______ _______ _____ _____    ______ ____
ROOT
ATOM      1  O   UNL     1       2.001   8.625  17.755  0.00  0.00    +0.000 OA
ATOM      2  C   UNL     1       1.813   8.416  18.953  0.00  0.00    +0.000 C 
ATOM      3  N   UNL     1       2.274   7.289  19.588  0.00  0.00    +0.000 N 
ATOM      4  H   UNL     1       1.974   7.115  20.544  0.00  0.00    +0.000 HD
ENDROOT
BRANCH   2   5
ATOM      5  C   UNL     1       1.054   9.391  19.781  0.00  0.00    +0.000 A 
ATOM      6  C   UNL     1       0.364   8.908  20.821  0.00  0.00    +0.000 A 
ATOM      7  N   UNL     1      -0.318   9.649  21.746  0.00  0.00    +0.000 NA
ATOM      8  C   UNL     1      -0.231  10.940  21.644  0.00  0.00    +0.000 A 
ATOM      9  C   UNL     1      -0.880  11.784  22.686  0.00  0.00    +0.000 A 
ATOM     10  C   UNL     1      -0.772  13.113  22.629  0.00  0.00    +0.000 A 
ATOM     11  C   UNL     1      -0.056  13.735  21.546  0.00  0.00    +0.000 A 
ATOM     12  C   UNL     1       0.507  12.986  20.592  0.00  0.00    +0.000 A 
ATOM     13  N   UNL     1       0.444  11.595  20.618  0.00  0.00    +0.000 N 
ATOM     14  C   UNL     1       1.039  10.858  19.590  0.00  0.00    +0.000 A 
ATOM     15  O   UNL     1       1.532  11.353  18.572  0.00  0.00    +0.000 OA
ENDBRANCH   2   5
BRANCH   3  16
ATOM     16  C   UNL     1       2.893   6.203  18.832  0.00  0.00    +0.000 C 
BRANCH  16  17
ATOM     17  C   UNL     1       2.154   4.898  19.088  0.00  0.00    +0.000 A 
ATOM     18  C   UNL     1       2.012   3.961  18.055  0.00  0.00    +0.000 A 
ATOM     19  C   UNL     1       1.404   2.728  18.293  0.00  0.00    +0.000 A 
ATOM     20  C   UNL     1       0.923   2.420  19.564  0.00  0.00    +0.000 A 
ATOM     21  C   UNL     1       1.031   3.353  20.594  0.00  0.00    +0.000 A 
ATOM     22  C   UNL     1       1.637   4.587  20.357  0.00  0.00    +0.000 A 
ENDBRANCH  16  17
BRANCH  16  23
ATOM     23  C   UNL     1       4.402   6.019  19.122  0.00  0.00    +0.000 C 
BRANCH  23  24
ATOM     24  C   UNL     1       5.198   5.613  17.905  0.00  0.00    +0.000 A 
ATOM     25  C   UNL     1       6.373   4.864  18.055  0.00  0.00    +0.000 A 
ATOM     26  C   UNL     1       7.159   4.554  16.946  0.00  0.00    +0.000 A 
ATOM     27  C   UNL     1       6.774   4.984  15.678  0.00  0.00    +0.000 A 
ATOM     28  C   UNL     1       5.593   5.704  15.514  0.00  0.00    +0.000 A 
ATOM     29  C   UNL     1       4.804   6.015  16.622  0.00  0.00    +0.000 A 
ENDBRANCH  23  24
ENDBRANCH  16  23
ENDBRANCH   3  16
TORSDOF 5
ENDMDL
MODEL 9
REMARK VINA RESULT:      -8.5      1.308      1.989
REMARK  Name = 
REMARK  5 active torsions:
REMARK  status: ('A' for Active; 'I' for Inactive)
REMARK    1  A    between atoms: C_2  and  C_18
REMARK    2  A    between atoms: N_3  and  C_4
REMARK    3  A    between atoms: C_4  and  C_5
REMARK    4  A    between atoms: C_4  and  C_12
REMARK    5  A    between atoms: C_5  and  C_6
REMARK                            x       y       z     vdW  Elec       q    Type
REMARK                         _______ _______ _______ _____ _____    ______ ____
ROOT
ATOM      1  O   UNL     1       2.284   8.897  17.734  0.00  0.00    +0.000 OA
ATOM      2  C   UNL     1       2.004   8.291  18.768  0.00  0.00    +0.000 C 
ATOM      3  N   UNL     1       2.483   7.035  19.044  0.00  0.00    +0.000 N 
ATOM      4  H   UNL     1       2.111   6.540  19.850  0.00  0.00    +0.000 HD
ENDROOT
BRANCH   2   5
ATOM      5  C   UNL     1       1.107   8.905  19.784  0.00  0.00    +0.000 A 
ATOM      6  C   UNL     1       1.227   8.480  21.048  0.00  0.00    +0.000 A 
ATOM      7  N   UNL     1       0.560   8.983  22.131  0.00  0.00    +0.000 NA
ATOM      8  C   UNL     1      -0.207  10.009  21.923  0.00  0.00    +0.000 A 
ATOM      9  C   UNL     1      -0.877  10.646  23.091  0.00  0.00    +0.000 A 
ATOM     10  C   UNL     1      -1.639  11.728  22.914  0.00  0.00    +0.000 A 
ATOM     11  C   UNL     1      -1.838  12.263  21.592  0.00  0.00    +0.000 A 
ATOM     12  C   UNL     1      -1.263  11.681  20.535  0.00  0.00    +0.000 A 
ATOM     13  N   UNL     1      -0.439  10.565  20.669  0.00  0.00    +0.000 N 
ATOM     14  C   UNL     1       0.130   9.988  19.530  0.00  0.00    +0.000 A 
ATOM     15  O   UNL     1      -0.133  10.323  18.372  0.00  0.00    +0.000 OA
ENDBRANCH   2   5
BRANCH   3  16
ATOM     16  C   UNL     1       3.243   6.287  18.043  0.00  0.00    +0.000 C 
BRANCH  16  17
ATOM     17  C   UNL     1       3.151   4.795  18.323  0.00  0.00    +0.000 A 
ATOM     18  C   UNL     1       3.604   4.285  19.548  0.00  0.00    +0.000 A 
ATOM     19  C   UNL     1       3.458   2.930  19.851  0.00  0.00    +0.000 A 
ATOM     20  C   UNL     1       2.865   2.069  18.931  0.00  0.00    +0.000 A 
ATOM     21  C   UNL     1       2.436   2.556  17.698  0.00  0.00    +0.000 A 
ATOM     22  C   UNL     1       2.583   3.909  17.392  0.00  0.00    +0.000 A 
ENDBRANCH  16  17
BRANCH  16  23
ATOM     23  C   UNL     1       4.728   6.712  17.939  0.00  0.00    +0.000 C 
BRANCH  23  24
ATOM     24  C   UNL     1       5.502   5.926  16.908  0.00  0.00    +0.000 A 
ATOM     25  C   UNL     1       5.129   5.985  15.559  0.00  0.00    +0.000 A 
ATOM     26  C   UNL     1       5.784   5.200  14.611  0.00  0.00    +0.000 A 
ATOM     27  C   UNL     1       6.821   4.356  15.002  0.00  0.00    +0.000 A 
ATOM     28  C   UNL     1       7.219   4.311  16.337  0.00  0.00    +0.000 A 
ATOM     29  C   UNL     1       6.565   5.097  17.288  0.00  0.00    +0.000 A 
ENDBRANCH  23  24
ENDBRANCH  16  23
ENDBRANCH   3  16
TORSDOF 5
ENDMDL
