MODEL 1
REMARK VINA RESULT:      -8.7      0.000      0.000
REMARK  Name = 
REMARK  6 active torsions:
REMARK  status: ('A' for Active; 'I' for Inactive)
REMARK    1  A    between atoms: C_1  and  C_2
REMARK    2  A    between atoms: C_4  and  C_5
REMARK    3  A    between atoms: C_5  and  O_6
REMARK    4  A    between atoms: O_6  and  C_7
REMARK    5  A    between atoms: C_10  and  C_11
REMARK    6  A    between atoms: C_20  and  C_21
REMARK                            x       y       z     vdW  Elec       q    Type
REMARK                         _______ _______ _______ _____ _____    ______ ____
ROOT
ATOM      1  C   UNL     1       3.389   6.509  18.323  0.00  0.00    +0.000 C 
ATOM      2  O   UNL     1       4.455   6.932  17.890  0.00  0.00    +0.000 OA
ATOM      3  N   UNL     1       3.081   5.145  18.552  0.00  0.00    +0.000 N 
ATOM      4  C   UNL     1       1.848   4.752  19.269  0.00  0.00    +0.000 C 
ATOM      5  C   UNL     1       1.982   3.731  20.394  0.00  0.00    +0.000 C 
ATOM      6  N   UNL     1       2.156   2.389  19.912  0.00  0.00    +0.000 N 
ATOM      7  C   UNL     1       3.234   1.950  19.211  0.00  0.00    +0.000 C 
ATOM      8  O   UNL     1       3.301   0.769  18.886  0.00  0.00    +0.000 OA
ATOM      9  C   UNL     1       4.312   2.949  18.885  0.00  0.00    +0.000 C 
ATOM     10  C   UNL     1       3.855   4.034  17.890  0.00  0.00    +0.000 C 
ATOM     11  H   UNL     1       1.483   1.669  20.152  0.00  0.00    +0.000 HD
ENDROOT
BRANCH   1  15
ATOM     12  C   UNL     1       0.908   9.847  19.336  0.00  0.00    +0.000 A 
ATOM     13  C   UNL     1       1.225   8.911  20.321  0.00  0.00    +0.000 A 
ATOM     14  C   UNL     1       1.912   7.744  19.987  0.00  0.00    +0.000 A 
ATOM     15  C   UNL     1       2.399   7.572  18.687  0.00  0.00    +0.000 A 
ATOM     16  C   UNL     1       1.982   8.452  17.681  0.00  0.00    +0.000 A 
ATOM     17  C   UNL     1       1.218   9.576  18.003  0.00  0.00    +0.000 A 
BRANCH  12  18
ATOM     18  O   UNL     1       0.299  10.981  19.793  0.00  0.00    +0.000 OA
BRANCH  18  19
ATOM     19  C   UNL     1      -0.125  11.910  18.788  0.00  0.00    +0.000 C 
BRANCH  19  23
ATOM     20  C   UNL     1      -4.570  11.241  16.728  0.00  0.00    +0.000 C 
ATOM     21  C   UNL     1      -3.425  11.527  17.606  0.00  0.00    +0.000 A 
ATOM     22  N   UNL     1      -2.138  11.469  17.353  0.00  0.00    +0.000 NA
ATOM     23  C   UNL     1      -1.593  11.824  18.562  0.00  0.00    +0.000 A 
ATOM     24  N   UNL     1      -2.489  12.117  19.520  0.00  0.00    +0.000 NA
ATOM     25  O   UNL     1      -3.713  11.912  18.883  0.00  0.00    +0.000 OA
ENDBRANCH  19  23
ENDBRANCH  18  19
ENDBRANCH  12  18
ENDBRANCH   1  15
BRANCH  10  26
ATOM     26  C   UNL     1       5.040   4.446  17.006  0.00  0.00    +0.000 A 
ATOM     27  C   UNL     1       4.848   4.704  15.637  0.00  0.00    +0.000 A 
ATOM     28  C   UNL     1       5.925   5.075  14.822  0.00  0.00    +0.000 A 
ATOM     29  C   UNL     1       7.208   5.181  15.347  0.00  0.00    +0.000 A 
ATOM     30  C   UNL     1       7.415   4.937  16.700  0.00  0.00    +0.000 A 
ATOM     31  C   UNL     1       6.341   4.581  17.524  0.00  0.00    +0.000 A 
ENDBRANCH  10  26
TORSDOF 5
ENDMDL
MODEL 2
REMARK VINA RESULT:      -8.7      1.795      3.654
REMARK  Name = 
REMARK  6 active torsions:
REMARK  status: ('A' for Active; 'I' for Inactive)
REMARK    1  A    between atoms: C_1  and  C_2
REMARK    2  A    between atoms: C_4  and  C_5
REMARK    3  A    between atoms: C_5  and  O_6
REMARK    4  A    between atoms: O_6  and  C_7
REMARK    5  A    between atoms: C_10  and  C_11
REMARK    6  A    between atoms: C_20  and  C_21
REMARK                            x       y       z     vdW  Elec       q    Type
REMARK                         _______ _______ _______ _____ _____    ______ ____
ROOT
ATOM      1  C   UNL     1       2.908   6.269  18.376  0.00  0.00    +0.000 C 
ATOM      2  O   UNL     1       2.043   5.401  18.392  0.00  0.00    +0.000 OA
ATOM      3  N   UNL     1       4.279   6.055  18.088  0.00  0.00    +0.000 N 
ATOM      4  C   UNL     1       5.202   7.194  17.890  0.00  0.00    +0.000 C 
ATOM      5  C   UNL     1       6.114   7.158  16.668  0.00  0.00    +0.000 C 
ATOM      6  N   UNL     1       7.223   6.257  16.824  0.00  0.00    +0.000 N 
ATOM      7  C   UNL     1       7.115   4.908  16.943  0.00  0.00    +0.000 C 
ATOM      8  O   UNL     1       8.132   4.228  17.028  0.00  0.00    +0.000 OA
ATOM      9  C   UNL     1       5.732   4.313  16.947  0.00  0.00    +0.000 C 
ATOM     10  C   UNL     1       4.910   4.691  18.195  0.00  0.00    +0.000 C 
ATOM     11  H   UNL     1       8.174   6.605  16.775  0.00  0.00    +0.000 HD
ENDROOT
BRANCH   1  15
ATOM     12  C   UNL     1       1.034  10.058  19.049  0.00  0.00    +0.000 A 
ATOM     13  C   UNL     1       1.658   9.816  17.826  0.00  0.00    +0.000 A 
ATOM     14  C   UNL     1       2.396   8.647  17.631  0.00  0.00    +0.000 A 
ATOM     15  C   UNL     1       2.401   7.657  18.618  0.00  0.00    +0.000 A 
ATOM     16  C   UNL     1       1.874   7.951  19.881  0.00  0.00    +0.000 A 
ATOM     17  C   UNL     1       1.211   9.160  20.102  0.00  0.00    +0.000 A 
BRANCH  12  18
ATOM     18  O   UNL     1       0.283  11.198  19.097  0.00  0.00    +0.000 OA
BRANCH  18  19
ATOM     19  C   UNL     1      -1.089  11.027  19.475  0.00  0.00    +0.000 C 
BRANCH  19  23
ATOM     20  C   UNL     1      -3.098  10.015  15.072  0.00  0.00    +0.000 C 
ATOM     21  C   UNL     1      -2.748  10.533  16.403  0.00  0.00    +0.000 A 
ATOM     22  N   UNL     1      -1.745  10.219  17.189  0.00  0.00    +0.000 NA
ATOM     23  C   UNL     1      -1.978  11.018  18.281  0.00  0.00    +0.000 A 
ATOM     24  N   UNL     1      -3.055  11.814  18.179  0.00  0.00    +0.000 NA
ATOM     25  O   UNL     1      -3.573  11.485  16.926  0.00  0.00    +0.000 OA
ENDBRANCH  19  23
ENDBRANCH  18  19
ENDBRANCH  12  18
ENDBRANCH   1  15
BRANCH  10  26
ATOM     26  C   UNL     1       3.982   3.525  18.565  0.00  0.00    +0.000 A 
ATOM     27  C   UNL     1       3.349   2.775  17.558  0.00  0.00    +0.000 A 
ATOM     28  C   UNL     1       2.497   1.713  17.886  0.00  0.00    +0.000 A 
ATOM     29  C   UNL     1       2.249   1.388  19.216  0.00  0.00    +0.000 A 
ATOM     30  C   UNL     1       2.872   2.115  20.224  0.00  0.00    +0.000 A 
ATOM     31  C   UNL     1       3.737   3.167  19.903  0.00  0.00    +0.000 A 
ENDBRANCH  10  26
TORSDOF 5
ENDMDL
MODEL 3
REMARK VINA RESULT:      -8.7      1.980      2.315
REMARK  Name = 
REMARK  6 active torsions:
REMARK  status: ('A' for Active; 'I' for Inactive)
REMARK    1  A    between atoms: C_1  and  C_2
REMARK    2  A    between atoms: C_4  and  C_5
REMARK    3  A    between atoms: C_5  and  O_6
REMARK    4  A    between atoms: O_6  and  C_7
REMARK    5  A    between atoms: C_10  and  C_11
REMARK    6  A    between atoms: C_20  and  C_21
REMARK                            x       y       z     vdW  Elec       q    Type
REMARK                         _______ _______ _______ _____ _____    ______ ____
ROOT
ATOM      1  C   UNL     1       3.405   6.486  18.299  0.00  0.00    +0.000 C 
ATOM      2  O   UNL     1       4.465   6.908  17.853  0.00  0.00    +0.000 OA
ATOM      3  N   UNL     1       3.101   5.122  18.535  0.00  0.00    +0.000 N 
ATOM      4  C   UNL     1       1.875   4.730  19.267  0.00  0.00    +0.000 C 
ATOM      5  C   UNL     1       2.022   3.712  20.393  0.00  0.00    +0.000 C 
ATOM      6  N   UNL     1       2.192   2.369  19.913  0.00  0.00    +0.000 N 
ATOM      7  C   UNL     1       3.263   1.928  19.202  0.00  0.00    +0.000 C 
ATOM      8  O   UNL     1       3.326   0.747  18.879  0.00  0.00    +0.000 OA
ATOM      9  C   UNL     1       4.336   2.927  18.861  0.00  0.00    +0.000 C 
ATOM     10  C   UNL     1       3.868   4.009  17.868  0.00  0.00    +0.000 C 
ATOM     11  H   UNL     1       1.522   1.649  20.162  0.00  0.00    +0.000 HD
ENDROOT
BRANCH   1  15
ATOM     12  C   UNL     1       0.934   9.824  19.333  0.00  0.00    +0.000 A 
ATOM     13  C   UNL     1       1.253   8.884  20.313  0.00  0.00    +0.000 A 
ATOM     14  C   UNL     1       1.937   7.717  19.973  0.00  0.00    +0.000 A 
ATOM     15  C   UNL     1       2.418   7.549  18.671  0.00  0.00    +0.000 A 
ATOM     16  C   UNL     1       1.998   8.432  17.670  0.00  0.00    +0.000 A 
ATOM     17  C   UNL     1       1.238   9.557  17.998  0.00  0.00    +0.000 A 
BRANCH  12  18
ATOM     18  O   UNL     1       0.329  10.957  19.797  0.00  0.00    +0.000 OA
BRANCH  18  19
ATOM     19  C   UNL     1       0.600  11.298  21.162  0.00  0.00    +0.000 C 
BRANCH  19  23
ATOM     20  C   UNL     1      -3.894  12.855  22.510  0.00  0.00    +0.000 C 
ATOM     21  C   UNL     1      -2.559  12.248  22.406  0.00  0.00    +0.000 A 
ATOM     22  N   UNL     1      -1.679  12.317  21.435  0.00  0.00    +0.000 NA
ATOM     23  C   UNL     1      -0.659  11.534  21.918  0.00  0.00    +0.000 A 
ATOM     24  N   UNL     1      -0.874  11.018  23.140  0.00  0.00    +0.000 NA
ATOM     25  O   UNL     1      -2.147  11.490  23.463  0.00  0.00    +0.000 OA
ENDBRANCH  19  23
ENDBRANCH  18  19
ENDBRANCH  12  18
ENDBRANCH   1  15
BRANCH  10  26
ATOM     26  C   UNL     1       5.043   4.419  16.970  0.00  0.00    +0.000 A 
ATOM     27  C   UNL     1       6.339   4.531  17.505  0.00  0.00    +0.000 A 
ATOM     28  C   UNL     1       7.417   4.910  16.694  0.00  0.00    +0.000 A 
ATOM     29  C   UNL     1       7.224   5.196  15.347  0.00  0.00    +0.000 A 
ATOM     30  C   UNL     1       5.950   5.083  14.800  0.00  0.00    +0.000 A 
ATOM     31  C   UNL     1       4.872   4.690  15.600  0.00  0.00    +0.000 A 
ENDBRANCH  10  26
TORSDOF 5
ENDMDL
MODEL 4
REMARK VINA RESULT:      -8.6      1.781      2.584
REMARK  Name = 
REMARK  6 active torsions:
REMARK  status: ('A' for Active; 'I' for Inactive)
REMARK    1  A    between atoms: C_1  and  C_2
REMARK    2  A    between atoms: C_4  and  C_5
REMARK    3  A    between atoms: C_5  and  O_6
REMARK    4  A    between atoms: O_6  and  C_7
REMARK    5  A    between atoms: C_10  and  C_11
REMARK    6  A    between atoms: C_20  and  C_21
REMARK                            x       y       z     vdW  Elec       q    Type
REMARK                         _______ _______ _______ _____ _____    ______ ____
ROOT
ATOM      1  C   UNL     1       3.482   6.602  18.211  0.00  0.00    +0.000 C 
ATOM      2  O   UNL     1       4.572   6.936  17.762  0.00  0.00    +0.000 OA
ATOM      3  N   UNL     1       3.080   5.269  18.478  0.00  0.00    +0.000 N 
ATOM      4  C   UNL     1       1.827   4.985  19.212  0.00  0.00    +0.000 C 
ATOM      5  C   UNL     1       1.895   3.986  20.363  0.00  0.00    +0.000 C 
ATOM      6  N   UNL     1       1.971   2.623  19.917  0.00  0.00    +0.000 N 
ATOM      7  C   UNL     1       3.010   2.090  19.223  0.00  0.00    +0.000 C 
ATOM      8  O   UNL     1       2.990   0.899  18.929  0.00  0.00    +0.000 OA
ATOM      9  C   UNL     1       4.153   3.001  18.864  0.00  0.00    +0.000 C 
ATOM     10  C   UNL     1       3.768   4.089  17.843  0.00  0.00    +0.000 C 
ATOM     11  H   UNL     1       1.250   1.960  20.179  0.00  0.00    +0.000 HD
ENDROOT
BRANCH   1  15
ATOM     12  C   UNL     1       0.541   9.550  19.196  0.00  0.00    +0.000 A 
ATOM     13  C   UNL     1       1.081   9.532  17.911  0.00  0.00    +0.000 A 
ATOM     14  C   UNL     1       2.139   8.676  17.605  0.00  0.00    +0.000 A 
ATOM     15  C   UNL     1       2.573   7.742  18.551  0.00  0.00    +0.000 A 
ATOM     16  C   UNL     1       2.110   7.841  19.868  0.00  0.00    +0.000 A 
ATOM     17  C   UNL     1       1.111   8.761  20.195  0.00  0.00    +0.000 A 
BRANCH  12  18
ATOM     18  O   UNL     1      -0.536  10.376  19.357  0.00  0.00    +0.000 OA
BRANCH  18  19
ATOM     19  C   UNL     1      -0.269  11.636  19.985  0.00  0.00    +0.000 C 
BRANCH  19  23
ATOM     20  C   UNL     1      -3.375  12.444  23.747  0.00  0.00    +0.000 C 
ATOM     21  C   UNL     1      -2.252  12.090  22.865  0.00  0.00    +0.000 A 
ATOM     22  N   UNL     1      -2.127  12.233  21.567  0.00  0.00    +0.000 NA
ATOM     23  C   UNL     1      -0.881  11.701  21.340  0.00  0.00    +0.000 A 
ATOM     24  N   UNL     1      -0.244  11.269  22.441  0.00  0.00    +0.000 NA
ATOM     25  O   UNL     1      -1.163  11.523  23.459  0.00  0.00    +0.000 OA
ENDBRANCH  19  23
ENDBRANCH  18  19
ENDBRANCH  12  18
ENDBRANCH   1  15
BRANCH  10  26
ATOM     26  C   UNL     1       4.974   4.392  16.942  0.00  0.00    +0.000 A 
ATOM     27  C   UNL     1       6.269   4.450  17.486  0.00  0.00    +0.000 A 
ATOM     28  C   UNL     1       7.374   4.730  16.673  0.00  0.00    +0.000 A 
ATOM     29  C   UNL     1       7.210   4.971  15.313  0.00  0.00    +0.000 A 
ATOM     30  C   UNL     1       5.938   4.910  14.757  0.00  0.00    +0.000 A 
ATOM     31  C   UNL     1       4.831   4.615  15.560  0.00  0.00    +0.000 A 
ENDBRANCH  10  26
TORSDOF 5
ENDMDL
MODEL 5
REMARK VINA RESULT:      -8.6      1.828      2.207
REMARK  Name = 
REMARK  6 active torsions:
REMARK  status: ('A' for Active; 'I' for Inactive)
REMARK    1  A    between atoms: C_1  and  C_2
REMARK    2  A    between atoms: C_4  and  C_5
REMARK    3  A    between atoms: C_5  and  O_6
REMARK    4  A    between atoms: O_6  and  C_7
REMARK    5  A    between atoms: C_10  and  C_11
REMARK    6  A    between atoms: C_20  and  C_21
REMARK                            x       y       z     vdW  Elec       q    Type
REMARK                         _______ _______ _______ _____ _____    ______ ____
ROOT
ATOM      1  C   UNL     1       3.381   6.496  18.342  0.00  0.00    +0.000 C 
ATOM      2  O   UNL     1       4.445   6.918  17.907  0.00  0.00    +0.000 OA
ATOM      3  N   UNL     1       3.069   5.131  18.562  0.00  0.00    +0.000 N 
ATOM      4  C   UNL     1       1.838   4.737  19.282  0.00  0.00    +0.000 C 
ATOM      5  C   UNL     1       1.973   3.707  20.399  0.00  0.00    +0.000 C 
ATOM      6  N   UNL     1       2.141   2.368  19.907  0.00  0.00    +0.000 N 
ATOM      7  C   UNL     1       3.215   1.930  19.198  0.00  0.00    +0.000 C 
ATOM      8  O   UNL     1       3.275   0.751  18.864  0.00  0.00    +0.000 OA
ATOM      9  C   UNL     1       4.294   2.928  18.874  0.00  0.00    +0.000 C 
ATOM     10  C   UNL     1       3.836   4.022  17.889  0.00  0.00    +0.000 C 
ATOM     11  H   UNL     1       1.466   1.649  20.144  0.00  0.00    +0.000 HD
ENDROOT
BRANCH   1  15
ATOM     12  C   UNL     1       0.915   9.834  19.389  0.00  0.00    +0.000 A 
ATOM     13  C   UNL     1       1.235   8.891  20.366  0.00  0.00    +0.000 A 
ATOM     14  C   UNL     1       1.917   7.724  20.021  0.00  0.00    +0.000 A 
ATOM     15  C   UNL     1       2.396   7.559  18.718  0.00  0.00    +0.000 A 
ATOM     16  C   UNL     1       1.976   8.446  17.720  0.00  0.00    +0.000 A 
ATOM     17  C   UNL     1       1.217   9.570  18.053  0.00  0.00    +0.000 A 
BRANCH  12  18
ATOM     18  O   UNL     1       0.312  10.967  19.857  0.00  0.00    +0.000 OA
BRANCH  18  19
ATOM     19  C   UNL     1       0.264  11.107  21.282  0.00  0.00    +0.000 C 
BRANCH  19  23
ATOM     20  C   UNL     1      -3.642  12.405  24.022  0.00  0.00    +0.000 C 
ATOM     21  C   UNL     1      -2.660  12.142  22.959  0.00  0.00    +0.000 A 
ATOM     22  N   UNL     1      -1.481  11.570  23.028  0.00  0.00    +0.000 NA
ATOM     23  C   UNL     1      -1.053  11.640  21.725  0.00  0.00    +0.000 A 
ATOM     24  N   UNL     1      -1.927  12.203  20.874  0.00  0.00    +0.000 NA
ATOM     25  O   UNL     1      -2.998  12.545  21.700  0.00  0.00    +0.000 OA
ENDBRANCH  19  23
ENDBRANCH  18  19
ENDBRANCH  12  18
ENDBRANCH   1  15
BRANCH  10  26
ATOM     26  C   UNL     1       5.019   4.436  17.002  0.00  0.00    +0.000 A 
ATOM     27  C   UNL     1       4.821   4.708  15.637  0.00  0.00    +0.000 A 
ATOM     28  C   UNL     1       5.895   5.081  14.819  0.00  0.00    +0.000 A 
ATOM     29  C   UNL     1       7.181   5.176  15.339  0.00  0.00    +0.000 A 
ATOM     30  C   UNL     1       7.394   4.919  16.688  0.00  0.00    +0.000 A 
ATOM     31  C   UNL     1       6.323   4.560  17.514  0.00  0.00    +0.000 A 
ENDBRANCH  10  26
TORSDOF 5
ENDMDL
MODEL 6
REMARK VINA RESULT:      -8.6      0.566      1.223
REMARK  Name = 
REMARK  6 active torsions:
REMARK  status: ('A' for Active; 'I' for Inactive)
REMARK    1  A    between atoms: C_1  and  C_2
REMARK    2  A    between atoms: C_4  and  C_5
REMARK    3  A    between atoms: C_5  and  O_6
REMARK    4  A    between atoms: O_6  and  C_7
REMARK    5  A    between atoms: C_10  and  C_11
REMARK    6  A    between atoms: C_20  and  C_21
REMARK                            x       y       z     vdW  Elec       q    Type
REMARK                         _______ _______ _______ _____ _____    ______ ____
ROOT
ATOM      1  C   UNL     1       3.358   6.532  18.343  0.00  0.00    +0.000 C 
ATOM      2  O   UNL     1       4.429   6.950  17.920  0.00  0.00    +0.000 OA
ATOM      3  N   UNL     1       3.040   5.169  18.565  0.00  0.00    +0.000 N 
ATOM      4  C   UNL     1       1.799   4.781  19.270  0.00  0.00    +0.000 C 
ATOM      5  C   UNL     1       1.917   3.756  20.394  0.00  0.00    +0.000 C 
ATOM      6  N   UNL     1       2.088   2.414  19.910  0.00  0.00    +0.000 N 
ATOM      7  C   UNL     1       3.170   1.971  19.217  0.00  0.00    +0.000 C 
ATOM      8  O   UNL     1       3.233   0.791  18.889  0.00  0.00    +0.000 OA
ATOM      9  C   UNL     1       4.256   2.965  18.903  0.00  0.00    +0.000 C 
ATOM     10  C   UNL     1       3.813   4.056  17.907  0.00  0.00    +0.000 C 
ATOM     11  H   UNL     1       1.409   1.697  20.142  0.00  0.00    +0.000 HD
ENDROOT
BRANCH   1  15
ATOM     12  C   UNL     1       0.885   9.881  19.337  0.00  0.00    +0.000 A 
ATOM     13  C   UNL     1       1.201   8.952  20.328  0.00  0.00    +0.000 A 
ATOM     14  C   UNL     1       1.886   7.781  20.001  0.00  0.00    +0.000 A 
ATOM     15  C   UNL     1       2.370   7.599  18.701  0.00  0.00    +0.000 A 
ATOM     16  C   UNL     1       1.953   8.473  17.690  0.00  0.00    +0.000 A 
ATOM     17  C   UNL     1       1.192   9.601  18.006  0.00  0.00    +0.000 A 
BRANCH  12  18
ATOM     18  O   UNL     1       0.279  11.020  19.788  0.00  0.00    +0.000 OA
BRANCH  18  19
ATOM     19  C   UNL     1      -0.131  11.951  18.778  0.00  0.00    +0.000 C 
BRANCH  19  23
ATOM     20  C   UNL     1      -5.047  12.103  19.279  0.00  0.00    +0.000 C 
ATOM     21  C   UNL     1      -3.657  11.943  18.829  0.00  0.00    +0.000 A 
ATOM     22  N   UNL     1      -2.535  12.169  19.472  0.00  0.00    +0.000 NA
ATOM     23  C   UNL     1      -1.594  11.856  18.522  0.00  0.00    +0.000 A 
ATOM     24  N   UNL     1      -2.095  11.430  17.350  0.00  0.00    +0.000 NA
ATOM     25  O   UNL     1      -3.473  11.495  17.553  0.00  0.00    +0.000 OA
ENDBRANCH  19  23
ENDBRANCH  18  19
ENDBRANCH  12  18
ENDBRANCH   1  15
BRANCH  10  26
ATOM     26  C   UNL     1       5.009   4.463  17.034  0.00  0.00    +0.000 A 
ATOM     27  C   UNL     1       6.294   4.562  17.594  0.00  0.00    +0.000 A 
ATOM     28  C   UNL     1       7.390   4.939  16.807  0.00  0.00    +0.000 A 
ATOM     29  C   UNL     1       7.225   5.235  15.459  0.00  0.00    +0.000 A 
ATOM     30  C   UNL     1       5.962   5.135  14.887  0.00  0.00    +0.000 A 
ATOM     31  C   UNL     1       4.865   4.745  15.663  0.00  0.00    +0.000 A 
ENDBRANCH  10  26
TORSDOF 5
ENDMDL
MODEL 7
REMARK VINA RESULT:      -8.5      0.757      1.567
REMARK  Name = 
REMARK  6 active torsions:
REMARK  status: ('A' for Active; 'I' for Inactive)
REMARK    1  A    between atoms: C_1  and  C_2
REMARK    2  A    between atoms: C_4  and  C_5
REMARK    3  A    between atoms: C_5  and  O_6
REMARK    4  A    between atoms: O_6  and  C_7
REMARK    5  A    between atoms: C_10  and  C_11
REMARK    6  A    between atoms: C_20  and  C_21
REMARK                            x       y       z     vdW  Elec       q    Type
REMARK                         _______ _______ _______ _____ _____    ______ ____
ROOT
ATOM      1  C   UNL     1       3.403   6.642  18.272  0.00  0.00    +0.000 C 
ATOM      2  O   UNL     1       4.497   6.979  17.833  0.00  0.00    +0.000 OA
ATOM      3  N   UNL     1       2.999   5.309  18.530  0.00  0.00    +0.000 N 
ATOM      4  C   UNL     1       1.739   5.021  19.251  0.00  0.00    +0.000 C 
ATOM      5  C   UNL     1       1.798   4.018  20.399  0.00  0.00    +0.000 C 
ATOM      6  N   UNL     1       1.877   2.656  19.948  0.00  0.00    +0.000 N 
ATOM      7  C   UNL     1       2.923   2.126  19.260  0.00  0.00    +0.000 C 
ATOM      8  O   UNL     1       2.905   0.937  18.962  0.00  0.00    +0.000 OA
ATOM      9  C   UNL     1       4.069   3.039  18.915  0.00  0.00    +0.000 C 
ATOM     10  C   UNL     1       3.692   4.131  17.895  0.00  0.00    +0.000 C 
ATOM     11  H   UNL     1       1.154   1.992  20.201  0.00  0.00    +0.000 HD
ENDROOT
BRANCH   1  15
ATOM     12  C   UNL     1       0.457   9.584  19.261  0.00  0.00    +0.000 A 
ATOM     13  C   UNL     1       0.970   9.545  17.965  0.00  0.00    +0.000 A 
ATOM     14  C   UNL     1       2.029   8.692  17.654  0.00  0.00    +0.000 A 
ATOM     15  C   UNL     1       2.491   7.781  18.608  0.00  0.00    +0.000 A 
ATOM     16  C   UNL     1       2.055   7.903  19.933  0.00  0.00    +0.000 A 
ATOM     17  C   UNL     1       1.055   8.820  20.263  0.00  0.00    +0.000 A 
BRANCH  12  18
ATOM     18  O   UNL     1      -0.624  10.403  19.429  0.00  0.00    +0.000 OA
BRANCH  18  19
ATOM     19  C   UNL     1      -0.796  11.422  18.435  0.00  0.00    +0.000 C 
BRANCH  19  23
ATOM     20  C   UNL     1      -5.703  11.492  17.835  0.00  0.00    +0.000 C 
ATOM     21  C   UNL     1      -4.243  11.407  17.689  0.00  0.00    +0.000 A 
ATOM     22  N   UNL     1      -3.301  11.524  18.596  0.00  0.00    +0.000 NA
ATOM     23  C   UNL     1      -2.161  11.371  17.845  0.00  0.00    +0.000 A 
ATOM     24  N   UNL     1      -2.374  11.143  16.538  0.00  0.00    +0.000 NA
ATOM     25  O   UNL     1      -3.764  11.174  16.433  0.00  0.00    +0.000 OA
ENDBRANCH  19  23
ENDBRANCH  18  19
ENDBRANCH  12  18
ENDBRANCH   1  15
BRANCH  10  26
ATOM     26  C   UNL     1       4.906   4.437  17.006  0.00  0.00    +0.000 A 
ATOM     27  C   UNL     1       6.198   4.476  17.558  0.00  0.00    +0.000 A 
ATOM     28  C   UNL     1       7.310   4.760  16.755  0.00  0.00    +0.000 A 
ATOM     29  C   UNL     1       7.156   5.023  15.399  0.00  0.00    +0.000 A 
ATOM     30  C   UNL     1       5.886   4.982  14.835  0.00  0.00    +0.000 A 
ATOM     31  C   UNL     1       4.772   4.684  15.627  0.00  0.00    +0.000 A 
ENDBRANCH  10  26
TORSDOF 5
ENDMDL
MODEL 8
REMARK VINA RESULT:      -8.5      1.907      3.782
REMARK  Name = 
REMARK  6 active torsions:
REMARK  status: ('A' for Active; 'I' for Inactive)
REMARK    1  A    between atoms: C_1  and  C_2
REMARK    2  A    between atoms: C_4  and  C_5
REMARK    3  A    between atoms: C_5  and  O_6
REMARK    4  A    between atoms: O_6  and  C_7
REMARK    5  A    between atoms: C_10  and  C_11
REMARK    6  A    between atoms: C_20  and  C_21
REMARK                            x       y       z     vdW  Elec       q    Type
REMARK                         _______ _______ _______ _____ _____    ______ ____
ROOT
ATOM      1  C   UNL     1       2.816   6.472  18.363  0.00  0.00    +0.000 C 
ATOM      2  O   UNL     1       1.922   5.633  18.360  0.00  0.00    +0.000 OA
ATOM      3  N   UNL     1       4.183   6.213  18.094  0.00  0.00    +0.000 N 
ATOM      4  C   UNL     1       5.147   7.321  17.918  0.00  0.00    +0.000 C 
ATOM      5  C   UNL     1       6.076   7.261  16.709  0.00  0.00    +0.000 C 
ATOM      6  N   UNL     1       7.151   6.322  16.876  0.00  0.00    +0.000 N 
ATOM      7  C   UNL     1       6.995   4.977  16.985  0.00  0.00    +0.000 C 
ATOM      8  O   UNL     1       7.988   4.262  17.080  0.00  0.00    +0.000 OA
ATOM      9  C   UNL     1       5.593   4.429  16.964  0.00  0.00    +0.000 C 
ATOM     10  C   UNL     1       4.765   4.827  18.201  0.00  0.00    +0.000 C 
ATOM     11  H   UNL     1       8.114   6.638  16.844  0.00  0.00    +0.000 HD
ENDROOT
BRANCH   1  15
ATOM     12  C   UNL     1       1.062  10.318  19.031  0.00  0.00    +0.000 A 
ATOM     13  C   UNL     1       1.700  10.063  17.817  0.00  0.00    +0.000 A 
ATOM     14  C   UNL     1       2.400   8.871  17.627  0.00  0.00    +0.000 A 
ATOM     15  C   UNL     1       2.352   7.875  18.607  0.00  0.00    +0.000 A 
ATOM     16  C   UNL     1       1.813   8.178  19.862  0.00  0.00    +0.000 A 
ATOM     17  C   UNL     1       1.188   9.407  20.080  0.00  0.00    +0.000 A 
BRANCH  12  18
ATOM     18  O   UNL     1       0.349  11.483  19.074  0.00  0.00    +0.000 OA
BRANCH  18  19
ATOM     19  C   UNL     1      -1.039  11.355  19.406  0.00  0.00    +0.000 C 
BRANCH  19  23
ATOM     20  C   UNL     1      -3.216  10.764  15.007  0.00  0.00    +0.000 C 
ATOM     21  C   UNL     1      -2.709  10.648  16.383  0.00  0.00    +0.000 A 
ATOM     22  N   UNL     1      -1.969  11.481  17.077  0.00  0.00    +0.000 NA
ATOM     23  C   UNL     1      -1.817  10.806  18.263  0.00  0.00    +0.000 A 
ATOM     24  N   UNL     1      -2.448   9.621  18.323  0.00  0.00    +0.000 NA
ATOM     25  O   UNL     1      -3.039   9.513  17.064  0.00  0.00    +0.000 OA
ENDBRANCH  19  23
ENDBRANCH  18  19
ENDBRANCH  12  18
ENDBRANCH   1  15
BRANCH  10  26
ATOM     26  C   UNL     1       3.793   3.691  18.550  0.00  0.00    +0.000 A 
ATOM     27  C   UNL     1       3.492   3.403  19.893  0.00  0.00    +0.000 A 
ATOM     28  C   UNL     1       2.610   2.365  20.220  0.00  0.00    +0.000 A 
ATOM     29  C   UNL     1       2.026   1.590  19.224  0.00  0.00    +0.000 A 
ATOM     30  C   UNL     1       2.308   1.866  17.891  0.00  0.00    +0.000 A 
ATOM     31  C   UNL     1       3.175   2.912  17.555  0.00  0.00    +0.000 A 
ENDBRANCH  10  26
TORSDOF 5
ENDMDL
MODEL 9
REMARK VINA RESULT:      -8.5      2.142      3.029
REMARK  Name = 
REMARK  6 active torsions:
REMARK  status: ('A' for Active; 'I' for Inactive)
REMARK    1  A    between atoms: C_1  and  C_2
REMARK    2  A    between atoms: C_4  and  C_5
REMARK    3  A    between atoms: C_5  and  O_6
REMARK    4  A    between atoms: O_6  and  C_7
REMARK    5  A    between atoms: C_10  and  C_11
REMARK    6  A    between atoms: C_20  and  C_21
REMARK                            x       y       z     vdW  Elec       q    Type
REMARK                         _______ _______ _______ _____ _____    ______ ____
ROOT
ATOM      1  C   UNL     1       3.386   6.486  18.311  0.00  0.00    +0.000 C 
ATOM      2  O   UNL     1       4.449   6.908  17.872  0.00  0.00    +0.000 OA
ATOM      3  N   UNL     1       3.081   5.122  18.549  0.00  0.00    +0.000 N 
ATOM      4  C   UNL     1       1.851   4.732  19.272  0.00  0.00    +0.000 C 
ATOM      5  C   UNL     1       1.991   3.716  20.403  0.00  0.00    +0.000 C 
ATOM      6  N   UNL     1       2.166   2.372  19.927  0.00  0.00    +0.000 N 
ATOM      7  C   UNL     1       3.242   1.931  19.225  0.00  0.00    +0.000 C 
ATOM      8  O   UNL     1       3.309   0.748  18.905  0.00  0.00    +0.000 OA
ATOM      9  C   UNL     1       4.316   2.930  18.888  0.00  0.00    +0.000 C 
ATOM     10  C   UNL     1       3.853   4.009  17.890  0.00  0.00    +0.000 C 
ATOM     11  H   UNL     1       1.494   1.652  20.174  0.00  0.00    +0.000 HD
ENDROOT
BRANCH   1  15
ATOM     12  C   UNL     1       0.901   9.826  19.306  0.00  0.00    +0.000 A 
ATOM     13  C   UNL     1       1.244   8.914  20.302  0.00  0.00    +0.000 A 
ATOM     14  C   UNL     1       1.934   7.744  19.979  0.00  0.00    +0.000 A 
ATOM     15  C   UNL     1       2.395   7.549  18.673  0.00  0.00    +0.000 A 
ATOM     16  C   UNL     1       1.951   8.404  17.658  0.00  0.00    +0.000 A 
ATOM     17  C   UNL     1       1.185   9.529  17.972  0.00  0.00    +0.000 A 
BRANCH  12  18
ATOM     18  O   UNL     1       0.293  10.965  19.751  0.00  0.00    +0.000 OA
BRANCH  18  19
ATOM     19  C   UNL     1       0.940  11.634  20.841  0.00  0.00    +0.000 C 
BRANCH  19  23
ATOM     20  C   UNL     1       3.226  14.948  17.971  0.00  0.00    +0.000 C 
ATOM     21  C   UNL     1       2.732  14.096  19.062  0.00  0.00    +0.000 A 
ATOM     22  N   UNL     1       1.858  13.117  19.033  0.00  0.00    +0.000 NA
ATOM     23  C   UNL     1       1.809  12.739  20.353  0.00  0.00    +0.000 A 
ATOM     24  N   UNL     1       2.628  13.426  21.167  0.00  0.00    +0.000 NA
ATOM     25  O   UNL     1       3.240  14.337  20.306  0.00  0.00    +0.000 OA
ENDBRANCH  19  23
ENDBRANCH  18  19
ENDBRANCH  12  18
ENDBRANCH   1  15
BRANCH  10  26
ATOM     26  C   UNL     1       5.035   4.418  16.999  0.00  0.00    +0.000 A 
ATOM     27  C   UNL     1       6.324   4.544  17.544  0.00  0.00    +0.000 A 
ATOM     28  C   UNL     1       7.407   4.922  16.740  0.00  0.00    +0.000 A 
ATOM     29  C   UNL     1       7.225   5.193  15.389  0.00  0.00    +0.000 A 
ATOM     30  C   UNL     1       5.959   5.066  14.831  0.00  0.00    +0.000 A 
ATOM     31  C   UNL     1       4.875   4.674  15.625  0.00  0.00    +0.000 A 
ENDBRANCH  10  26
TORSDOF 5
ENDMDL
