MODEL 1
REMARK VINA RESULT:      -8.3      0.000      0.000
REMARK  Name = 
REMARK  5 active torsions:
REMARK  status: ('A' for Active; 'I' for Inactive)
REMARK    1  A    between atoms: C_1  and  C_2
REMARK    2  A    between atoms: C_2  and  C_3
REMARK    3  A    between atoms: C_3  and  C_4
REMARK    4  A    between atoms: C_8  and  N_9
REMARK    5  A    between atoms: C_16  and  C_17
REMARK                            x       y       z     vdW  Elec       q    Type
REMARK                         _______ _______ _______ _____ _____    ______ ____
ROOT
ATOM      1  N   UNL     1       2.525   6.770  17.729  0.00  0.00    +0.000 N 
ATOM      2  C   UNL     1       1.695   5.548  17.872  0.00  0.00    +0.000 C 
ATOM      3  C   UNL     1       2.643   4.588  18.522  0.00  0.00    +0.000 A 
ATOM      4  C   UNL     1       3.937   4.984  18.182  0.00  0.00    +0.000 A 
ATOM      5  C   UNL     1       5.067   4.388  18.714  0.00  0.00    +0.000 A 
ATOM      6  C   UNL     1       4.876   3.367  19.641  0.00  0.00    +0.000 A 
ATOM      7  C   UNL     1       3.575   2.974  20.012  0.00  0.00    +0.000 A 
ATOM      8  C   UNL     1       2.430   3.577  19.455  0.00  0.00    +0.000 A 
ATOM      9  C   UNL     1       3.859   6.317  17.544  0.00  0.00    +0.000 C 
ATOM     10  O   UNL     1       4.822   6.930  17.136  0.00  0.00    +0.000 OA
ENDROOT
BRANCH   1  15
ATOM     11  C   UNL     1       0.800   9.454  19.497  0.00  0.00    +0.000 A 
ATOM     12  C   UNL     1       0.589   8.764  20.706  0.00  0.00    +0.000 A 
ATOM     13  C   UNL     1       1.366   7.662  21.059  0.00  0.00    +0.000 A 
ATOM     14  C   UNL     1       2.275   7.139  20.153  0.00  0.00    +0.000 A 
ATOM     15  C   UNL     1       2.316   7.659  18.854  0.00  0.00    +0.000 A 
ATOM     16  C   UNL     1       1.714   8.896  18.592  0.00  0.00    +0.000 A 
BRANCH  11  17
ATOM     17  C   UNL     1       0.025  10.750  19.210  0.00  0.00    +0.000 C 
ATOM     18  C   UNL     1      -0.584  11.450  20.452  0.00  0.00    +0.000 C 
ATOM     19  C   UNL     1       0.560  12.244  21.092  0.00  0.00    +0.000 C 
ATOM     20  C   UNL     1       1.593  12.456  19.990  0.00  0.00    +0.000 C 
ATOM     21  C   UNL     1       0.976  11.872  18.723  0.00  0.00    +0.000 C 
BRANCH  17  23
ATOM     22  C   UNL     1      -1.901  11.701  17.767  0.00  0.00    +0.000 C 
ATOM     23  C   UNL     1      -1.062  10.481  18.135  0.00  0.00    +0.000 C 
ENDBRANCH  17  23
ENDBRANCH  11  17
ENDBRANCH   1  15
BRANCH   8  24
ATOM     24  C   UNL     1       1.068   3.179  19.962  0.00  0.00    +0.000 C 
ATOM     25  F   UNL     1       0.300   2.534  19.045  0.00  0.00    +0.000 F 
ATOM     26  F   UNL     1       1.142   2.338  21.031  0.00  0.00    +0.000 F 
ATOM     27  F   UNL     1       0.336   4.248  20.379  0.00  0.00    +0.000 F 
ENDBRANCH   8  24
TORSDOF 4
ENDMDL
MODEL 2
REMARK VINA RESULT:      -8.3      2.856      3.861
REMARK  Name = 
REMARK  5 active torsions:
REMARK  status: ('A' for Active; 'I' for Inactive)
REMARK    1  A    between atoms: C_1  and  C_2
REMARK    2  A    between atoms: C_2  and  C_3
REMARK    3  A    between atoms: C_3  and  C_4
REMARK    4  A    between atoms: C_8  and  N_9
REMARK    5  A    between atoms: C_16  and  C_17
REMARK                            x       y       z     vdW  Elec       q    Type
REMARK                         _______ _______ _______ _____ _____    ______ ____
ROOT
ATOM      1  N   UNL     1       3.321   5.768  20.171  0.00  0.00    +0.000 N 
ATOM      2  C   UNL     1       4.521   5.434  19.364  0.00  0.00    +0.000 C 
ATOM      3  C   UNL     1       4.117   4.156  18.697  0.00  0.00    +0.000 A 
ATOM      4  C   UNL     1       3.154   3.550  19.505  0.00  0.00    +0.000 A 
ATOM      5  C   UNL     1       2.472   2.406  19.128  0.00  0.00    +0.000 A 
ATOM      6  C   UNL     1       2.764   1.871  17.877  0.00  0.00    +0.000 A 
ATOM      7  C   UNL     1       3.716   2.486  17.041  0.00  0.00    +0.000 A 
ATOM      8  C   UNL     1       4.416   3.642  17.439  0.00  0.00    +0.000 A 
ATOM      9  C   UNL     1       2.740   4.524  20.539  0.00  0.00    +0.000 C 
ATOM     10  O   UNL     1       1.912   4.294  21.395  0.00  0.00    +0.000 OA
ENDROOT
BRANCH   1  15
ATOM     11  C   UNL     1       1.445   8.867  19.748  0.00  0.00    +0.000 A 
ATOM     12  C   UNL     1       1.960   9.216  18.484  0.00  0.00    +0.000 A 
ATOM     13  C   UNL     1       2.532   8.262  17.645  0.00  0.00    +0.000 A 
ATOM     14  C   UNL     1       2.729   6.969  18.102  0.00  0.00    +0.000 A 
ATOM     15  C   UNL     1       2.454   6.672  19.441  0.00  0.00    +0.000 A 
ATOM     16  C   UNL     1       1.672   7.556  20.193  0.00  0.00    +0.000 A 
BRANCH  11  17
ATOM     17  C   UNL     1       0.691   9.914  20.583  0.00  0.00    +0.000 C 
ATOM     18  C   UNL     1       0.948  11.391  20.187  0.00  0.00    +0.000 C 
ATOM     19  C   UNL     1       0.048  11.668  18.979  0.00  0.00    +0.000 C 
ATOM     20  C   UNL     1      -1.063  10.623  19.035  0.00  0.00    +0.000 C 
ATOM     21  C   UNL     1      -0.835   9.841  20.324  0.00  0.00    +0.000 C 
BRANCH  17  23
ATOM     22  C   UNL     1      -0.267   9.446  22.940  0.00  0.00    +0.000 C 
ATOM     23  C   UNL     1       0.978   9.685  22.091  0.00  0.00    +0.000 C 
ENDBRANCH  17  23
ENDBRANCH  11  17
ENDBRANCH   1  15
BRANCH   8  24
ATOM     24  C   UNL     1       5.352   4.308  16.464  0.00  0.00    +0.000 C 
ATOM     25  F   UNL     1       4.898   5.493  15.978  0.00  0.00    +0.000 F 
ATOM     26  F   UNL     1       6.565   4.583  17.019  0.00  0.00    +0.000 F 
ATOM     27  F   UNL     1       5.608   3.531  15.375  0.00  0.00    +0.000 F 
ENDBRANCH   8  24
TORSDOF 4
ENDMDL
MODEL 3
REMARK VINA RESULT:      -8.2      3.032      7.274
REMARK  Name = 
REMARK  5 active torsions:
REMARK  status: ('A' for Active; 'I' for Inactive)
REMARK    1  A    between atoms: C_1  and  C_2
REMARK    2  A    between atoms: C_2  and  C_3
REMARK    3  A    between atoms: C_3  and  C_4
REMARK    4  A    between atoms: C_8  and  N_9
REMARK    5  A    between atoms: C_16  and  C_17
REMARK                            x       y       z     vdW  Elec       q    Type
REMARK                         _______ _______ _______ _____ _____    ______ ____
ROOT
ATOM      1  N   UNL     1       0.712   8.298  21.231  0.00  0.00    +0.000 N 
ATOM      2  C   UNL     1      -0.514   8.662  20.477  0.00  0.00    +0.000 C 
ATOM      3  C   UNL     1      -0.271  10.100  20.142  0.00  0.00    +0.000 A 
ATOM      4  C   UNL     1       0.598  10.613  21.106  0.00  0.00    +0.000 A 
ATOM      5  C   UNL     1       1.131  11.888  21.033  0.00  0.00    +0.000 A 
ATOM      6  C   UNL     1       0.784  12.663  19.930  0.00  0.00    +0.000 A 
ATOM      7  C   UNL     1      -0.073  12.150  18.937  0.00  0.00    +0.000 A 
ATOM      8  C   UNL     1      -0.622  10.856  19.027  0.00  0.00    +0.000 A 
ATOM      9  C   UNL     1       1.124   9.481  21.902  0.00  0.00    +0.000 C 
ATOM     10  O   UNL     1       1.906   9.603  22.819  0.00  0.00    +0.000 OA
ENDROOT
BRANCH   1  15
ATOM     11  C   UNL     1       2.100   5.568  19.250  0.00  0.00    +0.000 A 
ATOM     12  C   UNL     1       2.251   6.282  18.045  0.00  0.00    +0.000 A 
ATOM     13  C   UNL     1       2.318   7.673  18.028  0.00  0.00    +0.000 A 
ATOM     14  C   UNL     1       2.095   8.389  19.194  0.00  0.00    +0.000 A 
ATOM     15  C   UNL     1       1.695   7.704  20.347  0.00  0.00    +0.000 A 
ATOM     16  C   UNL     1       1.862   6.316  20.412  0.00  0.00    +0.000 A 
BRANCH  11  17
ATOM     17  C   UNL     1       2.178   4.033  19.245  0.00  0.00    +0.000 C 
ATOM     18  C   UNL     1       2.271   3.376  17.844  0.00  0.00    +0.000 C 
ATOM     19  C   UNL     1       3.742   3.478  17.426  0.00  0.00    +0.000 C 
ATOM     20  C   UNL     1       4.534   3.652  18.718  0.00  0.00    +0.000 C 
ATOM     21  C   UNL     1       3.518   3.541  19.849  0.00  0.00    +0.000 C 
BRANCH  17  23
ATOM     22  C   UNL     1       1.398   2.731  21.340  0.00  0.00    +0.000 C 
ATOM     23  C   UNL     1       0.991   3.447  20.056  0.00  0.00    +0.000 C 
ENDBRANCH  17  23
ENDBRANCH  11  17
ENDBRANCH   1  15
BRANCH   8  24
ATOM     24  C   UNL     1      -1.455  10.329  17.887  0.00  0.00    +0.000 C 
ATOM     25  F   UNL     1      -0.827   9.394  17.126  0.00  0.00    +0.000 F 
ATOM     26  F   UNL     1      -2.602   9.736  18.319  0.00  0.00    +0.000 F 
ATOM     27  F   UNL     1      -1.843  11.312  17.029  0.00  0.00    +0.000 F 
ENDBRANCH   8  24
TORSDOF 4
ENDMDL
MODEL 4
REMARK VINA RESULT:      -8.1      3.220      7.433
REMARK  Name = 
REMARK  5 active torsions:
REMARK  status: ('A' for Active; 'I' for Inactive)
REMARK    1  A    between atoms: C_1  and  C_2
REMARK    2  A    between atoms: C_2  and  C_3
REMARK    3  A    between atoms: C_3  and  C_4
REMARK    4  A    between atoms: C_8  and  N_9
REMARK    5  A    between atoms: C_16  and  C_17
REMARK                            x       y       z     vdW  Elec       q    Type
REMARK                         _______ _______ _______ _____ _____    ______ ____
ROOT
ATOM      1  N   UNL     1       0.217   9.149  20.701  0.00  0.00    +0.000 N 
ATOM      2  C   UNL     1      -0.991   9.122  19.839  0.00  0.00    +0.000 C 
ATOM      3  C   UNL     1      -1.094  10.544  19.384  0.00  0.00    +0.000 A 
ATOM      4  C   UNL     1      -0.470  11.338  20.347  0.00  0.00    +0.000 A 
ATOM      5  C   UNL     1      -0.275  12.698  20.185  0.00  0.00    +0.000 A 
ATOM      6  C   UNL     1      -0.711  13.270  18.993  0.00  0.00    +0.000 A 
ATOM      7  C   UNL     1      -1.320  12.476  18.002  0.00  0.00    +0.000 A 
ATOM      8  C   UNL     1      -1.528  11.094  18.180  0.00  0.00    +0.000 A 
ATOM      9  C   UNL     1       0.255  10.447  21.279  0.00  0.00    +0.000 C 
ATOM     10  O   UNL     1       0.899  10.839  22.229  0.00  0.00    +0.000 OA
ENDROOT
BRANCH   1  15
ATOM     11  C   UNL     1       2.501   6.725  19.214  0.00  0.00    +0.000 A 
ATOM     12  C   UNL     1       2.507   7.261  17.912  0.00  0.00    +0.000 A 
ATOM     13  C   UNL     1       2.147   8.586  17.670  0.00  0.00    +0.000 A 
ATOM     14  C   UNL     1       1.640   9.362  18.700  0.00  0.00    +0.000 A 
ATOM     15  C   UNL     1       1.391   8.767  19.942  0.00  0.00    +0.000 A 
ATOM     16  C   UNL     1       1.969   7.526  20.235  0.00  0.00    +0.000 A 
BRANCH  11  17
ATOM     17  C   UNL     1       3.044   5.308  19.461  0.00  0.00    +0.000 C 
ATOM     18  C   UNL     1       2.466   4.581  20.702  0.00  0.00    +0.000 C 
ATOM     19  C   UNL     1       1.110   4.015  20.267  0.00  0.00    +0.000 C 
ATOM     20  C   UNL     1       1.164   3.919  18.746  0.00  0.00    +0.000 C 
ATOM     21  C   UNL     1       2.578   4.332  18.352  0.00  0.00    +0.000 C 
BRANCH  17  23
ATOM     22  C   UNL     1       5.275   4.192  18.778  0.00  0.00    +0.000 C 
ATOM     23  C   UNL     1       4.595   5.344  19.510  0.00  0.00    +0.000 C 
ENDBRANCH  17  23
ENDBRANCH  11  17
ENDBRANCH   1  15
BRANCH   8  24
ATOM     24  C   UNL     1      -2.098  10.283  17.047  0.00  0.00    +0.000 C 
ATOM     25  F   UNL     1      -3.266   9.654  17.346  0.00  0.00    +0.000 F 
ATOM     26  F   UNL     1      -2.366  11.046  15.951  0.00  0.00    +0.000 F 
ATOM     27  F   UNL     1      -1.246   9.309  16.624  0.00  0.00    +0.000 F 
ENDBRANCH   8  24
TORSDOF 4
ENDMDL
MODEL 5
REMARK VINA RESULT:      -8.1      3.065      7.287
REMARK  Name = 
REMARK  5 active torsions:
REMARK  status: ('A' for Active; 'I' for Inactive)
REMARK    1  A    between atoms: C_1  and  C_2
REMARK    2  A    between atoms: C_2  and  C_3
REMARK    3  A    between atoms: C_3  and  C_4
REMARK    4  A    between atoms: C_8  and  N_9
REMARK    5  A    between atoms: C_16  and  C_17
REMARK                            x       y       z     vdW  Elec       q    Type
REMARK                         _______ _______ _______ _____ _____    ______ ____
ROOT
ATOM      1  N   UNL     1       0.736   8.327  21.150  0.00  0.00    +0.000 N 
ATOM      2  C   UNL     1      -0.507   8.650  20.406  0.00  0.00    +0.000 C 
ATOM      3  C   UNL     1      -0.362  10.119  20.157  0.00  0.00    +0.000 A 
ATOM      4  C   UNL     1       0.465  10.633  21.157  0.00  0.00    +0.000 A 
ATOM      5  C   UNL     1       0.910  11.943  21.163  0.00  0.00    +0.000 A 
ATOM      6  C   UNL     1       0.518  12.756  20.103  0.00  0.00    +0.000 A 
ATOM      7  C   UNL     1      -0.297  12.244  19.074  0.00  0.00    +0.000 A 
ATOM      8  C   UNL     1      -0.757  10.912  19.084  0.00  0.00    +0.000 A 
ATOM      9  C   UNL     1       1.062   9.495  21.891  0.00  0.00    +0.000 C 
ATOM     10  O   UNL     1       1.830   9.616  22.822  0.00  0.00    +0.000 OA
ENDROOT
BRANCH   1  15
ATOM     11  C   UNL     1       2.494   5.747  19.263  0.00  0.00    +0.000 A 
ATOM     12  C   UNL     1       2.445   6.382  18.006  0.00  0.00    +0.000 A 
ATOM     13  C   UNL     1       2.253   7.757  17.894  0.00  0.00    +0.000 A 
ATOM     14  C   UNL     1       1.966   8.509  19.023  0.00  0.00    +0.000 A 
ATOM     15  C   UNL     1       1.762   7.854  20.242  0.00  0.00    +0.000 A 
ATOM     16  C   UNL     1       2.185   6.527  20.387  0.00  0.00    +0.000 A 
BRANCH  11  17
ATOM     17  C   UNL     1       2.854   4.256  19.354  0.00  0.00    +0.000 C 
ATOM     18  C   UNL     1       2.620   3.599  20.739  0.00  0.00    +0.000 C 
ATOM     19  C   UNL     1       1.125   3.270  20.804  0.00  0.00    +0.000 C 
ATOM     20  C   UNL     1       0.646   3.207  19.358  0.00  0.00    +0.000 C 
ATOM     21  C   UNL     1       1.890   3.397  18.497  0.00  0.00    +0.000 C 
BRANCH  17  23
ATOM     22  C   UNL     1       4.439   3.472  17.466  0.00  0.00    +0.000 C 
ATOM     23  C   UNL     1       4.315   4.041  18.876  0.00  0.00    +0.000 C 
ENDBRANCH  17  23
ENDBRANCH  11  17
ENDBRANCH   1  15
BRANCH   8  24
ATOM     24  C   UNL     1      -1.546  10.398  17.908  0.00  0.00    +0.000 C 
ATOM     25  F   UNL     1      -0.884   9.481  17.153  0.00  0.00    +0.000 F 
ATOM     26  F   UNL     1      -2.701   9.788  18.291  0.00  0.00    +0.000 F 
ATOM     27  F   UNL     1      -1.914  11.391  17.053  0.00  0.00    +0.000 F 
ENDBRANCH   8  24
TORSDOF 4
ENDMDL
MODEL 6
REMARK VINA RESULT:      -7.7      0.619      1.634
REMARK  Name = 
REMARK  5 active torsions:
REMARK  status: ('A' for Active; 'I' for Inactive)
REMARK    1  A    between atoms: C_1  and  C_2
REMARK    2  A    between atoms: C_2  and  C_3
REMARK    3  A    between atoms: C_3  and  C_4
REMARK    4  A    between atoms: C_8  and  N_9
REMARK    5  A    between atoms: C_16  and  C_17
REMARK                            x       y       z     vdW  Elec       q    Type
REMARK                         _______ _______ _______ _____ _____    ______ ____
ROOT
ATOM      1  N   UNL     1       2.570   6.528  17.694  0.00  0.00    +0.000 N 
ATOM      2  C   UNL     1       1.680   5.364  17.931  0.00  0.00    +0.000 C 
ATOM      3  C   UNL     1       2.605   4.376  18.571  0.00  0.00    +0.000 A 
ATOM      4  C   UNL     1       3.900   4.680  18.148  0.00  0.00    +0.000 A 
ATOM      5  C   UNL     1       5.020   4.039  18.646  0.00  0.00    +0.000 A 
ATOM      6  C   UNL     1       4.821   3.069  19.624  0.00  0.00    +0.000 A 
ATOM      7  C   UNL     1       3.522   2.769  20.078  0.00  0.00    +0.000 A 
ATOM      8  C   UNL     1       2.385   3.416  19.556  0.00  0.00    +0.000 A 
ATOM      9  C   UNL     1       3.864   5.989  17.460  0.00  0.00    +0.000 C 
ATOM     10  O   UNL     1       4.837   6.528  16.977  0.00  0.00    +0.000 OA
ENDROOT
BRANCH   1  15
ATOM     11  C   UNL     1       1.325   9.559  19.297  0.00  0.00    +0.000 A 
ATOM     12  C   UNL     1       0.890   8.960  20.495  0.00  0.00    +0.000 A 
ATOM     13  C   UNL     1       1.393   7.731  20.918  0.00  0.00    +0.000 A 
ATOM     14  C   UNL     1       2.234   7.007  20.087  0.00  0.00    +0.000 A 
ATOM     15  C   UNL     1       2.473   7.472  18.790  0.00  0.00    +0.000 A 
ATOM     16  C   UNL     1       2.163   8.799  18.468  0.00  0.00    +0.000 A 
BRANCH  11  17
ATOM     17  C   UNL     1       0.860  10.979  18.937  0.00  0.00    +0.000 C 
ATOM     18  C   UNL     1      -0.430  11.059  18.082  0.00  0.00    +0.000 C 
ATOM     19  C   UNL     1      -1.598  10.896  19.060  0.00  0.00    +0.000 C 
ATOM     20  C   UNL     1      -1.051  11.275  20.433  0.00  0.00    +0.000 C 
ATOM     21  C   UNL     1       0.381  11.744  20.196  0.00  0.00    +0.000 C 
BRANCH  17  23
ATOM     22  C   UNL     1       1.872  13.272  18.297  0.00  0.00    +0.000 C 
ATOM     23  C   UNL     1       2.023  11.755  18.263  0.00  0.00    +0.000 C 
ENDBRANCH  17  23
ENDBRANCH  11  17
ENDBRANCH   1  15
BRANCH   8  24
ATOM     24  C   UNL     1       1.032   3.121  20.149  0.00  0.00    +0.000 C 
ATOM     25  F   UNL     1       0.329   4.227  20.509  0.00  0.00    +0.000 F 
ATOM     26  F   UNL     1       0.227   2.444  19.284  0.00  0.00    +0.000 F 
ATOM     27  F   UNL     1       1.112   2.348  21.267  0.00  0.00    +0.000 F 
ENDBRANCH   8  24
TORSDOF 4
ENDMDL
MODEL 7
REMARK VINA RESULT:      -7.7      2.827      3.646
REMARK  Name = 
REMARK  5 active torsions:
REMARK  status: ('A' for Active; 'I' for Inactive)
REMARK    1  A    between atoms: C_1  and  C_2
REMARK    2  A    between atoms: C_2  and  C_3
REMARK    3  A    between atoms: C_3  and  C_4
REMARK    4  A    between atoms: C_8  and  N_9
REMARK    5  A    between atoms: C_16  and  C_17
REMARK                            x       y       z     vdW  Elec       q    Type
REMARK                         _______ _______ _______ _____ _____    ______ ____
ROOT
ATOM      1  N   UNL     1       3.285   5.919  20.039  0.00  0.00    +0.000 N 
ATOM      2  C   UNL     1       4.524   5.487  19.346  0.00  0.00    +0.000 C 
ATOM      3  C   UNL     1       4.118   4.178  18.744  0.00  0.00    +0.000 A 
ATOM      4  C   UNL     1       3.078   3.665  19.521  0.00  0.00    +0.000 A 
ATOM      5  C   UNL     1       2.381   2.521  19.178  0.00  0.00    +0.000 A 
ATOM      6  C   UNL     1       2.737   1.886  17.992  0.00  0.00    +0.000 A 
ATOM      7  C   UNL     1       3.768   2.406  17.185  0.00  0.00    +0.000 A 
ATOM      8  C   UNL     1       4.484   3.564  17.550  0.00  0.00    +0.000 A 
ATOM      9  C   UNL     1       2.632   4.726  20.452  0.00  0.00    +0.000 C 
ATOM     10  O   UNL     1       1.739   4.587  21.260  0.00  0.00    +0.000 OA
ENDROOT
BRANCH   1  15
ATOM     11  C   UNL     1       1.291   8.899  19.368  0.00  0.00    +0.000 A 
ATOM     12  C   UNL     1       2.010   9.344  18.241  0.00  0.00    +0.000 A 
ATOM     13  C   UNL     1       2.803   8.474  17.496  0.00  0.00    +0.000 A 
ATOM     14  C   UNL     1       3.008   7.176  17.938  0.00  0.00    +0.000 A 
ATOM     15  C   UNL     1       2.506   6.796  19.187  0.00  0.00    +0.000 A 
ATOM     16  C   UNL     1       1.529   7.587  19.803  0.00  0.00    +0.000 A 
BRANCH  11  17
ATOM     17  C   UNL     1       0.313   9.850  20.077  0.00  0.00    +0.000 C 
ATOM     18  C   UNL     1      -0.773   9.162  20.943  0.00  0.00    +0.000 C 
ATOM     19  C   UNL     1      -0.098   8.821  22.275  0.00  0.00    +0.000 C 
ATOM     20  C   UNL     1       1.105   9.752  22.388  0.00  0.00    +0.000 C 
ATOM     21  C   UNL     1       1.033  10.673  21.175  0.00  0.00    +0.000 C 
BRANCH  17  23
ATOM     22  C   UNL     1      -1.575  10.256  18.356  0.00  0.00    +0.000 C 
ATOM     23  C   UNL     1      -0.328  10.809  19.038  0.00  0.00    +0.000 C 
ENDBRANCH  17  23
ENDBRANCH  11  17
ENDBRANCH   1  15
BRANCH   8  24
ATOM     24  C   UNL     1       5.510   4.124  16.600  0.00  0.00    +0.000 C 
ATOM     25  F   UNL     1       6.689   4.457  17.189  0.00  0.00    +0.000 F 
ATOM     26  F   UNL     1       5.832   3.244  15.612  0.00  0.00    +0.000 F 
ATOM     27  F   UNL     1       5.076   5.250  15.970  0.00  0.00    +0.000 F 
ENDBRANCH   8  24
TORSDOF 4
ENDMDL
MODEL 8
REMARK VINA RESULT:      -7.7      3.195      7.344
REMARK  Name = 
REMARK  5 active torsions:
REMARK  status: ('A' for Active; 'I' for Inactive)
REMARK    1  A    between atoms: C_1  and  C_2
REMARK    2  A    between atoms: C_2  and  C_3
REMARK    3  A    between atoms: C_3  and  C_4
REMARK    4  A    between atoms: C_8  and  N_9
REMARK    5  A    between atoms: C_16  and  C_17
REMARK                            x       y       z     vdW  Elec       q    Type
REMARK                         _______ _______ _______ _____ _____    ______ ____
ROOT
ATOM      1  N   UNL     1       0.433   9.531  20.721  0.00  0.00    +0.000 N 
ATOM      2  C   UNL     1      -0.872   9.422  20.022  0.00  0.00    +0.000 C 
ATOM      3  C   UNL     1      -0.987  10.753  19.346  0.00  0.00    +0.000 A 
ATOM      4  C   UNL     1      -0.226  11.663  20.081  0.00  0.00    +0.000 A 
ATOM      5  C   UNL     1      -0.011  12.966  19.668  0.00  0.00    +0.000 A 
ATOM      6  C   UNL     1      -0.572  13.353  18.455  0.00  0.00    +0.000 A 
ATOM      7  C   UNL     1      -1.322  12.439  17.690  0.00  0.00    +0.000 A 
ATOM      8  C   UNL     1      -1.548  11.117  18.125  0.00  0.00    +0.000 A 
ATOM      9  C   UNL     1       0.581  10.903  21.061  0.00  0.00    +0.000 C 
ATOM     10  O   UNL     1       1.348  11.413  21.849  0.00  0.00    +0.000 OA
ENDROOT
BRANCH   1  15
ATOM     11  C   UNL     1       2.218   6.780  19.123  0.00  0.00    +0.000 A 
ATOM     12  C   UNL     1       2.254   7.323  17.824  0.00  0.00    +0.000 A 
ATOM     13  C   UNL     1       2.107   8.691  17.604  0.00  0.00    +0.000 A 
ATOM     14  C   UNL     1       1.780   9.529  18.659  0.00  0.00    +0.000 A 
ATOM     15  C   UNL     1       1.493   8.969  19.908  0.00  0.00    +0.000 A 
ATOM     16  C   UNL     1       1.871   7.647  20.170  0.00  0.00    +0.000 A 
BRANCH  11  17
ATOM     17  C   UNL     1       2.530   5.291  19.340  0.00  0.00    +0.000 C 
ATOM     18  C   UNL     1       2.480   4.409  18.066  0.00  0.00    +0.000 C 
ATOM     19  C   UNL     1       3.822   4.615  17.356  0.00  0.00    +0.000 C 
ATOM     20  C   UNL     1       4.790   5.114  18.424  0.00  0.00    +0.000 C 
ATOM     21  C   UNL     1       4.014   5.085  19.736  0.00  0.00    +0.000 C 
BRANCH  17  23
ATOM     22  C   UNL     1       0.920   3.408  20.083  0.00  0.00    +0.000 C 
ATOM     23  C   UNL     1       1.607   4.720  20.449  0.00  0.00    +0.000 C 
ENDBRANCH  17  23
ENDBRANCH  11  17
ENDBRANCH   1  15
BRANCH   8  24
ATOM     24  C   UNL     1      -2.277  10.159  17.220  0.00  0.00    +0.000 C 
ATOM     25  F   UNL     1      -3.294   9.489  17.823  0.00  0.00    +0.000 F 
ATOM     26  F   UNL     1      -2.840  10.788  16.151  0.00  0.00    +0.000 F 
ATOM     27  F   UNL     1      -1.456   9.205  16.702  0.00  0.00    +0.000 F 
ENDBRANCH   8  24
TORSDOF 4
ENDMDL
MODEL 9
REMARK VINA RESULT:      -7.7      3.284      4.390
REMARK  Name = 
REMARK  5 active torsions:
REMARK  status: ('A' for Active; 'I' for Inactive)
REMARK    1  A    between atoms: C_1  and  C_2
REMARK    2  A    between atoms: C_2  and  C_3
REMARK    3  A    between atoms: C_3  and  C_4
REMARK    4  A    between atoms: C_8  and  N_9
REMARK    5  A    between atoms: C_16  and  C_17
REMARK                            x       y       z     vdW  Elec       q    Type
REMARK                         _______ _______ _______ _____ _____    ______ ____
ROOT
ATOM      1  N   UNL     1       3.247   5.449  19.632  0.00  0.00    +0.000 N 
ATOM      2  C   UNL     1       4.688   5.800  19.592  0.00  0.00    +0.000 C 
ATOM      3  C   UNL     1       5.138   5.170  18.311  0.00  0.00    +0.000 A 
ATOM      4  C   UNL     1       4.276   4.106  18.043  0.00  0.00    +0.000 A 
ATOM      5  C   UNL     1       4.329   3.376  16.868  0.00  0.00    +0.000 A 
ATOM      6  C   UNL     1       5.278   3.754  15.923  0.00  0.00    +0.000 A 
ATOM      7  C   UNL     1       6.138   4.841  16.170  0.00  0.00    +0.000 A 
ATOM      8  C   UNL     1       6.087   5.570  17.375  0.00  0.00    +0.000 A 
ATOM      9  C   UNL     1       3.132   4.192  18.978  0.00  0.00    +0.000 C 
ATOM     10  O   UNL     1       2.209   3.406  18.995  0.00  0.00    +0.000 OA
ENDROOT
BRANCH   1  15
ATOM     11  C   UNL     1       1.561   8.681  19.768  0.00  0.00    +0.000 A 
ATOM     12  C   UNL     1       2.119   9.222  18.593  0.00  0.00    +0.000 A 
ATOM     13  C   UNL     1       2.651   8.404  17.598  0.00  0.00    +0.000 A 
ATOM     14  C   UNL     1       2.765   7.039  17.813  0.00  0.00    +0.000 A 
ATOM     15  C   UNL     1       2.448   6.521  19.073  0.00  0.00    +0.000 A 
ATOM     16  C   UNL     1       1.703   7.300  19.968  0.00  0.00    +0.000 A 
BRANCH  11  17
ATOM     17  C   UNL     1       0.853   9.602  20.774  0.00  0.00    +0.000 C 
ATOM     18  C   UNL     1       1.092  11.120  20.568  0.00  0.00    +0.000 C 
ATOM     19  C   UNL     1       0.131  11.552  19.456  0.00  0.00    +0.000 C 
ATOM     20  C   UNL     1      -0.977  10.504  19.427  0.00  0.00    +0.000 C 
ATOM     21  C   UNL     1      -0.684   9.557  20.585  0.00  0.00    +0.000 C 
BRANCH  17  23
ATOM     22  C   UNL     1       0.121   9.433  23.249  0.00  0.00    +0.000 C 
ATOM     23  C   UNL     1       1.216   9.173  22.221  0.00  0.00    +0.000 C 
ENDBRANCH  17  23
ENDBRANCH  11  17
ENDBRANCH   1  15
BRANCH   8  24
ATOM     24  C   UNL     1       6.968   6.780  17.541  0.00  0.00    +0.000 C 
ATOM     25  F   UNL     1       7.699   6.783  18.687  0.00  0.00    +0.000 F 
ATOM     26  F   UNL     1       7.875   6.900  16.531  0.00  0.00    +0.000 F 
ATOM     27  F   UNL     1       6.260   7.943  17.545  0.00  0.00    +0.000 F 
ENDBRANCH   8  24
TORSDOF 4
ENDMDL
