MODEL 1
REMARK VINA RESULT:      -7.9      0.000      0.000
REMARK  Name = 
REMARK  6 active torsions:
REMARK  status: ('A' for Active; 'I' for Inactive)
REMARK    1  A    between atoms: C_1  and  C_2
REMARK    2  A    between atoms: C_2  and  C_3
REMARK    3  A    between atoms: C_7  and  N_8
REMARK    4  A    between atoms: N_17  and  C_18
REMARK    5  A    between atoms: C_18  and  C_19
REMARK    6  A    between atoms: C_24  and  C_25
REMARK                            x       y       z     vdW  Elec       q    Type
REMARK                         _______ _______ _______ _____ _____    ______ ____
ROOT
ATOM      1  C   UNL     1       1.114   3.409  20.819  0.00  0.00    +0.000 C 
ATOM      2  C   UNL     1       1.945   3.904  19.646  0.00  0.00    +0.000 C 
ATOM      3  N   UNL     1       1.492   3.335  18.393  0.00  0.00    +0.000 N 
ATOM      4  C   UNL     1       2.556   3.006  17.576  0.00  0.00    +0.000 C 
ATOM      5  O   UNL     1       2.440   2.751  16.392  0.00  0.00    +0.000 OA
ATOM      6  N   UNL     1       3.696   3.056  18.315  0.00  0.00    +0.000 N 
ATOM      7  C   UNL     1       3.388   3.335  19.621  0.00  0.00    +0.000 C 
ATOM      8  O   UNL     1       4.160   3.294  20.569  0.00  0.00    +0.000 OA
ATOM      9  H   UNL     1       0.582   3.497  17.981  0.00  0.00    +0.000 HD
ENDROOT
BRANCH   2  10
ATOM     10  C   UNL     1       2.060   5.440  19.609  0.00  0.00    +0.000 A 
ATOM     11  C   UNL     1       2.475   6.076  18.422  0.00  0.00    +0.000 A 
ATOM     12  C   UNL     1       2.438   7.464  18.289  0.00  0.00    +0.000 A 
ATOM     13  C   UNL     1       1.951   8.251  19.328  0.00  0.00    +0.000 A 
ATOM     14  C   UNL     1       1.521   7.647  20.514  0.00  0.00    +0.000 A 
ATOM     15  C   UNL     1       1.621   6.253  20.670  0.00  0.00    +0.000 A 
BRANCH  14  16
ATOM     16  N   UNL     1       0.918   8.422  21.532  0.00  0.00    +0.000 N 
ATOM     17  C   UNL     1       1.506   9.269  22.437  0.00  0.00    +0.000 A 
ATOM     18  N   UNL     1       0.577   9.825  23.179  0.00  0.00    +0.000 NA
ATOM     19  N   UNL     1      -0.613   9.329  22.718  0.00  0.00    +0.000 NA
ATOM     20  N   UNL     1      -0.420   8.483  21.714  0.00  0.00    +0.000 NA
ENDBRANCH  14  16
ENDBRANCH   2  10
BRANCH   6  21
ATOM     21  C   UNL     1       5.040   3.141  17.782  0.00  0.00    +0.000 C 
BRANCH  21  22
ATOM     22  C   UNL     1       5.387   4.452  17.124  0.00  0.00    +0.000 A 
ATOM     23  C   UNL     1       4.902   4.708  15.828  0.00  0.00    +0.000 A 
ATOM     24  C   UNL     1       5.166   5.917  15.187  0.00  0.00    +0.000 A 
ATOM     25  C   UNL     1       5.894   6.906  15.839  0.00  0.00    +0.000 A 
ATOM     26  C   UNL     1       6.359   6.686  17.135  0.00  0.00    +0.000 A 
ATOM     27  C   UNL     1       6.121   5.462  17.782  0.00  0.00    +0.000 A 
BRANCH  27  28
ATOM     28  C   UNL     1       6.617   5.303  19.121  0.00  0.00    +0.000 C 
ATOM     29  N   UNL     1       7.040   5.150  20.194  0.00  0.00    +0.000 NA
ENDBRANCH  27  28
ENDBRANCH  21  22
ENDBRANCH   6  21
TORSDOF 5
ENDMDL
MODEL 2
REMARK VINA RESULT:      -7.8      1.115      1.957
REMARK  Name = 
REMARK  6 active torsions:
REMARK  status: ('A' for Active; 'I' for Inactive)
REMARK    1  A    between atoms: C_1  and  C_2
REMARK    2  A    between atoms: C_2  and  C_3
REMARK    3  A    between atoms: C_7  and  N_8
REMARK    4  A    between atoms: N_17  and  C_18
REMARK    5  A    between atoms: C_18  and  C_19
REMARK    6  A    between atoms: C_24  and  C_25
REMARK                            x       y       z     vdW  Elec       q    Type
REMARK                         _______ _______ _______ _____ _____    ______ ____
ROOT
ATOM      1  C   UNL     1       0.808   3.529  20.474  0.00  0.00    +0.000 C 
ATOM      2  C   UNL     1       1.776   4.003  19.403  0.00  0.00    +0.000 C 
ATOM      3  N   UNL     1       1.385   3.540  18.087  0.00  0.00    +0.000 N 
ATOM      4  C   UNL     1       2.484   3.156  17.342  0.00  0.00    +0.000 C 
ATOM      5  O   UNL     1       2.448   2.971  16.140  0.00  0.00    +0.000 OA
ATOM      6  N   UNL     1       3.556   3.065  18.174  0.00  0.00    +0.000 N 
ATOM      7  C   UNL     1       3.161   3.307  19.464  0.00  0.00    +0.000 C 
ATOM      8  O   UNL     1       3.842   3.149  20.467  0.00  0.00    +0.000 OA
ATOM      9  H   UNL     1       0.532   3.804  17.612  0.00  0.00    +0.000 HD
ENDROOT
BRANCH   2  10
ATOM     10  C   UNL     1       2.027   5.522  19.462  0.00  0.00    +0.000 A 
ATOM     11  C   UNL     1       2.583   6.177  18.345  0.00  0.00    +0.000 A 
ATOM     12  C   UNL     1       2.678   7.567  18.290  0.00  0.00    +0.000 A 
ATOM     13  C   UNL     1       2.185   8.342  19.336  0.00  0.00    +0.000 A 
ATOM     14  C   UNL     1       1.616   7.720  20.453  0.00  0.00    +0.000 A 
ATOM     15  C   UNL     1       1.582   6.317  20.535  0.00  0.00    +0.000 A 
BRANCH  14  16
ATOM     16  N   UNL     1       1.008   8.494  21.468  0.00  0.00    +0.000 N 
ATOM     17  C   UNL     1      -0.322   8.622  21.779  0.00  0.00    +0.000 A 
ATOM     18  N   UNL     1      -0.451   9.406  22.823  0.00  0.00    +0.000 NA
ATOM     19  N   UNL     1       0.823   9.761  23.180  0.00  0.00    +0.000 NA
ATOM     20  N   UNL     1       1.717   9.209  22.372  0.00  0.00    +0.000 NA
ENDBRANCH  14  16
ENDBRANCH   2  10
BRANCH   6  21
ATOM     21  C   UNL     1       4.942   3.053  17.757  0.00  0.00    +0.000 C 
BRANCH  21  22
ATOM     22  C   UNL     1       5.606   4.406  17.695  0.00  0.00    +0.000 A 
ATOM     23  C   UNL     1       6.064   4.989  18.891  0.00  0.00    +0.000 A 
ATOM     24  C   UNL     1       6.713   6.222  18.886  0.00  0.00    +0.000 A 
ATOM     25  C   UNL     1       6.944   6.883  17.684  0.00  0.00    +0.000 A 
ATOM     26  C   UNL     1       6.526   6.308  16.484  0.00  0.00    +0.000 A 
ATOM     27  C   UNL     1       5.848   5.079  16.479  0.00  0.00    +0.000 A 
BRANCH  27  28
ATOM     28  C   UNL     1       5.454   4.535  15.208  0.00  0.00    +0.000 C 
ATOM     29  N   UNL     1       5.167   4.082  14.176  0.00  0.00    +0.000 NA
ENDBRANCH  27  28
ENDBRANCH  21  22
ENDBRANCH   6  21
TORSDOF 5
ENDMDL
MODEL 3
REMARK VINA RESULT:      -7.4      2.421      6.482
REMARK  Name = 
REMARK  6 active torsions:
REMARK  status: ('A' for Active; 'I' for Inactive)
REMARK    1  A    between atoms: C_1  and  C_2
REMARK    2  A    between atoms: C_2  and  C_3
REMARK    3  A    between atoms: C_7  and  N_8
REMARK    4  A    between atoms: N_17  and  C_18
REMARK    5  A    between atoms: C_18  and  C_19
REMARK    6  A    between atoms: C_24  and  C_25
REMARK                            x       y       z     vdW  Elec       q    Type
REMARK                         _______ _______ _______ _____ _____    ______ ____
ROOT
ATOM      1  C   UNL     1       3.600   1.471  18.210  0.00  0.00    +0.000 C 
ATOM      2  C   UNL     1       3.503   2.783  18.972  0.00  0.00    +0.000 C 
ATOM      3  N   UNL     1       3.487   2.569  20.404  0.00  0.00    +0.000 N 
ATOM      4  C   UNL     1       2.597   3.420  21.030  0.00  0.00    +0.000 C 
ATOM      5  O   UNL     1       2.582   3.610  22.232  0.00  0.00    +0.000 OA
ATOM      6  N   UNL     1       1.811   3.993  20.080  0.00  0.00    +0.000 N 
ATOM      7  C   UNL     1       2.119   3.472  18.850  0.00  0.00    +0.000 C 
ATOM      8  O   UNL     1       1.495   3.653  17.814  0.00  0.00    +0.000 OA
ATOM      9  H   UNL     1       4.249   2.169  20.937  0.00  0.00    +0.000 HD
ENDROOT
BRANCH   2  10
ATOM     10  C   UNL     1       4.563   3.808  18.523  0.00  0.00    +0.000 A 
ATOM     11  C   UNL     1       5.286   4.528  19.494  0.00  0.00    +0.000 A 
ATOM     12  C   UNL     1       6.363   5.342  19.143  0.00  0.00    +0.000 A 
ATOM     13  C   UNL     1       6.767   5.430  17.815  0.00  0.00    +0.000 A 
ATOM     14  C   UNL     1       6.075   4.717  16.830  0.00  0.00    +0.000 A 
ATOM     15  C   UNL     1       4.950   3.949  17.177  0.00  0.00    +0.000 A 
BRANCH  14  16
ATOM     16  N   UNL     1       6.544   4.705  15.495  0.00  0.00    +0.000 N 
ATOM     17  C   UNL     1       6.091   3.975  14.426  0.00  0.00    +0.000 A 
ATOM     18  N   UNL     1       6.778   4.298  13.356  0.00  0.00    +0.000 NA
ATOM     19  N   UNL     1       7.665   5.259  13.761  0.00  0.00    +0.000 NA
ATOM     20  N   UNL     1       7.528   5.521  15.054  0.00  0.00    +0.000 NA
ENDBRANCH  14  16
ENDBRANCH   2  10
BRANCH   6  21
ATOM     21  C   UNL     1       1.016   5.190  20.259  0.00  0.00    +0.000 C 
BRANCH  21  22
ATOM     22  C   UNL     1       1.583   6.436  19.627  0.00  0.00    +0.000 A 
ATOM     23  C   UNL     1       2.452   6.302  18.529  0.00  0.00    +0.000 A 
ATOM     24  C   UNL     1       2.978   7.422  17.887  0.00  0.00    +0.000 A 
ATOM     25  C   UNL     1       2.622   8.698  18.310  0.00  0.00    +0.000 A 
ATOM     26  C   UNL     1       1.739   8.854  19.378  0.00  0.00    +0.000 A 
ATOM     27  C   UNL     1       1.222   7.734  20.048  0.00  0.00    +0.000 A 
BRANCH  27  28
ATOM     28  C   UNL     1       0.308   7.963  21.133  0.00  0.00    +0.000 C 
ATOM     29  N   UNL     1      -0.437   8.181  22.000  0.00  0.00    +0.000 NA
ENDBRANCH  27  28
ENDBRANCH  21  22
ENDBRANCH   6  21
TORSDOF 5
ENDMDL
MODEL 4
REMARK VINA RESULT:      -7.2      1.449      2.153
REMARK  Name = 
REMARK  6 active torsions:
REMARK  status: ('A' for Active; 'I' for Inactive)
REMARK    1  A    between atoms: C_1  and  C_2
REMARK    2  A    between atoms: C_2  and  C_3
REMARK    3  A    between atoms: C_7  and  N_8
REMARK    4  A    between atoms: N_17  and  C_18
REMARK    5  A    between atoms: C_18  and  C_19
REMARK    6  A    between atoms: C_24  and  C_25
REMARK                            x       y       z     vdW  Elec       q    Type
REMARK                         _______ _______ _______ _____ _____    ______ ____
ROOT
ATOM      1  C   UNL     1       1.939   4.377  21.053  0.00  0.00    +0.000 C 
ATOM      2  C   UNL     1       2.438   4.776  19.673  0.00  0.00    +0.000 C 
ATOM      3  N   UNL     1       1.813   3.988  18.631  0.00  0.00    +0.000 N 
ATOM      4  C   UNL     1       2.718   3.650  17.643  0.00  0.00    +0.000 C 
ATOM      5  O   UNL     1       2.393   3.215  16.555  0.00  0.00    +0.000 OA
ATOM      6  N   UNL     1       3.970   3.921  18.099  0.00  0.00    +0.000 N 
ATOM      7  C   UNL     1       3.906   4.356  19.397  0.00  0.00    +0.000 C 
ATOM      8  O   UNL     1       4.856   4.530  20.147  0.00  0.00    +0.000 OA
ATOM      9  H   UNL     1       0.825   3.996  18.415  0.00  0.00    +0.000 HD
ENDROOT
BRANCH   2  10
ATOM     10  C   UNL     1       2.344   6.293  19.425  0.00  0.00    +0.000 A 
ATOM     11  C   UNL     1       2.515   6.795  18.120  0.00  0.00    +0.000 A 
ATOM     12  C   UNL     1       2.279   8.136  17.819  0.00  0.00    +0.000 A 
ATOM     13  C   UNL     1       1.831   9.004  18.810  0.00  0.00    +0.000 A 
ATOM     14  C   UNL     1       1.640   8.533  20.113  0.00  0.00    +0.000 A 
ATOM     15  C   UNL     1       1.942   7.196  20.428  0.00  0.00    +0.000 A 
BRANCH  14  16
ATOM     16  N   UNL     1       1.077   9.373  21.101  0.00  0.00    +0.000 N 
ATOM     17  C   UNL     1       0.433  10.574  20.950  0.00  0.00    +0.000 A 
ATOM     18  N   UNL     1       0.026  11.001  22.123  0.00  0.00    +0.000 NA
ATOM     19  N   UNL     1       0.409  10.039  23.020  0.00  0.00    +0.000 NA
ATOM     20  N   UNL     1       1.040   9.044  22.412  0.00  0.00    +0.000 NA
ENDBRANCH  14  16
ENDBRANCH   2  10
BRANCH   6  21
ATOM     21  C   UNL     1       5.152   4.060  17.273  0.00  0.00    +0.000 C 
BRANCH  21  22
ATOM     22  C   UNL     1       6.118   5.132  17.711  0.00  0.00    +0.000 A 
ATOM     23  C   UNL     1       7.005   4.852  18.766  0.00  0.00    +0.000 A 
ATOM     24  C   UNL     1       7.940   5.796  19.189  0.00  0.00    +0.000 A 
ATOM     25  C   UNL     1       8.027   7.025  18.546  0.00  0.00    +0.000 A 
ATOM     26  C   UNL     1       7.178   7.313  17.478  0.00  0.00    +0.000 A 
ATOM     27  C   UNL     1       6.215   6.380  17.060  0.00  0.00    +0.000 A 
BRANCH  27  28
ATOM     28  C   UNL     1       5.379   6.733  15.946  0.00  0.00    +0.000 C 
ATOM     29  N   UNL     1       4.699   6.984  15.036  0.00  0.00    +0.000 NA
ENDBRANCH  27  28
ENDBRANCH  21  22
ENDBRANCH   6  21
TORSDOF 5
ENDMDL
MODEL 5
REMARK VINA RESULT:      -7.0      1.104      1.282
REMARK  Name = 
REMARK  6 active torsions:
REMARK  status: ('A' for Active; 'I' for Inactive)
REMARK    1  A    between atoms: C_1  and  C_2
REMARK    2  A    between atoms: C_2  and  C_3
REMARK    3  A    between atoms: C_7  and  N_8
REMARK    4  A    between atoms: N_17  and  C_18
REMARK    5  A    between atoms: C_18  and  C_19
REMARK    6  A    between atoms: C_24  and  C_25
REMARK                            x       y       z     vdW  Elec       q    Type
REMARK                         _______ _______ _______ _____ _____    ______ ____
ROOT
ATOM      1  C   UNL     1       0.792   4.265  20.198  0.00  0.00    +0.000 C 
ATOM      2  C   UNL     1       1.962   4.705  19.334  0.00  0.00    +0.000 C 
ATOM      3  N   UNL     1       1.968   4.022  18.056  0.00  0.00    +0.000 N 
ATOM      4  C   UNL     1       3.251   3.679  17.676  0.00  0.00    +0.000 C 
ATOM      5  O   UNL     1       3.547   3.329  16.549  0.00  0.00    +0.000 OA
ATOM      6  N   UNL     1       4.074   3.837  18.747  0.00  0.00    +0.000 N 
ATOM      7  C   UNL     1       3.337   4.202  19.845  0.00  0.00    +0.000 C 
ATOM      8  O   UNL     1       3.744   4.268  20.996  0.00  0.00    +0.000 OA
ATOM      9  H   UNL     1       1.249   4.110  17.351  0.00  0.00    +0.000 HD
ENDROOT
BRANCH   2  10
ATOM     10  C   UNL     1       2.057   6.237  19.203  0.00  0.00    +0.000 A 
ATOM     11  C   UNL     1       2.357   6.809  17.950  0.00  0.00    +0.000 A 
ATOM     12  C   UNL     1       2.295   8.187  17.746  0.00  0.00    +0.000 A 
ATOM     13  C   UNL     1       1.895   9.028  18.781  0.00  0.00    +0.000 A 
ATOM     14  C   UNL     1       1.579   8.488  20.032  0.00  0.00    +0.000 A 
ATOM     15  C   UNL     1       1.707   7.106  20.254  0.00  0.00    +0.000 A 
BRANCH  14  16
ATOM     16  N   UNL     1       1.062   9.315  21.056  0.00  0.00    +0.000 N 
ATOM     17  C   UNL     1       0.842   9.019  22.377  0.00  0.00    +0.000 A 
ATOM     18  N   UNL     1       0.392  10.087  22.993  0.00  0.00    +0.000 NA
ATOM     19  N   UNL     1       0.346  11.071  22.042  0.00  0.00    +0.000 NA
ATOM     20  N   UNL     1       0.757  10.618  20.865  0.00  0.00    +0.000 NA
ENDBRANCH  14  16
ENDBRANCH   2  10
BRANCH   6  21
ATOM     21  C   UNL     1       5.516   3.941  18.690  0.00  0.00    +0.000 C 
BRANCH  21  22
ATOM     22  C   UNL     1       6.044   5.211  18.072  0.00  0.00    +0.000 A 
ATOM     23  C   UNL     1       5.402   5.724  16.930  0.00  0.00    +0.000 A 
ATOM     24  C   UNL     1       5.829   6.912  16.338  0.00  0.00    +0.000 A 
ATOM     25  C   UNL     1       6.886   7.625  16.893  0.00  0.00    +0.000 A 
ATOM     26  C   UNL     1       7.518   7.151  18.042  0.00  0.00    +0.000 A 
ATOM     27  C   UNL     1       7.113   5.943  18.632  0.00  0.00    +0.000 A 
BRANCH  27  28
ATOM     28  C   UNL     1       7.797   5.515  19.821  0.00  0.00    +0.000 C 
ATOM     29  N   UNL     1       8.330   5.140  20.785  0.00  0.00    +0.000 NA
ENDBRANCH  27  28
ENDBRANCH  21  22
ENDBRANCH   6  21
TORSDOF 5
ENDMDL
MODEL 6
REMARK VINA RESULT:      -7.0      2.281      4.539
REMARK  Name = 
REMARK  6 active torsions:
REMARK  status: ('A' for Active; 'I' for Inactive)
REMARK    1  A    between atoms: C_1  and  C_2
REMARK    2  A    between atoms: C_2  and  C_3
REMARK    3  A    between atoms: C_7  and  N_8
REMARK    4  A    between atoms: N_17  and  C_18
REMARK    5  A    between atoms: C_18  and  C_19
REMARK    6  A    between atoms: C_24  and  C_25
REMARK                            x       y       z     vdW  Elec       q    Type
REMARK                         _______ _______ _______ _____ _____    ______ ____
ROOT
ATOM      1  C   UNL     1       4.815   7.000  16.124  0.00  0.00    +0.000 C 
ATOM      2  C   UNL     1       4.519   6.131  17.336  0.00  0.00    +0.000 C 
ATOM      3  N   UNL     1       5.726   5.816  18.074  0.00  0.00    +0.000 N 
ATOM      4  C   UNL     1       5.716   4.509  18.520  0.00  0.00    +0.000 C 
ATOM      5  O   UNL     1       6.482   4.081  19.363  0.00  0.00    +0.000 OA
ATOM      6  N   UNL     1       4.711   3.847  17.887  0.00  0.00    +0.000 N 
ATOM      7  C   UNL     1       4.113   4.678  16.976  0.00  0.00    +0.000 C 
ATOM      8  O   UNL     1       3.287   4.351  16.135  0.00  0.00    +0.000 OA
ATOM      9  H   UNL     1       6.308   6.496  18.545  0.00  0.00    +0.000 HD
ENDROOT
BRANCH   2  10
ATOM     10  C   UNL     1       3.400   6.711  18.222  0.00  0.00    +0.000 A 
ATOM     11  C   UNL     1       3.076   6.074  19.436  0.00  0.00    +0.000 A 
ATOM     12  C   UNL     1       2.188   6.650  20.345  0.00  0.00    +0.000 A 
ATOM     13  C   UNL     1       1.628   7.895  20.078  0.00  0.00    +0.000 A 
ATOM     14  C   UNL     1       1.940   8.557  18.886  0.00  0.00    +0.000 A 
ATOM     15  C   UNL     1       2.783   7.946  17.942  0.00  0.00    +0.000 A 
BRANCH  14  16
ATOM     16  N   UNL     1       1.470   9.871  18.655  0.00  0.00    +0.000 N 
ATOM     17  C   UNL     1       0.235  10.407  18.919  0.00  0.00    +0.000 A 
ATOM     18  N   UNL     1       0.232  11.677  18.590  0.00  0.00    +0.000 NA
ATOM     19  N   UNL     1       1.493  11.942  18.127  0.00  0.00    +0.000 NA
ATOM     20  N   UNL     1       2.255  10.858  18.168  0.00  0.00    +0.000 NA
ENDBRANCH  14  16
ENDBRANCH   2  10
BRANCH   6  21
ATOM     21  C   UNL     1       4.129   2.593  18.318  0.00  0.00    +0.000 C 
BRANCH  21  22
ATOM     22  C   UNL     1       3.077   2.709  19.391  0.00  0.00    +0.000 A 
ATOM     23  C   UNL     1       1.799   3.177  19.036  0.00  0.00    +0.000 A 
ATOM     24  C   UNL     1       0.779   3.273  19.982  0.00  0.00    +0.000 A 
ATOM     25  C   UNL     1       1.008   2.873  21.294  0.00  0.00    +0.000 A 
ATOM     26  C   UNL     1       2.258   2.377  21.661  0.00  0.00    +0.000 A 
ATOM     27  C   UNL     1       3.300   2.300  20.723  0.00  0.00    +0.000 A 
BRANCH  27  28
ATOM     28  C   UNL     1       4.561   1.769  21.162  0.00  0.00    +0.000 C 
ATOM     29  N   UNL     1       5.566   1.326  21.546  0.00  0.00    +0.000 NA
ENDBRANCH  27  28
ENDBRANCH  21  22
ENDBRANCH   6  21
TORSDOF 5
ENDMDL
MODEL 7
REMARK VINA RESULT:      -6.9      3.058      7.382
REMARK  Name = 
REMARK  6 active torsions:
REMARK  status: ('A' for Active; 'I' for Inactive)
REMARK    1  A    between atoms: C_1  and  C_2
REMARK    2  A    between atoms: C_2  and  C_3
REMARK    3  A    between atoms: C_7  and  N_8
REMARK    4  A    between atoms: N_17  and  C_18
REMARK    5  A    between atoms: C_18  and  C_19
REMARK    6  A    between atoms: C_24  and  C_25
REMARK                            x       y       z     vdW  Elec       q    Type
REMARK                         _______ _______ _______ _____ _____    ______ ____
ROOT
ATOM      1  C   UNL     1       2.108   3.826  16.997  0.00  0.00    +0.000 C 
ATOM      2  C   UNL     1       2.870   4.612  18.052  0.00  0.00    +0.000 C 
ATOM      3  N   UNL     1       2.606   4.110  19.385  0.00  0.00    +0.000 N 
ATOM      4  C   UNL     1       2.485   5.142  20.296  0.00  0.00    +0.000 C 
ATOM      5  O   UNL     1       2.512   4.980  21.502  0.00  0.00    +0.000 OA
ATOM      6  N   UNL     1       2.369   6.310  19.609  0.00  0.00    +0.000 N 
ATOM      7  C   UNL     1       2.333   6.052  18.263  0.00  0.00    +0.000 C 
ATOM      8  O   UNL     1       2.078   6.859  17.381  0.00  0.00    +0.000 OA
ATOM      9  H   UNL     1       2.852   3.186  19.713  0.00  0.00    +0.000 HD
ENDROOT
BRANCH   2  10
ATOM     10  C   UNL     1       4.373   4.727  17.734  0.00  0.00    +0.000 A 
ATOM     11  C   UNL     1       5.316   4.556  18.767  0.00  0.00    +0.000 A 
ATOM     12  C   UNL     1       6.683   4.490  18.500  0.00  0.00    +0.000 A 
ATOM     13  C   UNL     1       7.141   4.558  17.188  0.00  0.00    +0.000 A 
ATOM     14  C   UNL     1       6.228   4.716  16.140  0.00  0.00    +0.000 A 
ATOM     15  C   UNL     1       4.856   4.849  16.417  0.00  0.00    +0.000 A 
BRANCH  14  16
ATOM     16  N   UNL     1       6.668   4.671  14.797  0.00  0.00    +0.000 N 
ATOM     17  C   UNL     1       6.208   3.897  13.762  0.00  0.00    +0.000 A 
ATOM     18  N   UNL     1       6.865   4.200  12.667  0.00  0.00    +0.000 NA
ATOM     19  N   UNL     1       7.739   5.192  13.021  0.00  0.00    +0.000 NA
ATOM     20  N   UNL     1       7.624   5.492  14.308  0.00  0.00    +0.000 NA
ENDBRANCH  14  16
ENDBRANCH   2  10
BRANCH   6  21
ATOM     21  C   UNL     1       2.586   7.632  20.158  0.00  0.00    +0.000 C 
BRANCH  21  22
ATOM     22  C   UNL     1       1.333   8.407  20.477  0.00  0.00    +0.000 A 
ATOM     23  C   UNL     1       0.619   8.084  21.646  0.00  0.00    +0.000 A 
ATOM     24  C   UNL     1      -0.528   8.791  22.006  0.00  0.00    +0.000 A 
ATOM     25  C   UNL     1      -0.965   9.853  21.222  0.00  0.00    +0.000 A 
ATOM     26  C   UNL     1      -0.255  10.209  20.076  0.00  0.00    +0.000 A 
ATOM     27  C   UNL     1       0.886   9.489  19.690  0.00  0.00    +0.000 A 
BRANCH  27  28
ATOM     28  C   UNL     1       1.579   9.914  18.505  0.00  0.00    +0.000 C 
ATOM     29  N   UNL     1       2.139  10.226  17.533  0.00  0.00    +0.000 NA
ENDBRANCH  27  28
ENDBRANCH  21  22
ENDBRANCH   6  21
TORSDOF 5
ENDMDL
MODEL 8
REMARK VINA RESULT:      -6.8      4.238      5.910
REMARK  Name = 
REMARK  6 active torsions:
REMARK  status: ('A' for Active; 'I' for Inactive)
REMARK    1  A    between atoms: C_1  and  C_2
REMARK    2  A    between atoms: C_2  and  C_3
REMARK    3  A    between atoms: C_7  and  N_8
REMARK    4  A    between atoms: N_17  and  C_18
REMARK    5  A    between atoms: C_18  and  C_19
REMARK    6  A    between atoms: C_24  and  C_25
REMARK                            x       y       z     vdW  Elec       q    Type
REMARK                         _______ _______ _______ _____ _____    ______ ____
ROOT
ATOM      1  C   UNL     1       1.473  12.190  19.421  0.00  0.00    +0.000 C 
ATOM      2  C   UNL     1       0.864  10.804  19.282  0.00  0.00    +0.000 C 
ATOM      3  N   UNL     1       0.889  10.082  20.537  0.00  0.00    +0.000 N 
ATOM      4  C   UNL     1       1.204   8.750  20.345  0.00  0.00    +0.000 C 
ATOM      5  O   UNL     1       1.045   7.893  21.194  0.00  0.00    +0.000 OA
ATOM      6  N   UNL     1       1.667   8.598  19.076  0.00  0.00    +0.000 N 
ATOM      7  C   UNL     1       1.736   9.820  18.459  0.00  0.00    +0.000 C 
ATOM      8  O   UNL     1       2.256  10.054  17.377  0.00  0.00    +0.000 OA
ATOM      9  H   UNL     1       0.389  10.357  21.372  0.00  0.00    +0.000 HD
ENDROOT
BRANCH   2  10
ATOM     10  C   UNL     1      -0.531  10.834  18.627  0.00  0.00    +0.000 A 
ATOM     11  C   UNL     1      -0.829   9.929  17.588  0.00  0.00    +0.000 A 
ATOM     12  C   UNL     1      -2.121   9.809  17.078  0.00  0.00    +0.000 A 
ATOM     13  C   UNL     1      -3.157  10.564  17.618  0.00  0.00    +0.000 A 
ATOM     14  C   UNL     1      -2.895  11.461  18.658  0.00  0.00    +0.000 A 
ATOM     15  C   UNL     1      -1.579  11.630  19.126  0.00  0.00    +0.000 A 
BRANCH  14  16
ATOM     16  N   UNL     1      -3.955  12.149  19.293  0.00  0.00    +0.000 N 
ATOM     17  C   UNL     1      -3.921  12.956  20.401  0.00  0.00    +0.000 A 
ATOM     18  N   UNL     1      -5.122  13.432  20.630  0.00  0.00    +0.000 NA
ATOM     19  N   UNL     1      -5.917  12.926  19.636  0.00  0.00    +0.000 NA
ATOM     20  N   UNL     1      -5.219  12.153  18.814  0.00  0.00    +0.000 NA
ENDBRANCH  14  16
ENDBRANCH   2  10
BRANCH   6  21
ATOM     21  C   UNL     1       1.758   7.342  18.360  0.00  0.00    +0.000 C 
BRANCH  21  22
ATOM     22  C   UNL     1       3.135   6.729  18.313  0.00  0.00    +0.000 A 
ATOM     23  C   UNL     1       4.070   7.239  17.393  0.00  0.00    +0.000 A 
ATOM     24  C   UNL     1       5.366   6.731  17.330  0.00  0.00    +0.000 A 
ATOM     25  C   UNL     1       5.763   5.725  18.204  0.00  0.00    +0.000 A 
ATOM     26  C   UNL     1       4.862   5.226  19.144  0.00  0.00    +0.000 A 
ATOM     27  C   UNL     1       3.546   5.713  19.200  0.00  0.00    +0.000 A 
BRANCH  27  28
ATOM     28  C   UNL     1       2.670   5.165  20.200  0.00  0.00    +0.000 C 
ATOM     29  N   UNL     1       1.962   4.691  20.991  0.00  0.00    +0.000 NA
ENDBRANCH  27  28
ENDBRANCH  21  22
ENDBRANCH   6  21
TORSDOF 5
ENDMDL
MODEL 9
REMARK VINA RESULT:      -6.7      6.730      9.368
REMARK  Name = 
REMARK  6 active torsions:
REMARK  status: ('A' for Active; 'I' for Inactive)
REMARK    1  A    between atoms: C_1  and  C_2
REMARK    2  A    between atoms: C_2  and  C_3
REMARK    3  A    between atoms: C_7  and  N_8
REMARK    4  A    between atoms: N_17  and  C_18
REMARK    5  A    between atoms: C_18  and  C_19
REMARK    6  A    between atoms: C_24  and  C_25
REMARK                            x       y       z     vdW  Elec       q    Type
REMARK                         _______ _______ _______ _____ _____    ______ ____
ROOT
ATOM      1  C   UNL     1      -2.391  10.168  16.371  0.00  0.00    +0.000 C 
ATOM      2  C   UNL     1      -2.422  11.269  17.419  0.00  0.00    +0.000 C 
ATOM      3  N   UNL     1      -1.554  12.372  17.059  0.00  0.00    +0.000 N 
ATOM      4  C   UNL     1      -0.886  12.866  18.163  0.00  0.00    +0.000 C 
ATOM      5  O   UNL     1      -0.301  13.933  18.172  0.00  0.00    +0.000 OA
ATOM      6  N   UNL     1      -1.036  11.984  19.187  0.00  0.00    +0.000 N 
ATOM      7  C   UNL     1      -1.725  10.882  18.749  0.00  0.00    +0.000 C 
ATOM      8  O   UNL     1      -1.889   9.842  19.370  0.00  0.00    +0.000 OA
ATOM      9  H   UNL     1      -1.678  12.964  16.249  0.00  0.00    +0.000 HD
ENDROOT
BRANCH   2  10
ATOM     10  C   UNL     1      -3.855  11.714  17.768  0.00  0.00    +0.000 A 
ATOM     11  C   UNL     1      -4.814  11.833  16.742  0.00  0.00    +0.000 A 
ATOM     12  C   UNL     1      -6.158  12.073  17.028  0.00  0.00    +0.000 A 
ATOM     13  C   UNL     1      -6.584  12.165  18.349  0.00  0.00    +0.000 A 
ATOM     14  C   UNL     1      -5.657  12.040  19.389  0.00  0.00    +0.000 A 
ATOM     15  C   UNL     1      -4.293  11.864  19.098  0.00  0.00    +0.000 A 
BRANCH  14  16
ATOM     16  N   UNL     1      -6.092  12.016  20.735  0.00  0.00    +0.000 N 
ATOM     17  C   UNL     1      -5.682  12.791  21.789  0.00  0.00    +0.000 A 
ATOM     18  N   UNL     1      -6.375  12.473  22.858  0.00  0.00    +0.000 NA
ATOM     19  N   UNL     1      -7.244  11.493  22.458  0.00  0.00    +0.000 NA
ATOM     20  N   UNL     1      -7.088  11.212  21.171  0.00  0.00    +0.000 NA
ENDBRANCH  14  16
ENDBRANCH   2  10
BRANCH   6  21
ATOM     21  C   UNL     1      -0.816  12.277  20.587  0.00  0.00    +0.000 C 
BRANCH  21  22
ATOM     22  C   UNL     1      -0.260  11.137  21.402  0.00  0.00    +0.000 A 
ATOM     23  C   UNL     1       0.906  10.491  20.953  0.00  0.00    +0.000 A 
ATOM     24  C   UNL     1       1.480   9.453  21.685  0.00  0.00    +0.000 A 
ATOM     25  C   UNL     1       0.917   9.060  22.894  0.00  0.00    +0.000 A 
ATOM     26  C   UNL     1      -0.221   9.707  23.373  0.00  0.00    +0.000 A 
ATOM     27  C   UNL     1      -0.823  10.737  22.633  0.00  0.00    +0.000 A 
BRANCH  27  28
ATOM     28  C   UNL     1      -1.987  11.370  23.188  0.00  0.00    +0.000 C 
ATOM     29  N   UNL     1      -2.936  11.899  23.606  0.00  0.00    +0.000 NA
ENDBRANCH  27  28
ENDBRANCH  21  22
ENDBRANCH   6  21
TORSDOF 5
ENDMDL
