MODEL 1
REMARK VINA RESULT:      -7.9      0.000      0.000
REMARK  Name = 
REMARK  5 active torsions:
REMARK  status: ('A' for Active; 'I' for Inactive)
REMARK    1  A    between atoms: C_4  and  C_5
REMARK    2  A    between atoms: C_11  and  C_12
REMARK    3  A    between atoms: N_19  and  C_20
REMARK    4  A    between atoms: C_20  and  C_21
REMARK    5  A    between atoms: C_21  and  O_22
REMARK                            x       y       z     vdW  Elec       q    Type
REMARK                         _______ _______ _______ _____ _____    ______ ____
ROOT
ATOM      1  O   UNL     1       0.202   9.004  21.982  0.00  0.00    +0.000 OA
ATOM      2  C   UNL     1       0.817   8.379  21.120  0.00  0.00    +0.000 A 
ATOM      3  N   UNL     1       0.922   7.018  21.203  0.00  0.00    +0.000 NA
ATOM      4  C   UNL     1       1.594   6.349  20.318  0.00  0.00    +0.000 A 
ATOM      5  C   UNL     1       2.230   7.073  19.136  0.00  0.00    +0.000 A 
ATOM      6  N   UNL     1       2.138   8.370  19.058  0.00  0.00    +0.000 NA
ATOM      7  N   UNL     1       1.435   9.032  20.048  0.00  0.00    +0.000 N 
ENDROOT
BRANCH   4   8
ATOM      8  C   UNL     1       1.697   4.875  20.540  0.00  0.00    +0.000 A 
ATOM      9  C   UNL     1       0.791   4.033  19.877  0.00  0.00    +0.000 A 
ATOM     10  C   UNL     1       0.877   2.646  20.023  0.00  0.00    +0.000 A 
ATOM     11  C   UNL     1       1.877   2.086  20.816  0.00  0.00    +0.000 A 
ATOM     12  C   UNL     1       2.756   2.916  21.508  0.00  0.00    +0.000 A 
ATOM     13  C   UNL     1       2.634   4.305  21.411  0.00  0.00    +0.000 A 
ENDBRANCH   4   8
BRANCH   5  14
ATOM     14  C   UNL     1       3.036   6.371  18.096  0.00  0.00    +0.000 A 
ATOM     15  C   UNL     1       2.889   5.009  17.813  0.00  0.00    +0.000 A 
ATOM     16  C   UNL     1       3.875   4.343  17.077  0.00  0.00    +0.000 A 
ATOM     17  C   UNL     1       4.951   5.052  16.544  0.00  0.00    +0.000 A 
ATOM     18  C   UNL     1       5.021   6.434  16.702  0.00  0.00    +0.000 A 
ATOM     19  C   UNL     1       4.066   7.093  17.477  0.00  0.00    +0.000 A 
ENDBRANCH   5  14
BRANCH   7  20
ATOM     20  C   UNL     1       1.332  10.502  19.920  0.00  0.00    +0.000 C 
BRANCH  20  21
ATOM     21  C   UNL     1       0.825  10.962  18.522  0.00  0.00    +0.000 C 
ATOM     22  C   UNL     1       0.478  12.460  18.473  0.00  0.00    +0.000 C 
ATOM     23  C   UNL     1      -0.838  12.794  19.172  0.00  0.00    +0.000 C 
ATOM     24  C   UNL     1      -1.987  11.992  18.576  0.00  0.00    +0.000 C 
ATOM     25  C   UNL     1      -1.717  10.493  18.664  0.00  0.00    +0.000 C 
ATOM     26  C   UNL     1      -0.375  10.118  18.038  0.00  0.00    +0.000 C 
BRANCH  21  27
ATOM     27  O   UNL     1       1.876  10.737  17.563  0.00  0.00    +0.000 OA
ATOM     28  H   UNL     1       2.414  10.011  17.943  0.00  0.00    +0.000 HD
ENDBRANCH  21  27
ENDBRANCH  20  21
ENDBRANCH   7  20
TORSDOF 5
ENDMDL
MODEL 2
REMARK VINA RESULT:      -7.8      2.036      7.579
REMARK  Name = 
REMARK  5 active torsions:
REMARK  status: ('A' for Active; 'I' for Inactive)
REMARK    1  A    between atoms: C_4  and  C_5
REMARK    2  A    between atoms: C_11  and  C_12
REMARK    3  A    between atoms: N_19  and  C_20
REMARK    4  A    between atoms: C_20  and  C_21
REMARK    5  A    between atoms: C_21  and  O_22
REMARK                            x       y       z     vdW  Elec       q    Type
REMARK                         _______ _______ _______ _____ _____    ______ ____
ROOT
ATOM      1  O   UNL     1       3.304   7.045  17.210  0.00  0.00    +0.000 OA
ATOM      2  C   UNL     1       2.675   7.570  18.127  0.00  0.00    +0.000 A 
ATOM      3  N   UNL     1       2.035   8.761  17.925  0.00  0.00    +0.000 NA
ATOM      4  C   UNL     1       1.393   9.342  18.891  0.00  0.00    +0.000 A 
ATOM      5  C   UNL     1       1.298   8.668  20.256  0.00  0.00    +0.000 A 
ATOM      6  N   UNL     1       1.912   7.537  20.454  0.00  0.00    +0.000 NA
ATOM      7  N   UNL     1       2.606   6.981  19.395  0.00  0.00    +0.000 N 
ENDROOT
BRANCH   4   8
ATOM      8  C   UNL     1       0.784  10.670  18.578  0.00  0.00    +0.000 A 
ATOM      9  C   UNL     1      -0.590  10.729  18.303  0.00  0.00    +0.000 A 
ATOM     10  C   UNL     1      -1.210  11.954  18.045  0.00  0.00    +0.000 A 
ATOM     11  C   UNL     1      -0.467  13.134  18.077  0.00  0.00    +0.000 A 
ATOM     12  C   UNL     1       0.905  13.080  18.311  0.00  0.00    +0.000 A 
ATOM     13  C   UNL     1       1.536  11.849  18.510  0.00  0.00    +0.000 A 
ENDBRANCH   4   8
BRANCH   5  14
ATOM     14  C   UNL     1       0.598   9.290  21.418  0.00  0.00    +0.000 A 
ATOM     15  C   UNL     1      -0.168   8.552  22.327  0.00  0.00    +0.000 A 
ATOM     16  C   UNL     1      -1.052   9.214  23.186  0.00  0.00    +0.000 A 
ATOM     17  C   UNL     1      -1.100  10.607  23.206  0.00  0.00    +0.000 A 
ATOM     18  C   UNL     1      -0.233  11.345  22.404  0.00  0.00    +0.000 A 
ATOM     19  C   UNL     1       0.615  10.689  21.511  0.00  0.00    +0.000 A 
ENDBRANCH   5  14
BRANCH   7  20
ATOM     20  C   UNL     1       3.277   5.687  19.645  0.00  0.00    +0.000 C 
BRANCH  20  21
ATOM     21  C   UNL     1       2.287   4.487  19.714  0.00  0.00    +0.000 C 
ATOM     22  C   UNL     1       2.932   3.210  20.280  0.00  0.00    +0.000 C 
ATOM     23  C   UNL     1       3.862   2.517  19.287  0.00  0.00    +0.000 C 
ATOM     24  C   UNL     1       3.125   2.179  17.998  0.00  0.00    +0.000 C 
ATOM     25  C   UNL     1       2.524   3.429  17.363  0.00  0.00    +0.000 C 
ATOM     26  C   UNL     1       1.638   4.197  18.343  0.00  0.00    +0.000 C 
BRANCH  21  27
ATOM     27  O   UNL     1       1.204   4.843  20.594  0.00  0.00    +0.000 OA
ATOM     28  H   UNL     1       0.426   4.950  20.007  0.00  0.00    +0.000 HD
ENDBRANCH  21  27
ENDBRANCH  20  21
ENDBRANCH   7  20
TORSDOF 5
ENDMDL
MODEL 3
REMARK VINA RESULT:      -7.7      2.145      7.250
REMARK  Name = 
REMARK  5 active torsions:
REMARK  status: ('A' for Active; 'I' for Inactive)
REMARK    1  A    between atoms: C_4  and  C_5
REMARK    2  A    between atoms: C_11  and  C_12
REMARK    3  A    between atoms: N_19  and  C_20
REMARK    4  A    between atoms: C_20  and  C_21
REMARK    5  A    between atoms: C_21  and  O_22
REMARK                            x       y       z     vdW  Elec       q    Type
REMARK                         _______ _______ _______ _____ _____    ______ ____
ROOT
ATOM      1  O   UNL     1       3.906   7.036  16.743  0.00  0.00    +0.000 OA
ATOM      2  C   UNL     1       3.229   7.359  17.717  0.00  0.00    +0.000 A 
ATOM      3  N   UNL     1       2.474   8.498  17.679  0.00  0.00    +0.000 NA
ATOM      4  C   UNL     1       1.778   8.868  18.709  0.00  0.00    +0.000 A 
ATOM      5  C   UNL     1       1.752   7.999  19.963  0.00  0.00    +0.000 A 
ATOM      6  N   UNL     1       2.476   6.918  20.005  0.00  0.00    +0.000 NA
ATOM      7  N   UNL     1       3.221   6.591  18.887  0.00  0.00    +0.000 N 
ENDROOT
BRANCH   4   8
ATOM      8  C   UNL     1       1.039  10.160  18.581  0.00  0.00    +0.000 A 
ATOM      9  C   UNL     1      -0.329  10.123  18.277  0.00  0.00    +0.000 A 
ATOM     10  C   UNL     1      -1.069  11.306  18.188  0.00  0.00    +0.000 A 
ATOM     11  C   UNL     1      -0.453  12.534  18.419  0.00  0.00    +0.000 A 
ATOM     12  C   UNL     1       0.914  12.584  18.683  0.00  0.00    +0.000 A 
ATOM     13  C   UNL     1       1.667  11.406  18.714  0.00  0.00    +0.000 A 
ENDBRANCH   4   8
BRANCH   5  14
ATOM     14  C   UNL     1       0.994   8.376  21.192  0.00  0.00    +0.000 A 
ATOM     15  C   UNL     1      -0.396   8.260  21.293  0.00  0.00    +0.000 A 
ATOM     16  C   UNL     1      -1.075   8.921  22.322  0.00  0.00    +0.000 A 
ATOM     17  C   UNL     1      -0.362   9.611  23.302  0.00  0.00    +0.000 A 
ATOM     18  C   UNL     1       1.031   9.604  23.284  0.00  0.00    +0.000 A 
ATOM     19  C   UNL     1       1.709   8.989  22.231  0.00  0.00    +0.000 A 
ENDBRANCH   5  14
BRANCH   7  20
ATOM     20  C   UNL     1       4.017   5.347  18.959  0.00  0.00    +0.000 C 
BRANCH  20  21
ATOM     21  C   UNL     1       3.301   4.123  18.316  0.00  0.00    +0.000 C 
ATOM     22  C   UNL     1       1.767   4.225  18.378  0.00  0.00    +0.000 C 
ATOM     23  C   UNL     1       1.203   3.951  19.769  0.00  0.00    +0.000 C 
ATOM     24  C   UNL     1       1.637   2.579  20.271  0.00  0.00    +0.000 C 
ATOM     25  C   UNL     1       3.156   2.455  20.290  0.00  0.00    +0.000 C 
ATOM     26  C   UNL     1       3.775   2.789  18.933  0.00  0.00    +0.000 C 
BRANCH  21  27
ATOM     27  O   UNL     1       3.668   4.064  16.924  0.00  0.00    +0.000 OA
ATOM     28  H   UNL     1       3.550   3.123  16.671  0.00  0.00    +0.000 HD
ENDBRANCH  21  27
ENDBRANCH  20  21
ENDBRANCH   7  20
TORSDOF 5
ENDMDL
MODEL 4
REMARK VINA RESULT:      -7.7      1.603      4.123
REMARK  Name = 
REMARK  5 active torsions:
REMARK  status: ('A' for Active; 'I' for Inactive)
REMARK    1  A    between atoms: C_4  and  C_5
REMARK    2  A    between atoms: C_11  and  C_12
REMARK    3  A    between atoms: N_19  and  C_20
REMARK    4  A    between atoms: C_20  and  C_21
REMARK    5  A    between atoms: C_21  and  O_22
REMARK                            x       y       z     vdW  Elec       q    Type
REMARK                         _______ _______ _______ _____ _____    ______ ____
ROOT
ATOM      1  O   UNL     1       1.758  10.024  18.501  0.00  0.00    +0.000 OA
ATOM      2  C   UNL     1       1.790   8.877  18.943  0.00  0.00    +0.000 A 
ATOM      3  N   UNL     1       2.644   7.957  18.402  0.00  0.00    +0.000 NA
ATOM      4  C   UNL     1       2.667   6.736  18.837  0.00  0.00    +0.000 A 
ATOM      5  C   UNL     1       1.772   6.325  20.003  0.00  0.00    +0.000 A 
ATOM      6  N   UNL     1       0.952   7.197  20.516  0.00  0.00    +0.000 NA
ATOM      7  N   UNL     1       0.951   8.475  19.990  0.00  0.00    +0.000 N 
ENDROOT
BRANCH   4   8
ATOM      8  C   UNL     1       3.594   5.798  18.134  0.00  0.00    +0.000 A 
ATOM      9  C   UNL     1       3.055   4.663  17.513  0.00  0.00    +0.000 A 
ATOM     10  C   UNL     1       3.879   3.781  16.809  0.00  0.00    +0.000 A 
ATOM     11  C   UNL     1       5.246   4.034  16.704  0.00  0.00    +0.000 A 
ATOM     12  C   UNL     1       5.796   5.138  17.351  0.00  0.00    +0.000 A 
ATOM     13  C   UNL     1       4.982   5.989  18.105  0.00  0.00    +0.000 A 
ENDBRANCH   4   8
BRANCH   5  14
ATOM     14  C   UNL     1       1.729   4.933  20.538  0.00  0.00    +0.000 A 
ATOM     15  C   UNL     1       2.691   4.427  21.419  0.00  0.00    +0.000 A 
ATOM     16  C   UNL     1       2.785   3.047  21.625  0.00  0.00    +0.000 A 
ATOM     17  C   UNL     1       1.863   2.184  21.033  0.00  0.00    +0.000 A 
ATOM     18  C   UNL     1       0.816   2.701  20.273  0.00  0.00    +0.000 A 
ATOM     19  C   UNL     1       0.749   4.072  20.024  0.00  0.00    +0.000 A 
ENDBRANCH   5  14
BRANCH   7  20
ATOM     20  C   UNL     1       0.022   9.447  20.606  0.00  0.00    +0.000 C 
BRANCH  20  21
ATOM     21  C   UNL     1       0.604  10.131  21.878  0.00  0.00    +0.000 C 
ATOM     22  C   UNL     1      -0.371  10.114  23.067  0.00  0.00    +0.000 C 
ATOM     23  C   UNL     1      -1.509  11.121  22.924  0.00  0.00    +0.000 C 
ATOM     24  C   UNL     1      -0.965  12.532  22.740  0.00  0.00    +0.000 C 
ATOM     25  C   UNL     1      -0.043  12.612  21.528  0.00  0.00    +0.000 C 
ATOM     26  C   UNL     1       1.076  11.573  21.592  0.00  0.00    +0.000 C 
BRANCH  21  27
ATOM     27  O   UNL     1       1.782   9.405  22.282  0.00  0.00    +0.000 OA
ATOM     28  H   UNL     1       1.443   8.587  22.702  0.00  0.00    +0.000 HD
ENDBRANCH  21  27
ENDBRANCH  20  21
ENDBRANCH   7  20
TORSDOF 5
ENDMDL
MODEL 5
REMARK VINA RESULT:      -7.7      1.629      4.253
REMARK  Name = 
REMARK  5 active torsions:
REMARK  status: ('A' for Active; 'I' for Inactive)
REMARK    1  A    between atoms: C_4  and  C_5
REMARK    2  A    between atoms: C_11  and  C_12
REMARK    3  A    between atoms: N_19  and  C_20
REMARK    4  A    between atoms: C_20  and  C_21
REMARK    5  A    between atoms: C_21  and  O_22
REMARK                            x       y       z     vdW  Elec       q    Type
REMARK                         _______ _______ _______ _____ _____    ______ ____
ROOT
ATOM      1  O   UNL     1       1.670  10.163  18.157  0.00  0.00    +0.000 OA
ATOM      2  C   UNL     1       1.850   9.032  18.605  0.00  0.00    +0.000 A 
ATOM      3  N   UNL     1       2.741   8.189  18.003  0.00  0.00    +0.000 NA
ATOM      4  C   UNL     1       2.919   6.983  18.446  0.00  0.00    +0.000 A 
ATOM      5  C   UNL     1       2.169   6.509  19.687  0.00  0.00    +0.000 A 
ATOM      6  N   UNL     1       1.313   7.307  20.259  0.00  0.00    +0.000 NA
ATOM      7  N   UNL     1       1.145   8.571  19.723  0.00  0.00    +0.000 N 
ENDROOT
BRANCH   4   8
ATOM      8  C   UNL     1       3.870   6.127  17.675  0.00  0.00    +0.000 A 
ATOM      9  C   UNL     1       5.152   6.626  17.403  0.00  0.00    +0.000 A 
ATOM     10  C   UNL     1       6.088   5.844  16.721  0.00  0.00    +0.000 A 
ATOM     11  C   UNL     1       5.758   4.550  16.320  0.00  0.00    +0.000 A 
ATOM     12  C   UNL     1       4.475   4.060  16.552  0.00  0.00    +0.000 A 
ATOM     13  C   UNL     1       3.519   4.864  17.181  0.00  0.00    +0.000 A 
ENDBRANCH   4   8
BRANCH   5  14
ATOM     14  C   UNL     1       2.306   5.129  20.236  0.00  0.00    +0.000 A 
ATOM     15  C   UNL     1       3.537   4.474  20.346  0.00  0.00    +0.000 A 
ATOM     16  C   UNL     1       3.570   3.091  20.555  0.00  0.00    +0.000 A 
ATOM     17  C   UNL     1       2.385   2.382  20.751  0.00  0.00    +0.000 A 
ATOM     18  C   UNL     1       1.168   3.059  20.787  0.00  0.00    +0.000 A 
ATOM     19  C   UNL     1       1.126   4.429  20.530  0.00  0.00    +0.000 A 
ENDBRANCH   5  14
BRANCH   7  20
ATOM     20  C   UNL     1       0.180   9.460  20.406  0.00  0.00    +0.000 C 
BRANCH  20  21
ATOM     21  C   UNL     1       0.763  10.126  21.688  0.00  0.00    +0.000 C 
ATOM     22  C   UNL     1      -0.194  10.052  22.889  0.00  0.00    +0.000 C 
ATOM     23  C   UNL     1      -1.361  11.031  22.789  0.00  0.00    +0.000 C 
ATOM     24  C   UNL     1      -0.858  12.460  22.634  0.00  0.00    +0.000 C 
ATOM     25  C   UNL     1       0.044  12.597  21.412  0.00  0.00    +0.000 C 
ATOM     26  C   UNL     1       1.191  11.588  21.433  0.00  0.00    +0.000 C 
BRANCH  21  27
ATOM     27  O   UNL     1       1.965   9.423  22.056  0.00  0.00    +0.000 OA
ATOM     28  H   UNL     1       2.698   9.980  21.718  0.00  0.00    +0.000 HD
ENDBRANCH  21  27
ENDBRANCH  20  21
ENDBRANCH   7  20
TORSDOF 5
ENDMDL
MODEL 6
REMARK VINA RESULT:      -7.6      2.034      7.518
REMARK  Name = 
REMARK  5 active torsions:
REMARK  status: ('A' for Active; 'I' for Inactive)
REMARK    1  A    between atoms: C_4  and  C_5
REMARK    2  A    between atoms: C_11  and  C_12
REMARK    3  A    between atoms: N_19  and  C_20
REMARK    4  A    between atoms: C_20  and  C_21
REMARK    5  A    between atoms: C_21  and  O_22
REMARK                            x       y       z     vdW  Elec       q    Type
REMARK                         _______ _______ _______ _____ _____    ______ ____
ROOT
ATOM      1  O   UNL     1       3.412   7.375  16.902  0.00  0.00    +0.000 OA
ATOM      2  C   UNL     1       2.774   7.822  17.853  0.00  0.00    +0.000 A 
ATOM      3  N   UNL     1       2.122   9.018  17.740  0.00  0.00    +0.000 NA
ATOM      4  C   UNL     1       1.471   9.517  18.744  0.00  0.00    +0.000 A 
ATOM      5  C   UNL     1       1.380   8.742  20.055  0.00  0.00    +0.000 A 
ATOM      6  N   UNL     1       2.006   7.606  20.168  0.00  0.00    +0.000 NA
ATOM      7  N   UNL     1       2.709   7.139  19.073  0.00  0.00    +0.000 N 
ENDROOT
BRANCH   4   8
ATOM      8  C   UNL     1       0.847  10.858  18.530  0.00  0.00    +0.000 A 
ATOM      9  C   UNL     1      -0.533  10.925  18.292  0.00  0.00    +0.000 A 
ATOM     10  C   UNL     1      -1.165  12.161  18.126  0.00  0.00    +0.000 A 
ATOM     11  C   UNL     1      -0.428  13.340  18.215  0.00  0.00    +0.000 A 
ATOM     12  C   UNL     1       0.949  13.282  18.412  0.00  0.00    +0.000 A 
ATOM     13  C   UNL     1       1.592  12.045  18.518  0.00  0.00    +0.000 A 
ENDBRANCH   4   8
BRANCH   5  14
ATOM     14  C   UNL     1       0.669   9.266  21.257  0.00  0.00    +0.000 A 
ATOM     15  C   UNL     1      -0.108   8.457  22.093  0.00  0.00    +0.000 A 
ATOM     16  C   UNL     1      -1.000   9.048  22.995  0.00  0.00    +0.000 A 
ATOM     17  C   UNL     1      -1.044  10.435  23.132  0.00  0.00    +0.000 A 
ATOM     18  C   UNL     1      -0.166  11.234  22.404  0.00  0.00    +0.000 A 
ATOM     19  C   UNL     1       0.688  10.653  21.467  0.00  0.00    +0.000 A 
ENDBRANCH   5  14
BRANCH   7  20
ATOM     20  C   UNL     1       3.394   5.837  19.228  0.00  0.00    +0.000 C 
BRANCH  20  21
ATOM     21  C   UNL     1       2.451   4.618  19.004  0.00  0.00    +0.000 C 
ATOM     22  C   UNL     1       1.417   4.446  20.129  0.00  0.00    +0.000 C 
ATOM     23  C   UNL     1       2.015   3.875  21.412  0.00  0.00    +0.000 C 
ATOM     24  C   UNL     1       2.697   2.539  21.145  0.00  0.00    +0.000 C 
ATOM     25  C   UNL     1       3.779   2.675  20.081  0.00  0.00    +0.000 C 
ATOM     26  C   UNL     1       3.243   3.308  18.798  0.00  0.00    +0.000 C 
BRANCH  21  27
ATOM     27  O   UNL     1       1.719   4.832  17.781  0.00  0.00    +0.000 OA
ATOM     28  H   UNL     1       2.272   4.426  17.081  0.00  0.00    +0.000 HD
ENDBRANCH  21  27
ENDBRANCH  20  21
ENDBRANCH   7  20
TORSDOF 5
ENDMDL
MODEL 7
REMARK VINA RESULT:      -7.5      1.448      4.083
REMARK  Name = 
REMARK  5 active torsions:
REMARK  status: ('A' for Active; 'I' for Inactive)
REMARK    1  A    between atoms: C_4  and  C_5
REMARK    2  A    between atoms: C_11  and  C_12
REMARK    3  A    between atoms: N_19  and  C_20
REMARK    4  A    between atoms: C_20  and  C_21
REMARK    5  A    between atoms: C_21  and  O_22
REMARK                            x       y       z     vdW  Elec       q    Type
REMARK                         _______ _______ _______ _____ _____    ______ ____
ROOT
ATOM      1  O   UNL     1       2.565  10.355  17.557  0.00  0.00    +0.000 OA
ATOM      2  C   UNL     1       2.512   9.206  17.991  0.00  0.00    +0.000 A 
ATOM      3  N   UNL     1       3.486   8.304  17.666  0.00  0.00    +0.000 NA
ATOM      4  C   UNL     1       3.427   7.080  18.091  0.00  0.00    +0.000 A 
ATOM      5  C   UNL     1       2.290   6.648  19.011  0.00  0.00    +0.000 A 
ATOM      6  N   UNL     1       1.356   7.502  19.317  0.00  0.00    +0.000 NA
ATOM      7  N   UNL     1       1.457   8.784  18.808  0.00  0.00    +0.000 N 
ENDROOT
BRANCH   4   8
ATOM      8  C   UNL     1       4.510   6.163  17.625  0.00  0.00    +0.000 A 
ATOM      9  C   UNL     1       4.724   6.024  16.246  0.00  0.00    +0.000 A 
ATOM     10  C   UNL     1       5.753   5.209  15.767  0.00  0.00    +0.000 A 
ATOM     11  C   UNL     1       6.588   4.539  16.659  0.00  0.00    +0.000 A 
ATOM     12  C   UNL     1       6.359   4.640  18.029  0.00  0.00    +0.000 A 
ATOM     13  C   UNL     1       5.293   5.408  18.509  0.00  0.00    +0.000 A 
ENDBRANCH   4   8
BRANCH   5  14
ATOM     14  C   UNL     1       2.146   5.251  19.518  0.00  0.00    +0.000 A 
ATOM     15  C   UNL     1       1.634   4.210  18.737  0.00  0.00    +0.000 A 
ATOM     16  C   UNL     1       1.222   3.022  19.351  0.00  0.00    +0.000 A 
ATOM     17  C   UNL     1       1.410   2.837  20.720  0.00  0.00    +0.000 A 
ATOM     18  C   UNL     1       2.054   3.818  21.472  0.00  0.00    +0.000 A 
ATOM     19  C   UNL     1       2.421   5.023  20.874  0.00  0.00    +0.000 A 
ENDBRANCH   5  14
BRANCH   7  20
ATOM     20  C   UNL     1       0.391   9.736  19.189  0.00  0.00    +0.000 C 
BRANCH  20  21
ATOM     21  C   UNL     1       0.597  10.353  20.604  0.00  0.00    +0.000 C 
ATOM     22  C   UNL     1      -0.726  10.608  21.345  0.00  0.00    +0.000 C 
ATOM     23  C   UNL     1      -1.486  11.821  20.817  0.00  0.00    +0.000 C 
ATOM     24  C   UNL     1      -0.623  13.074  20.884  0.00  0.00    +0.000 C 
ATOM     25  C   UNL     1       0.675  12.892  20.104  0.00  0.00    +0.000 C 
ATOM     26  C   UNL     1       1.439  11.647  20.551  0.00  0.00    +0.000 C 
BRANCH  21  27
ATOM     27  O   UNL     1       1.358   9.422  21.397  0.00  0.00    +0.000 OA
ATOM     28  H   UNL     1       1.101   9.610  22.325  0.00  0.00    +0.000 HD
ENDBRANCH  21  27
ENDBRANCH  20  21
ENDBRANCH   7  20
TORSDOF 5
ENDMDL
MODEL 8
REMARK VINA RESULT:      -7.5      1.589      4.256
REMARK  Name = 
REMARK  5 active torsions:
REMARK  status: ('A' for Active; 'I' for Inactive)
REMARK    1  A    between atoms: C_4  and  C_5
REMARK    2  A    between atoms: C_11  and  C_12
REMARK    3  A    between atoms: N_19  and  C_20
REMARK    4  A    between atoms: C_20  and  C_21
REMARK    5  A    between atoms: C_21  and  O_22
REMARK                            x       y       z     vdW  Elec       q    Type
REMARK                         _______ _______ _______ _____ _____    ______ ____
ROOT
ATOM      1  O   UNL     1       2.309  10.291  17.621  0.00  0.00    +0.000 OA
ATOM      2  C   UNL     1       2.284   9.152  18.083  0.00  0.00    +0.000 A 
ATOM      3  N   UNL     1       3.206   8.228  17.677  0.00  0.00    +0.000 NA
ATOM      4  C   UNL     1       3.175   7.014  18.132  0.00  0.00    +0.000 A 
ATOM      5  C   UNL     1       2.134   6.618  19.174  0.00  0.00    +0.000 A 
ATOM      6  N   UNL     1       1.249   7.494  19.557  0.00  0.00    +0.000 NA
ATOM      7  N   UNL     1       1.314   8.763  19.014  0.00  0.00    +0.000 N 
ENDROOT
BRANCH   4   8
ATOM      8  C   UNL     1       4.191   6.070  17.576  0.00  0.00    +0.000 A 
ATOM      9  C   UNL     1       5.534   6.472  17.547  0.00  0.00    +0.000 A 
ATOM     10  C   UNL     1       6.523   5.606  17.073  0.00  0.00    +0.000 A 
ATOM     11  C   UNL     1       6.183   4.326  16.640  0.00  0.00    +0.000 A 
ATOM     12  C   UNL     1       4.847   3.933  16.628  0.00  0.00    +0.000 A 
ATOM     13  C   UNL     1       3.850   4.819  17.047  0.00  0.00    +0.000 A 
ENDBRANCH   4   8
BRANCH   5  14
ATOM     14  C   UNL     1       2.024   5.234  19.722  0.00  0.00    +0.000 A 
ATOM     15  C   UNL     1       1.307   4.218  19.081  0.00  0.00    +0.000 A 
ATOM     16  C   UNL     1       0.968   3.058  19.786  0.00  0.00    +0.000 A 
ATOM     17  C   UNL     1       1.426   2.871  21.090  0.00  0.00    +0.000 A 
ATOM     18  C   UNL     1       2.261   3.818  21.677  0.00  0.00    +0.000 A 
ATOM     19  C   UNL     1       2.560   4.998  20.996  0.00  0.00    +0.000 A 
ENDBRANCH   5  14
BRANCH   7  20
ATOM     20  C   UNL     1       0.308   9.740  19.483  0.00  0.00    +0.000 C 
BRANCH  20  21
ATOM     21  C   UNL     1       0.808  10.613  20.672  0.00  0.00    +0.000 C 
ATOM     22  C   UNL     1       1.266   9.776  21.878  0.00  0.00    +0.000 C 
ATOM     23  C   UNL     1       0.106   9.182  22.672  0.00  0.00    +0.000 C 
ATOM     24  C   UNL     1      -0.842  10.275  23.149  0.00  0.00    +0.000 C 
ATOM     25  C   UNL     1      -1.376  11.091  21.976  0.00  0.00    +0.000 C 
ATOM     26  C   UNL     1      -0.249  11.650  21.109  0.00  0.00    +0.000 C 
BRANCH  21  27
ATOM     27  O   UNL     1       1.946  11.375  20.226  0.00  0.00    +0.000 OA
ATOM     28  H   UNL     1       2.437  10.772  19.628  0.00  0.00    +0.000 HD
ENDBRANCH  21  27
ENDBRANCH  20  21
ENDBRANCH   7  20
TORSDOF 5
ENDMDL
MODEL 9
REMARK VINA RESULT:      -7.5      0.638      1.240
REMARK  Name = 
REMARK  5 active torsions:
REMARK  status: ('A' for Active; 'I' for Inactive)
REMARK    1  A    between atoms: C_4  and  C_5
REMARK    2  A    between atoms: C_11  and  C_12
REMARK    3  A    between atoms: N_19  and  C_20
REMARK    4  A    between atoms: C_20  and  C_21
REMARK    5  A    between atoms: C_21  and  O_22
REMARK                            x       y       z     vdW  Elec       q    Type
REMARK                         _______ _______ _______ _____ _____    ______ ____
ROOT
ATOM      1  O   UNL     1       0.122   9.117  22.046  0.00  0.00    +0.000 OA
ATOM      2  C   UNL     1       0.737   8.502  21.177  0.00  0.00    +0.000 A 
ATOM      3  N   UNL     1       0.833   7.140  21.238  0.00  0.00    +0.000 NA
ATOM      4  C   UNL     1       1.505   6.481  20.346  0.00  0.00    +0.000 A 
ATOM      5  C   UNL     1       2.153   7.220  19.180  0.00  0.00    +0.000 A 
ATOM      6  N   UNL     1       2.070   8.519  19.122  0.00  0.00    +0.000 NA
ATOM      7  N   UNL     1       1.366   9.169  20.119  0.00  0.00    +0.000 N 
ENDROOT
BRANCH   4   8
ATOM      8  C   UNL     1       1.596   5.002  20.543  0.00  0.00    +0.000 A 
ATOM      9  C   UNL     1       2.611   4.498  21.369  0.00  0.00    +0.000 A 
ATOM     10  C   UNL     1       2.709   3.126  21.614  0.00  0.00    +0.000 A 
ATOM     11  C   UNL     1       1.785   2.247  21.052  0.00  0.00    +0.000 A 
ATOM     12  C   UNL     1       0.798   2.735  20.199  0.00  0.00    +0.000 A 
ATOM     13  C   UNL     1       0.734   4.100  19.906  0.00  0.00    +0.000 A 
ENDBRANCH   4   8
BRANCH   5  14
ATOM     14  C   UNL     1       2.959   6.529  18.132  0.00  0.00    +0.000 A 
ATOM     15  C   UNL     1       2.815   5.170  17.836  0.00  0.00    +0.000 A 
ATOM     16  C   UNL     1       3.803   4.513  17.094  0.00  0.00    +0.000 A 
ATOM     17  C   UNL     1       4.876   5.230  16.566  0.00  0.00    +0.000 A 
ATOM     18  C   UNL     1       4.942   6.611  16.737  0.00  0.00    +0.000 A 
ATOM     19  C   UNL     1       3.987   7.260  17.519  0.00  0.00    +0.000 A 
ENDBRANCH   5  14
BRANCH   7  20
ATOM     20  C   UNL     1       1.274  10.642  20.016  0.00  0.00    +0.000 C 
BRANCH  20  21
ATOM     21  C   UNL     1       0.229  11.118  18.964  0.00  0.00    +0.000 C 
ATOM     22  C   UNL     1       0.450  12.573  18.517  0.00  0.00    +0.000 C 
ATOM     23  C   UNL     1       0.012  13.595  19.563  0.00  0.00    +0.000 C 
ATOM     24  C   UNL     1      -1.452  13.399  19.934  0.00  0.00    +0.000 C 
ATOM     25  C   UNL     1      -1.706  11.986  20.448  0.00  0.00    +0.000 C 
ATOM     26  C   UNL     1      -1.219  10.924  19.463  0.00  0.00    +0.000 C 
BRANCH  21  27
ATOM     27  O   UNL     1       0.356  10.289  17.793  0.00  0.00    +0.000 OA
ATOM     28  H   UNL     1       0.620   9.408  18.134  0.00  0.00    +0.000 HD
ENDBRANCH  21  27
ENDBRANCH  20  21
ENDBRANCH   7  20
TORSDOF 5
ENDMDL
