MODEL 1
REMARK VINA RESULT:      -8.5      0.000      0.000
REMARK  Name = 
REMARK  7 active torsions:
REMARK  status: ('A' for Active; 'I' for Inactive)
REMARK    1  A    between atoms: C_2  and  C_18
REMARK    2  A    between atoms: N_3  and  C_4
REMARK    3  A    between atoms: C_4  and  C_5
REMARK    4  A    between atoms: N_9  and  C_10
REMARK    5  A    between atoms: C_10  and  C_11
REMARK    6  A    between atoms: C_20  and  C_21
REMARK    7  A    between atoms: N_27  and  C_28
REMARK                            x       y       z     vdW  Elec       q    Type
REMARK                         _______ _______ _______ _____ _____    ______ ____
ROOT
ATOM      1  O   UNL     1       0.750   9.053  17.513  0.00  0.00    +0.000 OA
ATOM      2  C   UNL     1       1.773   9.592  17.918  0.00  0.00    +0.000 C 
ATOM      3  N   UNL     1       2.981   8.931  17.922  0.00  0.00    +0.000 N 
ATOM      4  H   UNL     1       3.789   9.391  18.320  0.00  0.00    +0.000 HD
ENDROOT
BRANCH   2   5
ATOM      5  C   UNL     1       1.831  10.933  18.448  0.00  0.00    +0.000 A 
ATOM      6  C   UNL     1       2.375  12.064  17.861  0.00  0.00    +0.000 A 
ATOM      7  C   UNL     1       2.055  13.131  18.713  0.00  0.00    +0.000 A 
ATOM      8  N   UNL     1       1.336  12.730  19.762  0.00  0.00    +0.000 NA
ATOM      9  N   UNL     1       1.253  11.374  19.635  0.00  0.00    +0.000 N 
BRANCH   9  10
ATOM     10  C   UNL     1       0.682  10.622  20.702  0.00  0.00    +0.000 A 
ATOM     11  C   UNL     1      -0.074  11.282  21.680  0.00  0.00    +0.000 A 
ATOM     12  C   UNL     1      -0.690  10.548  22.698  0.00  0.00    +0.000 A 
ATOM     13  C   UNL     1      -0.522   9.166  22.761  0.00  0.00    +0.000 A 
ATOM     14  C   UNL     1       0.267   8.512  21.822  0.00  0.00    +0.000 A 
ATOM     15  C   UNL     1       0.875   9.238  20.794  0.00  0.00    +0.000 A 
ENDBRANCH   9  10
BRANCH   7  16
ATOM     16  C   UNL     1       2.437  14.552  18.478  0.00  0.00    +0.000 A 
ATOM     17  C   UNL     1       1.913  15.656  19.122  0.00  0.00    +0.000 A 
ATOM     18  C   UNL     1       2.555  16.793  18.574  0.00  0.00    +0.000 A 
ATOM     19  C   UNL     1       3.432  16.316  17.630  0.00  0.00    +0.000 A 
ATOM     20  O   UNL     1       3.382  14.961  17.574  0.00  0.00    +0.000 OA
ENDBRANCH   7  16
ENDBRANCH   2   5
BRANCH   3  21
ATOM     21  C   UNL     1       3.096   7.528  17.569  0.00  0.00    +0.000 C 
BRANCH  21  22
ATOM     22  C   UNL     1       4.492   6.971  17.894  0.00  0.00    +0.000 C 
ATOM     23  C   UNL     1       5.219   6.485  16.634  0.00  0.00    +0.000 C 
ATOM     24  C   UNL     1       4.757   5.055  16.505  0.00  0.00    +0.000 C 
ATOM     25  O   UNL     1       4.815   4.389  15.486  0.00  0.00    +0.000 OA
ATOM     26  N   UNL     1       4.334   4.642  17.758  0.00  0.00    +0.000 N 
ATOM     27  C   UNL     1       4.402   5.700  18.737  0.00  0.00    +0.000 C 
BRANCH  26  28
ATOM     28  C   UNL     1       4.097   3.255  18.124  0.00  0.00    +0.000 C 
BRANCH  28  29
ATOM     29  C   UNL     1       3.093   3.100  19.238  0.00  0.00    +0.000 A 
ATOM     30  C   UNL     1       1.727   3.305  18.995  0.00  0.00    +0.000 A 
ATOM     31  C   UNL     1       0.793   3.170  20.024  0.00  0.00    +0.000 A 
ATOM     32  C   UNL     1       1.211   2.811  21.302  0.00  0.00    +0.000 A 
ATOM     33  C   UNL     1       2.562   2.572  21.550  0.00  0.00    +0.000 A 
ATOM     34  C   UNL     1       3.499   2.715  20.524  0.00  0.00    +0.000 A 
ENDBRANCH  28  29
ENDBRANCH  26  28
ENDBRANCH  21  22
ENDBRANCH   3  21
TORSDOF 7
ENDMDL
MODEL 2
REMARK VINA RESULT:      -8.4      0.277      1.200
REMARK  Name = 
REMARK  7 active torsions:
REMARK  status: ('A' for Active; 'I' for Inactive)
REMARK    1  A    between atoms: C_2  and  C_18
REMARK    2  A    between atoms: N_3  and  C_4
REMARK    3  A    between atoms: C_4  and  C_5
REMARK    4  A    between atoms: N_9  and  C_10
REMARK    5  A    between atoms: C_10  and  C_11
REMARK    6  A    between atoms: C_20  and  C_21
REMARK    7  A    between atoms: N_27  and  C_28
REMARK                            x       y       z     vdW  Elec       q    Type
REMARK                         _______ _______ _______ _____ _____    ______ ____
ROOT
ATOM      1  O   UNL     1       0.665   9.099  17.764  0.00  0.00    +0.000 OA
ATOM      2  C   UNL     1       1.709   9.669  18.061  0.00  0.00    +0.000 C 
ATOM      3  N   UNL     1       2.924   9.026  17.985  0.00  0.00    +0.000 N 
ATOM      4  H   UNL     1       3.754   9.512  18.297  0.00  0.00    +0.000 HD
ENDROOT
BRANCH   2   5
ATOM      5  C   UNL     1       1.787  11.028  18.537  0.00  0.00    +0.000 A 
ATOM      6  C   UNL     1       2.327  12.131  17.895  0.00  0.00    +0.000 A 
ATOM      7  C   UNL     1       2.032  13.232  18.713  0.00  0.00    +0.000 A 
ATOM      8  N   UNL     1       1.333  12.878  19.791  0.00  0.00    +0.000 NA
ATOM      9  N   UNL     1       1.238  11.519  19.718  0.00  0.00    +0.000 N 
BRANCH   9  10
ATOM     10  C   UNL     1       0.684  10.813  20.825  0.00  0.00    +0.000 A 
ATOM     11  C   UNL     1       1.217   9.568  21.181  0.00  0.00    +0.000 A 
ATOM     12  C   UNL     1       0.724   8.892  22.301  0.00  0.00    +0.000 A 
ATOM     13  C   UNL     1      -0.322   9.440  23.041  0.00  0.00    +0.000 A 
ATOM     14  C   UNL     1      -0.889  10.651  22.664  0.00  0.00    +0.000 A 
ATOM     15  C   UNL     1      -0.391  11.338  21.553  0.00  0.00    +0.000 A 
ENDBRANCH   9  10
BRANCH   7  16
ATOM     16  C   UNL     1       2.419  14.640  18.415  0.00  0.00    +0.000 A 
ATOM     17  C   UNL     1       1.675  15.770  18.699  0.00  0.00    +0.000 A 
ATOM     18  C   UNL     1       2.420  16.879  18.229  0.00  0.00    +0.000 A 
ATOM     19  C   UNL     1       3.572  16.362  17.687  0.00  0.00    +0.000 A 
ATOM     20  O   UNL     1       3.590  15.010  17.807  0.00  0.00    +0.000 OA
ENDBRANCH   7  16
ENDBRANCH   2   5
BRANCH   3  21
ATOM     21  C   UNL     1       3.034   7.612  17.672  0.00  0.00    +0.000 C 
BRANCH  21  22
ATOM     22  C   UNL     1       4.471   7.097  17.858  0.00  0.00    +0.000 C 
ATOM     23  C   UNL     1       5.066   6.583  16.542  0.00  0.00    +0.000 C 
ATOM     24  C   UNL     1       4.629   5.140  16.513  0.00  0.00    +0.000 C 
ATOM     25  O   UNL     1       4.591   4.439  15.516  0.00  0.00    +0.000 OA
ATOM     26  N   UNL     1       4.358   4.763  17.818  0.00  0.00    +0.000 N 
ATOM     27  C   UNL     1       4.507   5.856  18.747  0.00  0.00    +0.000 C 
BRANCH  26  28
ATOM     28  C   UNL     1       4.197   3.385  18.253  0.00  0.00    +0.000 C 
BRANCH  28  29
ATOM     29  C   UNL     1       3.132   3.217  19.306  0.00  0.00    +0.000 A 
ATOM     30  C   UNL     1       3.468   2.749  20.586  0.00  0.00    +0.000 A 
ATOM     31  C   UNL     1       2.486   2.585  21.563  0.00  0.00    +0.000 A 
ATOM     32  C   UNL     1       1.160   2.901  21.281  0.00  0.00    +0.000 A 
ATOM     33  C   UNL     1       0.817   3.397  20.024  0.00  0.00    +0.000 A 
ATOM     34  C   UNL     1       1.797   3.555  19.042  0.00  0.00    +0.000 A 
ENDBRANCH  28  29
ENDBRANCH  26  28
ENDBRANCH  21  22
ENDBRANCH   3  21
TORSDOF 7
ENDMDL
MODEL 3
REMARK VINA RESULT:      -8.4      3.130      5.366
REMARK  Name = 
REMARK  7 active torsions:
REMARK  status: ('A' for Active; 'I' for Inactive)
REMARK    1  A    between atoms: C_2  and  C_18
REMARK    2  A    between atoms: N_3  and  C_4
REMARK    3  A    between atoms: C_4  and  C_5
REMARK    4  A    between atoms: N_9  and  C_10
REMARK    5  A    between atoms: C_10  and  C_11
REMARK    6  A    between atoms: C_20  and  C_21
REMARK    7  A    between atoms: N_27  and  C_28
REMARK                            x       y       z     vdW  Elec       q    Type
REMARK                         _______ _______ _______ _____ _____    ______ ____
ROOT
ATOM      1  O   UNL     1       2.298   9.546  17.975  0.00  0.00    +0.000 OA
ATOM      2  C   UNL     1       1.325   9.555  18.720  0.00  0.00    +0.000 C 
ATOM      3  N   UNL     1       1.188   8.636  19.736  0.00  0.00    +0.000 N 
ATOM      4  H   UNL     1       0.341   8.641  20.289  0.00  0.00    +0.000 HD
ENDROOT
BRANCH   2   5
ATOM      5  C   UNL     1       0.224  10.483  18.609  0.00  0.00    +0.000 A 
ATOM      6  C   UNL     1      -1.094  10.213  18.283  0.00  0.00    +0.000 A 
ATOM      7  C   UNL     1      -1.785  11.422  18.448  0.00  0.00    +0.000 A 
ATOM      8  N   UNL     1      -0.983  12.399  18.873  0.00  0.00    +0.000 NA
ATOM      9  N   UNL     1       0.261  11.841  18.911  0.00  0.00    +0.000 N 
BRANCH   9  10
ATOM     10  C   UNL     1       1.380  12.685  19.169  0.00  0.00    +0.000 A 
ATOM     11  C   UNL     1       1.713  12.997  20.493  0.00  0.00    +0.000 A 
ATOM     12  C   UNL     1       2.843  13.774  20.764  0.00  0.00    +0.000 A 
ATOM     13  C   UNL     1       3.617  14.269  19.715  0.00  0.00    +0.000 A 
ATOM     14  C   UNL     1       3.263  14.003  18.398  0.00  0.00    +0.000 A 
ATOM     15  C   UNL     1       2.142  13.216  18.121  0.00  0.00    +0.000 A 
ENDBRANCH   9  10
BRANCH   7  16
ATOM     16  C   UNL     1      -3.245  11.607  18.211  0.00  0.00    +0.000 A 
ATOM     17  C   UNL     1      -3.916  11.370  17.026  0.00  0.00    +0.000 A 
ATOM     18  C   UNL     1      -5.276  11.693  17.254  0.00  0.00    +0.000 A 
ATOM     19  C   UNL     1      -5.354  12.108  18.562  0.00  0.00    +0.000 A 
ATOM     20  O   UNL     1      -4.135  12.045  19.156  0.00  0.00    +0.000 OA
ENDBRANCH   7  16
ENDBRANCH   2   5
BRANCH   3  21
ATOM     21  C   UNL     1       2.115   7.533  19.911  0.00  0.00    +0.000 C 
BRANCH  21  22
ATOM     22  C   UNL     1       1.673   6.286  19.128  0.00  0.00    +0.000 C 
ATOM     23  C   UNL     1       1.879   5.001  19.940  0.00  0.00    +0.000 C 
ATOM     24  C   UNL     1       3.299   4.615  19.611  0.00  0.00    +0.000 C 
ATOM     25  O   UNL     1       3.990   3.858  20.271  0.00  0.00    +0.000 OA
ATOM     26  N   UNL     1       3.624   5.218  18.407  0.00  0.00    +0.000 N 
ATOM     27  C   UNL     1       2.559   6.052  17.906  0.00  0.00    +0.000 C 
BRANCH  26  28
ATOM     28  C   UNL     1       4.781   4.864  17.603  0.00  0.00    +0.000 C 
BRANCH  28  29
ATOM     29  C   UNL     1       5.982   5.734  17.877  0.00  0.00    +0.000 A 
ATOM     30  C   UNL     1       6.911   5.369  18.863  0.00  0.00    +0.000 A 
ATOM     31  C   UNL     1       8.020   6.173  19.127  0.00  0.00    +0.000 A 
ATOM     32  C   UNL     1       8.225   7.341  18.398  0.00  0.00    +0.000 A 
ATOM     33  C   UNL     1       7.328   7.698  17.393  0.00  0.00    +0.000 A 
ATOM     34  C   UNL     1       6.212   6.899  17.133  0.00  0.00    +0.000 A 
ENDBRANCH  28  29
ENDBRANCH  26  28
ENDBRANCH  21  22
ENDBRANCH   3  21
TORSDOF 7
ENDMDL
MODEL 4
REMARK VINA RESULT:      -8.3      2.226      8.938
REMARK  Name = 
REMARK  7 active torsions:
REMARK  status: ('A' for Active; 'I' for Inactive)
REMARK    1  A    between atoms: C_2  and  C_18
REMARK    2  A    between atoms: N_3  and  C_4
REMARK    3  A    between atoms: C_4  and  C_5
REMARK    4  A    between atoms: N_9  and  C_10
REMARK    5  A    between atoms: C_10  and  C_11
REMARK    6  A    between atoms: C_20  and  C_21
REMARK    7  A    between atoms: N_27  and  C_28
REMARK                            x       y       z     vdW  Elec       q    Type
REMARK                         _______ _______ _______ _____ _____    ______ ____
ROOT
ATOM      1  O   UNL     1       2.245   7.604  19.749  0.00  0.00    +0.000 OA
ATOM      2  C   UNL     1       2.612   7.689  18.582  0.00  0.00    +0.000 C 
ATOM      3  N   UNL     1       2.355   8.813  17.829  0.00  0.00    +0.000 N 
ATOM      4  H   UNL     1       2.621   8.819  16.854  0.00  0.00    +0.000 HD
ENDROOT
BRANCH   2   5
ATOM      5  C   UNL     1       3.310   6.647  17.870  0.00  0.00    +0.000 A 
ATOM      6  C   UNL     1       4.149   6.771  16.774  0.00  0.00    +0.000 A 
ATOM      7  C   UNL     1       4.679   5.492  16.550  0.00  0.00    +0.000 A 
ATOM      8  N   UNL     1       4.239   4.607  17.445  0.00  0.00    +0.000 NA
ATOM      9  N   UNL     1       3.350   5.299  18.215  0.00  0.00    +0.000 N 
BRANCH   9  10
ATOM     10  C   UNL     1       2.573   4.582  19.171  0.00  0.00    +0.000 A 
ATOM     11  C   UNL     1       1.427   3.896  18.748  0.00  0.00    +0.000 A 
ATOM     12  C   UNL     1       0.689   3.140  19.663  0.00  0.00    +0.000 A 
ATOM     13  C   UNL     1       1.072   3.099  21.003  0.00  0.00    +0.000 A 
ATOM     14  C   UNL     1       2.179   3.817  21.438  0.00  0.00    +0.000 A 
ATOM     15  C   UNL     1       2.928   4.564  20.525  0.00  0.00    +0.000 A 
ENDBRANCH   9  10
BRANCH   7  16
ATOM     16  C   UNL     1       5.641   5.149  15.465  0.00  0.00    +0.000 A 
ATOM     17  C   UNL     1       5.439   4.227  14.456  0.00  0.00    +0.000 A 
ATOM     18  C   UNL     1       6.616   4.218  13.668  0.00  0.00    +0.000 A 
ATOM     19  C   UNL     1       7.465   5.133  14.242  0.00  0.00    +0.000 A 
ATOM     20  O   UNL     1       6.880   5.714  15.321  0.00  0.00    +0.000 OA
ENDBRANCH   7  16
ENDBRANCH   2   5
BRANCH   3  21
ATOM     21  C   UNL     1       1.535   9.905  18.323  0.00  0.00    +0.000 C 
BRANCH  21  22
ATOM     22  C   UNL     1       0.129   9.428  18.721  0.00  0.00    +0.000 C 
ATOM     23  C   UNL     1      -0.924   9.819  17.676  0.00  0.00    +0.000 C 
ATOM     24  C   UNL     1      -1.344  11.198  18.118  0.00  0.00    +0.000 C 
ATOM     25  O   UNL     1      -1.908  12.017  17.413  0.00  0.00    +0.000 OA
ATOM     26  N   UNL     1      -1.035  11.315  19.463  0.00  0.00    +0.000 N 
ATOM     27  C   UNL     1      -0.367  10.144  19.977  0.00  0.00    +0.000 C 
BRANCH  26  28
ATOM     28  C   UNL     1      -1.544  12.365  20.329  0.00  0.00    +0.000 C 
BRANCH  28  29
ATOM     29  C   UNL     1      -0.583  13.516  20.493  0.00  0.00    +0.000 A 
ATOM     30  C   UNL     1       0.220  13.610  21.639  0.00  0.00    +0.000 A 
ATOM     31  C   UNL     1       1.107  14.676  21.800  0.00  0.00    +0.000 A 
ATOM     32  C   UNL     1       1.215  15.649  20.811  0.00  0.00    +0.000 A 
ATOM     33  C   UNL     1       0.447  15.550  19.652  0.00  0.00    +0.000 A 
ATOM     34  C   UNL     1      -0.447  14.489  19.493  0.00  0.00    +0.000 A 
ENDBRANCH  28  29
ENDBRANCH  26  28
ENDBRANCH  21  22
ENDBRANCH   3  21
TORSDOF 7
ENDMDL
MODEL 5
REMARK VINA RESULT:      -8.3      3.029      5.280
REMARK  Name = 
REMARK  7 active torsions:
REMARK  status: ('A' for Active; 'I' for Inactive)
REMARK    1  A    between atoms: C_2  and  C_18
REMARK    2  A    between atoms: N_3  and  C_4
REMARK    3  A    between atoms: C_4  and  C_5
REMARK    4  A    between atoms: N_9  and  C_10
REMARK    5  A    between atoms: C_10  and  C_11
REMARK    6  A    between atoms: C_20  and  C_21
REMARK    7  A    between atoms: N_27  and  C_28
REMARK                            x       y       z     vdW  Elec       q    Type
REMARK                         _______ _______ _______ _____ _____    ______ ____
ROOT
ATOM      1  O   UNL     1       2.387   9.542  17.939  0.00  0.00    +0.000 OA
ATOM      2  C   UNL     1       1.402   9.547  18.667  0.00  0.00    +0.000 C 
ATOM      3  N   UNL     1       1.244   8.616  19.669  0.00  0.00    +0.000 N 
ATOM      4  H   UNL     1       0.388   8.617  20.208  0.00  0.00    +0.000 HD
ENDROOT
BRANCH   2   5
ATOM      5  C   UNL     1       0.307  10.481  18.551  0.00  0.00    +0.000 A 
ATOM      6  C   UNL     1      -1.005  10.222  18.192  0.00  0.00    +0.000 A 
ATOM      7  C   UNL     1      -1.695  11.431  18.364  0.00  0.00    +0.000 A 
ATOM      8  N   UNL     1      -0.899  12.397  18.824  0.00  0.00    +0.000 NA
ATOM      9  N   UNL     1       0.343  11.834  18.877  0.00  0.00    +0.000 N 
BRANCH   9  10
ATOM     10  C   UNL     1       1.459  12.668  19.175  0.00  0.00    +0.000 A 
ATOM     11  C   UNL     1       2.228  13.186  18.125  0.00  0.00    +0.000 A 
ATOM     12  C   UNL     1       3.289  14.055  18.400  0.00  0.00    +0.000 A 
ATOM     13  C   UNL     1       3.604  14.374  19.719  0.00  0.00    +0.000 A 
ATOM     14  C   UNL     1       2.876  13.824  20.767  0.00  0.00    +0.000 A 
ATOM     15  C   UNL     1       1.806  12.966  20.498  0.00  0.00    +0.000 A 
ENDBRANCH   9  10
BRANCH   7  16
ATOM     16  C   UNL     1      -3.148  11.626  18.099  0.00  0.00    +0.000 A 
ATOM     17  C   UNL     1      -4.113  11.949  19.034  0.00  0.00    +0.000 A 
ATOM     18  C   UNL     1      -5.347  12.018  18.342  0.00  0.00    +0.000 A 
ATOM     19  C   UNL     1      -5.062  11.734  17.028  0.00  0.00    +0.000 A 
ATOM     20  O   UNL     1      -3.733  11.511  16.865  0.00  0.00    +0.000 OA
ENDBRANCH   7  16
ENDBRANCH   2   5
BRANCH   3  21
ATOM     21  C   UNL     1       2.163   7.506  19.846  0.00  0.00    +0.000 C 
BRANCH  21  22
ATOM     22  C   UNL     1       1.727   6.270  19.042  0.00  0.00    +0.000 C 
ATOM     23  C   UNL     1       1.887   4.977  19.852  0.00  0.00    +0.000 C 
ATOM     24  C   UNL     1       3.311   4.571  19.567  0.00  0.00    +0.000 C 
ATOM     25  O   UNL     1       3.968   3.801  20.244  0.00  0.00    +0.000 OA
ATOM     26  N   UNL     1       3.684   5.176  18.377  0.00  0.00    +0.000 N 
ATOM     27  C   UNL     1       2.649   6.029  17.847  0.00  0.00    +0.000 C 
BRANCH  26  28
ATOM     28  C   UNL     1       4.862   4.808  17.609  0.00  0.00    +0.000 C 
BRANCH  28  29
ATOM     29  C   UNL     1       6.053   5.687  17.893  0.00  0.00    +0.000 A 
ATOM     30  C   UNL     1       6.275   6.846  17.133  0.00  0.00    +0.000 A 
ATOM     31  C   UNL     1       7.380   7.660  17.386  0.00  0.00    +0.000 A 
ATOM     32  C   UNL     1       8.265   7.338  18.410  0.00  0.00    +0.000 A 
ATOM     33  C   UNL     1       8.038   6.208  19.194  0.00  0.00    +0.000 A 
ATOM     34  C   UNL     1       6.938   5.387  18.938  0.00  0.00    +0.000 A 
ENDBRANCH  28  29
ENDBRANCH  26  28
ENDBRANCH  21  22
ENDBRANCH   3  21
TORSDOF 7
ENDMDL
MODEL 6
REMARK VINA RESULT:      -8.3      3.078      8.964
REMARK  Name = 
REMARK  7 active torsions:
REMARK  status: ('A' for Active; 'I' for Inactive)
REMARK    1  A    between atoms: C_2  and  C_18
REMARK    2  A    between atoms: N_3  and  C_4
REMARK    3  A    between atoms: C_4  and  C_5
REMARK    4  A    between atoms: N_9  and  C_10
REMARK    5  A    between atoms: C_10  and  C_11
REMARK    6  A    between atoms: C_20  and  C_21
REMARK    7  A    between atoms: N_27  and  C_28
REMARK                            x       y       z     vdW  Elec       q    Type
REMARK                         _______ _______ _______ _____ _____    ______ ____
ROOT
ATOM      1  O   UNL     1       3.767   6.441  19.418  0.00  0.00    +0.000 OA
ATOM      2  C   UNL     1       3.746   6.675  18.215  0.00  0.00    +0.000 C 
ATOM      3  N   UNL     1       3.156   7.814  17.715  0.00  0.00    +0.000 N 
ATOM      4  H   UNL     1       3.107   7.939  16.712  0.00  0.00    +0.000 HD
ENDROOT
BRANCH   2   5
ATOM      5  C   UNL     1       4.295   5.801  17.206  0.00  0.00    +0.000 A 
ATOM      6  C   UNL     1       5.095   6.135  16.126  0.00  0.00    +0.000 A 
ATOM      7  C   UNL     1       5.470   4.919  15.536  0.00  0.00    +0.000 A 
ATOM      8  N   UNL     1       4.974   3.872  16.196  0.00  0.00    +0.000 NA
ATOM      9  N   UNL     1       4.200   4.412  17.182  0.00  0.00    +0.000 N 
BRANCH   9  10
ATOM     10  C   UNL     1       3.390   3.542  17.967  0.00  0.00    +0.000 A 
ATOM     11  C   UNL     1       3.969   2.837  19.029  0.00  0.00    +0.000 A 
ATOM     12  C   UNL     1       3.174   2.027  19.846  0.00  0.00    +0.000 A 
ATOM     13  C   UNL     1       1.812   1.892  19.579  0.00  0.00    +0.000 A 
ATOM     14  C   UNL     1       1.241   2.551  18.497  0.00  0.00    +0.000 A 
ATOM     15  C   UNL     1       2.029   3.372  17.685  0.00  0.00    +0.000 A 
ENDBRANCH   9  10
BRANCH   7  16
ATOM     16  C   UNL     1       6.342   4.790  14.334  0.00  0.00    +0.000 A 
ATOM     17  C   UNL     1       6.152   3.921  13.277  0.00  0.00    +0.000 A 
ATOM     18  C   UNL     1       7.223   4.132  12.375  0.00  0.00    +0.000 A 
ATOM     19  C   UNL     1       8.003   5.116  12.935  0.00  0.00    +0.000 A 
ATOM     20  O   UNL     1       7.472   5.532  14.113  0.00  0.00    +0.000 OA
ENDBRANCH   7  16
ENDBRANCH   2   5
BRANCH   3  21
ATOM     21  C   UNL     1       2.421   8.739  18.558  0.00  0.00    +0.000 C 
BRANCH  21  22
ATOM     22  C   UNL     1       1.822   9.899  17.745  0.00  0.00    +0.000 C 
ATOM     23  C   UNL     1       2.123  11.259  18.387  0.00  0.00    +0.000 C 
ATOM     24  C   UNL     1       0.978  11.439  19.352  0.00  0.00    +0.000 C 
ATOM     25  O   UNL     1       0.975  12.206  20.299  0.00  0.00    +0.000 OA
ATOM     26  N   UNL     1      -0.063  10.636  18.915  0.00  0.00    +0.000 N 
ATOM     27  C   UNL     1       0.295   9.856  17.756  0.00  0.00    +0.000 C 
BRANCH  26  28
ATOM     28  C   UNL     1      -1.432  10.745  19.391  0.00  0.00    +0.000 C 
BRANCH  28  29
ATOM     29  C   UNL     1      -2.442  10.824  18.274  0.00  0.00    +0.000 A 
ATOM     30  C   UNL     1      -2.268  10.067  17.106  0.00  0.00    +0.000 A 
ATOM     31  C   UNL     1      -3.196  10.142  16.066  0.00  0.00    +0.000 A 
ATOM     32  C   UNL     1      -4.316  10.959  16.187  0.00  0.00    +0.000 A 
ATOM     33  C   UNL     1      -4.518  11.691  17.356  0.00  0.00    +0.000 A 
ATOM     34  C   UNL     1      -3.587  11.625  18.394  0.00  0.00    +0.000 A 
ENDBRANCH  28  29
ENDBRANCH  26  28
ENDBRANCH  21  22
ENDBRANCH   3  21
TORSDOF 7
ENDMDL
MODEL 7
REMARK VINA RESULT:      -8.3      4.081      9.356
REMARK  Name = 
REMARK  7 active torsions:
REMARK  status: ('A' for Active; 'I' for Inactive)
REMARK    1  A    between atoms: C_2  and  C_18
REMARK    2  A    between atoms: N_3  and  C_4
REMARK    3  A    between atoms: C_4  and  C_5
REMARK    4  A    between atoms: N_9  and  C_10
REMARK    5  A    between atoms: C_10  and  C_11
REMARK    6  A    between atoms: C_20  and  C_21
REMARK    7  A    between atoms: N_27  and  C_28
REMARK                            x       y       z     vdW  Elec       q    Type
REMARK                         _______ _______ _______ _____ _____    ______ ____
ROOT
ATOM      1  O   UNL     1       0.423   9.789  23.609  0.00  0.00    +0.000 OA
ATOM      2  C   UNL     1       0.119   9.993  22.439  0.00  0.00    +0.000 C 
ATOM      3  N   UNL     1      -0.935  10.813  22.104  0.00  0.00    +0.000 N 
ATOM      4  H   UNL     1      -1.191  10.907  21.130  0.00  0.00    +0.000 HD
ENDROOT
BRANCH   2   5
ATOM      5  C   UNL     1       0.787   9.397  21.308  0.00  0.00    +0.000 A 
ATOM      6  C   UNL     1       1.406   8.160  21.232  0.00  0.00    +0.000 A 
ATOM      7  C   UNL     1       1.775   7.998  19.889  0.00  0.00    +0.000 A 
ATOM      8  N   UNL     1       1.404   9.038  19.142  0.00  0.00    +0.000 NA
ATOM      9  N   UNL     1       0.856   9.925  20.021  0.00  0.00    +0.000 N 
BRANCH   9  10
ATOM     10  C   UNL     1       0.509  11.225  19.553  0.00  0.00    +0.000 A 
ATOM     11  C   UNL     1       1.321  12.316  19.890  0.00  0.00    +0.000 A 
ATOM     12  C   UNL     1       1.027  13.587  19.387  0.00  0.00    +0.000 A 
ATOM     13  C   UNL     1      -0.096  13.775  18.582  0.00  0.00    +0.000 A 
ATOM     14  C   UNL     1      -0.933  12.706  18.285  0.00  0.00    +0.000 A 
ATOM     15  C   UNL     1      -0.636  11.431  18.774  0.00  0.00    +0.000 A 
ENDBRANCH   9  10
BRANCH   7  16
ATOM     16  C   UNL     1       2.473   6.802  19.337  0.00  0.00    +0.000 A 
ATOM     17  C   UNL     1       2.520   5.546  19.912  0.00  0.00    +0.000 A 
ATOM     18  C   UNL     1       3.300   4.732  19.055  0.00  0.00    +0.000 A 
ATOM     19  C   UNL     1       3.681   5.538  18.009  0.00  0.00    +0.000 A 
ATOM     20  O   UNL     1       3.174   6.788  18.160  0.00  0.00    +0.000 OA
ENDBRANCH   7  16
ENDBRANCH   2   5
BRANCH   3  21
ATOM     21  C   UNL     1      -1.821  11.383  23.103  0.00  0.00    +0.000 C 
BRANCH  21  22
ATOM     22  C   UNL     1      -1.825  12.920  23.052  0.00  0.00    +0.000 C 
ATOM     23  C   UNL     1      -2.891  13.518  23.979  0.00  0.00    +0.000 C 
ATOM     24  C   UNL     1      -4.119  13.557  23.104  0.00  0.00    +0.000 C 
ATOM     25  O   UNL     1      -5.265  13.647  23.509  0.00  0.00    +0.000 OA
ATOM     26  N   UNL     1      -3.690  13.545  21.787  0.00  0.00    +0.000 N 
ATOM     27  C   UNL     1      -2.256  13.430  21.677  0.00  0.00    +0.000 C 
BRANCH  26  28
ATOM     28  C   UNL     1      -4.536  13.869  20.650  0.00  0.00    +0.000 C 
BRANCH  28  29
ATOM     29  C   UNL     1      -5.189  12.657  20.033  0.00  0.00    +0.000 A 
ATOM     30  C   UNL     1      -6.382  12.147  20.568  0.00  0.00    +0.000 A 
ATOM     31  C   UNL     1      -6.987  11.022  20.006  0.00  0.00    +0.000 A 
ATOM     32  C   UNL     1      -6.420  10.405  18.895  0.00  0.00    +0.000 A 
ATOM     33  C   UNL     1      -5.253  10.921  18.335  0.00  0.00    +0.000 A 
ATOM     34  C   UNL     1      -4.640  12.042  18.900  0.00  0.00    +0.000 A 
ENDBRANCH  28  29
ENDBRANCH  26  28
ENDBRANCH  21  22
ENDBRANCH   3  21
TORSDOF 7
ENDMDL
MODEL 8
REMARK VINA RESULT:      -8.3      2.778      8.712
REMARK  Name = 
REMARK  7 active torsions:
REMARK  status: ('A' for Active; 'I' for Inactive)
REMARK    1  A    between atoms: C_2  and  C_18
REMARK    2  A    between atoms: N_3  and  C_4
REMARK    3  A    between atoms: C_4  and  C_5
REMARK    4  A    between atoms: N_9  and  C_10
REMARK    5  A    between atoms: C_10  and  C_11
REMARK    6  A    between atoms: C_20  and  C_21
REMARK    7  A    between atoms: N_27  and  C_28
REMARK                            x       y       z     vdW  Elec       q    Type
REMARK                         _______ _______ _______ _____ _____    ______ ____
ROOT
ATOM      1  O   UNL     1       2.015   7.501  19.881  0.00  0.00    +0.000 OA
ATOM      2  C   UNL     1       2.280   7.520  18.685  0.00  0.00    +0.000 C 
ATOM      3  N   UNL     1       1.734   8.464  17.844  0.00  0.00    +0.000 N 
ATOM      4  H   UNL     1       1.931   8.408  16.853  0.00  0.00    +0.000 HD
ENDROOT
BRANCH   2   5
ATOM      5  C   UNL     1       3.145   6.571  18.027  0.00  0.00    +0.000 A 
ATOM      6  C   UNL     1       4.034   6.799  16.989  0.00  0.00    +0.000 A 
ATOM      7  C   UNL     1       4.728   5.593  16.809  0.00  0.00    +0.000 A 
ATOM      8  N   UNL     1       4.340   4.660  17.678  0.00  0.00    +0.000 NA
ATOM      9  N   UNL     1       3.325   5.238  18.383  0.00  0.00    +0.000 N 
BRANCH   9  10
ATOM     10  C   UNL     1       2.578   4.431  19.289  0.00  0.00    +0.000 A 
ATOM     11  C   UNL     1       2.978   4.352  20.629  0.00  0.00    +0.000 A 
ATOM     12  C   UNL     1       2.220   3.613  21.542  0.00  0.00    +0.000 A 
ATOM     13  C   UNL     1       1.087   2.924  21.111  0.00  0.00    +0.000 A 
ATOM     14  C   UNL     1       0.713   2.958  19.773  0.00  0.00    +0.000 A 
ATOM     15  C   UNL     1       1.459   3.706  18.859  0.00  0.00    +0.000 A 
ENDBRANCH   9  10
BRANCH   7  16
ATOM     16  C   UNL     1       5.795   5.371  15.792  0.00  0.00    +0.000 A 
ATOM     17  C   UNL     1       5.648   4.721  14.581  0.00  0.00    +0.000 A 
ATOM     18  C   UNL     1       6.917   4.731  13.954  0.00  0.00    +0.000 A 
ATOM     19  C   UNL     1       7.763   5.385  14.817  0.00  0.00    +0.000 A 
ATOM     20  O   UNL     1       7.092   5.791  15.925  0.00  0.00    +0.000 OA
ENDBRANCH   7  16
ENDBRANCH   2   5
BRANCH   3  21
ATOM     21  C   UNL     1       0.726   9.409  18.290  0.00  0.00    +0.000 C 
BRANCH  21  22
ATOM     22  C   UNL     1       1.347  10.587  19.058  0.00  0.00    +0.000 C 
ATOM     23  C   UNL     1       1.166  10.438  20.573  0.00  0.00    +0.000 C 
ATOM     24  C   UNL     1      -0.176  11.079  20.819  0.00  0.00    +0.000 C 
ATOM     25  O   UNL     1      -0.867  10.902  21.808  0.00  0.00    +0.000 OA
ATOM     26  N   UNL     1      -0.425  11.939  19.762  0.00  0.00    +0.000 N 
ATOM     27  C   UNL     1       0.614  11.893  18.762  0.00  0.00    +0.000 C 
BRANCH  26  28
ATOM     28  C   UNL     1      -1.461  12.959  19.765  0.00  0.00    +0.000 C 
BRANCH  28  29
ATOM     29  C   UNL     1      -2.821  12.422  19.397  0.00  0.00    +0.000 A 
ATOM     30  C   UNL     1      -3.953  12.788  20.141  0.00  0.00    +0.000 A 
ATOM     31  C   UNL     1      -5.213  12.289  19.810  0.00  0.00    +0.000 A 
ATOM     32  C   UNL     1      -5.362  11.435  18.722  0.00  0.00    +0.000 A 
ATOM     33  C   UNL     1      -4.251  11.089  17.954  0.00  0.00    +0.000 A 
ATOM     34  C   UNL     1      -2.987  11.580  18.288  0.00  0.00    +0.000 A 
ENDBRANCH  28  29
ENDBRANCH  26  28
ENDBRANCH  21  22
ENDBRANCH   3  21
TORSDOF 7
ENDMDL
MODEL 9
REMARK VINA RESULT:      -8.3      2.153      8.865
REMARK  Name = 
REMARK  7 active torsions:
REMARK  status: ('A' for Active; 'I' for Inactive)
REMARK    1  A    between atoms: C_2  and  C_18
REMARK    2  A    between atoms: N_3  and  C_4
REMARK    3  A    between atoms: C_4  and  C_5
REMARK    4  A    between atoms: N_9  and  C_10
REMARK    5  A    between atoms: C_10  and  C_11
REMARK    6  A    between atoms: C_20  and  C_21
REMARK    7  A    between atoms: N_27  and  C_28
REMARK                            x       y       z     vdW  Elec       q    Type
REMARK                         _______ _______ _______ _____ _____    ______ ____
ROOT
ATOM      1  O   UNL     1       2.550   7.354  19.710  0.00  0.00    +0.000 OA
ATOM      2  C   UNL     1       2.864   7.480  18.532  0.00  0.00    +0.000 C 
ATOM      3  N   UNL     1       2.607   8.642  17.841  0.00  0.00    +0.000 N 
ATOM      4  H   UNL     1       2.828   8.683  16.854  0.00  0.00    +0.000 HD
ENDROOT
BRANCH   2   5
ATOM      5  C   UNL     1       3.495   6.450  17.744  0.00  0.00    +0.000 A 
ATOM      6  C   UNL     1       4.318   6.599  16.639  0.00  0.00    +0.000 A 
ATOM      7  C   UNL     1       4.779   5.312  16.327  0.00  0.00    +0.000 A 
ATOM      8  N   UNL     1       4.313   4.397  17.178  0.00  0.00    +0.000 NA
ATOM      9  N   UNL     1       3.475   5.083  18.008  0.00  0.00    +0.000 N 
BRANCH   9  10
ATOM     10  C   UNL     1       2.682   4.349  18.936  0.00  0.00    +0.000 A 
ATOM     11  C   UNL     1       3.137   4.186  20.251  0.00  0.00    +0.000 A 
ATOM     12  C   UNL     1       2.341   3.520  21.188  0.00  0.00    +0.000 A 
ATOM     13  C   UNL     1       1.112   2.986  20.804  0.00  0.00    +0.000 A 
ATOM     14  C   UNL     1       0.677   3.101  19.490  0.00  0.00    +0.000 A 
ATOM     15  C   UNL     1       1.462   3.777  18.552  0.00  0.00    +0.000 A 
ENDBRANCH   9  10
BRANCH   7  16
ATOM     16  C   UNL     1       5.701   4.988  15.203  0.00  0.00    +0.000 A 
ATOM     17  C   UNL     1       5.474   4.064  14.200  0.00  0.00    +0.000 A 
ATOM     18  C   UNL     1       6.617   4.078  13.364  0.00  0.00    +0.000 A 
ATOM     19  C   UNL     1       7.472   5.009  13.905  0.00  0.00    +0.000 A 
ATOM     20  O   UNL     1       6.923   5.577  15.008  0.00  0.00    +0.000 OA
ENDBRANCH   7  16
ENDBRANCH   2   5
BRANCH   3  21
ATOM     21  C   UNL     1       1.846   9.735  18.419  0.00  0.00    +0.000 C 
BRANCH  21  22
ATOM     22  C   UNL     1       0.385   9.335  18.684  0.00  0.00    +0.000 C 
ATOM     23  C   UNL     1      -0.591  10.124  17.803  0.00  0.00    +0.000 C 
ATOM     24  C   UNL     1      -0.858  11.365  18.617  0.00  0.00    +0.000 C 
ATOM     25  O   UNL     1      -1.307  12.409  18.176  0.00  0.00    +0.000 OA
ATOM     26  N   UNL     1      -0.567  11.064  19.938  0.00  0.00    +0.000 N 
ATOM     27  C   UNL     1      -0.051   9.726  20.095  0.00  0.00    +0.000 C 
BRANCH  26  28
ATOM     28  C   UNL     1      -0.969  11.884  21.069  0.00  0.00    +0.000 C 
BRANCH  28  29
ATOM     29  C   UNL     1      -0.027  13.032  21.333  0.00  0.00    +0.000 A 
ATOM     30  C   UNL     1      -0.445  14.130  22.099  0.00  0.00    +0.000 A 
ATOM     31  C   UNL     1       0.419  15.198  22.341  0.00  0.00    +0.000 A 
ATOM     32  C   UNL     1       1.716  15.175  21.836  0.00  0.00    +0.000 A 
ATOM     33  C   UNL     1       2.155  14.076  21.101  0.00  0.00    +0.000 A 
ATOM     34  C   UNL     1       1.289  13.009  20.850  0.00  0.00    +0.000 A 
ENDBRANCH  28  29
ENDBRANCH  26  28
ENDBRANCH  21  22
ENDBRANCH   3  21
TORSDOF 7
ENDMDL
