MODEL 1
REMARK VINA RESULT:      -8.4      0.000      0.000
REMARK  Name = 
REMARK  9 active torsions:
REMARK  status: ('A' for Active; 'I' for Inactive)
REMARK    1  A    between atoms: C_1  and  C_2
REMARK    2  A    between atoms: C_2  and  C_3
REMARK    3  A    between atoms: C_2  and  C_24
REMARK    4  A    between atoms: C_7  and  N_8
REMARK    5  A    between atoms: C_9  and  C_11
REMARK    6  A    between atoms: C_15  and  C_16
REMARK    7  A    between atoms: C_16  and  C_17
REMARK    8  A    between atoms: C_17  and  C_18
REMARK    9  A    between atoms: N_28  and  C_29
REMARK                            x       y       z     vdW  Elec       q    Type
REMARK                         _______ _______ _______ _____ _____    ______ ____
ROOT
ATOM      1  N   UNL     1       1.940   6.789  19.467  0.00  0.00    +0.000 N 
ATOM      2  C   UNL     1       1.825   8.145  19.210  0.00  0.00    +0.000 C 
ATOM      3  O   UNL     1       2.186   8.738  18.197  0.00  0.00    +0.000 OA
ATOM      4  H   UNL     1       1.563   6.485  20.363  0.00  0.00    +0.000 HD
ENDROOT
BRANCH   1   9
ATOM      5  C   UNL     1       4.285   5.018  17.193  0.00  0.00    +0.000 A 
ATOM      6  C   UNL     1       3.593   3.815  16.979  0.00  0.00    +0.000 A 
ATOM      7  C   UNL     1       2.333   3.618  17.534  0.00  0.00    +0.000 A 
ATOM      8  C   UNL     1       1.758   4.607  18.330  0.00  0.00    +0.000 A 
ATOM      9  C   UNL     1       2.433   5.799  18.590  0.00  0.00    +0.000 A 
ATOM     10  C   UNL     1       3.687   6.009  17.996  0.00  0.00    +0.000 A 
BRANCH   5  12
ATOM     11  C   UNL     1       6.052   3.901  15.846  0.00  0.00    +0.000 C 
ATOM     12  C   UNL     1       5.714   5.146  16.675  0.00  0.00    +0.000 C 
BRANCH  12  13
ATOM     13  C   UNL     1       6.744   5.376  17.745  0.00  0.00    +0.000 A 
ATOM     14  N   UNL     1       7.248   4.469  18.562  0.00  0.00    +0.000 NA
ATOM     15  N   UNL     1       8.188   5.075  19.360  0.00  0.00    +0.000 NA
ATOM     16  C   UNL     1       8.239   6.340  19.018  0.00  0.00    +0.000 A 
ATOM     17  N   UNL     1       7.350   6.579  18.017  0.00  0.00    +0.000 N 
ATOM     18  C   UNL     1       7.126   7.847  17.377  0.00  0.00    +0.000 C 
ENDBRANCH  12  13
ENDBRANCH   5  12
ENDBRANCH   1   9
BRANCH   2  19
ATOM     19  C   UNL     1       1.177   8.933  20.302  0.00  0.00    +0.000 A 
ATOM     20  C   UNL     1       1.361   8.532  21.610  0.00  0.00    +0.000 A 
ATOM     21  C   UNL     1       0.750   9.314  22.550  0.00  0.00    +0.000 A 
ATOM     22  N   UNL     1       0.017  10.397  22.239  0.00  0.00    +0.000 NA
ATOM     23  C   UNL     1      -0.086  10.724  20.935  0.00  0.00    +0.000 A 
ATOM     24  N   UNL     1       0.457  10.019  19.929  0.00  0.00    +0.000 NA
BRANCH  23  25
ATOM     25  C   UNL     1      -0.874  11.957  20.573  0.00  0.00    +0.000 C 
BRANCH  25  26
ATOM     26  C   UNL     1      -1.150  12.036  19.070  0.00  0.00    +0.000 C 
BRANCH  26  27
ATOM     27  C   UNL     1      -2.430  11.357  18.679  0.00  0.00    +0.000 C 
ATOM     28  C   UNL     1      -2.485  10.319  17.840  0.00  0.00    +0.000 C 
ATOM     29  F   UNL     1      -1.355   9.802  17.316  0.00  0.00    +0.000 F 
ATOM     30  F   UNL     1      -3.682   9.788  17.512  0.00  0.00    +0.000 F 
ENDBRANCH  26  27
ENDBRANCH  25  26
ENDBRANCH  23  25
ENDBRANCH   2  19
TORSDOF 7
ENDMDL
MODEL 2
REMARK VINA RESULT:      -8.4      2.854      8.674
REMARK  Name = 
REMARK  9 active torsions:
REMARK  status: ('A' for Active; 'I' for Inactive)
REMARK    1  A    between atoms: C_1  and  C_2
REMARK    2  A    between atoms: C_2  and  C_3
REMARK    3  A    between atoms: C_2  and  C_24
REMARK    4  A    between atoms: C_7  and  N_8
REMARK    5  A    between atoms: C_9  and  C_11
REMARK    6  A    between atoms: C_15  and  C_16
REMARK    7  A    between atoms: C_16  and  C_17
REMARK    8  A    between atoms: C_17  and  C_18
REMARK    9  A    between atoms: N_28  and  C_29
REMARK                            x       y       z     vdW  Elec       q    Type
REMARK                         _______ _______ _______ _____ _____    ______ ____
ROOT
ATOM      1  N   UNL     1       1.935   7.840  19.419  0.00  0.00    +0.000 N 
ATOM      2  C   UNL     1       2.516   7.865  18.163  0.00  0.00    +0.000 C 
ATOM      3  O   UNL     1       2.483   8.787  17.352  0.00  0.00    +0.000 OA
ATOM      4  H   UNL     1       2.090   6.985  19.950  0.00  0.00    +0.000 HD
ENDROOT
BRANCH   1   9
ATOM      5  C   UNL     1      -0.067  10.946  19.810  0.00  0.00    +0.000 A 
ATOM      6  C   UNL     1      -0.307  10.937  21.193  0.00  0.00    +0.000 A 
ATOM      7  C   UNL     1       0.242   9.944  21.998  0.00  0.00    +0.000 A 
ATOM      8  C   UNL     1       1.015   8.933  21.430  0.00  0.00    +0.000 A 
ATOM      9  C   UNL     1       1.244   8.893  20.055  0.00  0.00    +0.000 A 
ATOM     10  C   UNL     1       0.722   9.918  19.253  0.00  0.00    +0.000 A 
BRANCH   5  12
ATOM     11  C   UNL     1      -0.540  13.371  19.531  0.00  0.00    +0.000 C 
ATOM     12  C   UNL     1      -0.787  11.975  18.945  0.00  0.00    +0.000 C 
BRANCH  12  13
ATOM     13  C   UNL     1      -2.257  11.718  18.769  0.00  0.00    +0.000 A 
ATOM     14  N   UNL     1      -3.242  12.273  19.452  0.00  0.00    +0.000 NA
ATOM     15  N   UNL     1      -4.434  11.803  18.958  0.00  0.00    +0.000 NA
ATOM     16  C   UNL     1      -4.157  10.969  17.984  0.00  0.00    +0.000 A 
ATOM     17  N   UNL     1      -2.809  10.877  17.833  0.00  0.00    +0.000 N 
ATOM     18  C   UNL     1      -2.127  10.066  16.861  0.00  0.00    +0.000 C 
ENDBRANCH  12  13
ENDBRANCH   5  12
ENDBRANCH   1   9
BRANCH   2  19
ATOM     19  C   UNL     1       3.261   6.623  17.796  0.00  0.00    +0.000 A 
ATOM     20  C   UNL     1       4.591   6.727  17.439  0.00  0.00    +0.000 A 
ATOM     21  C   UNL     1       5.206   5.545  17.133  0.00  0.00    +0.000 A 
ATOM     22  N   UNL     1       4.574   4.359  17.169  0.00  0.00    +0.000 NA
ATOM     23  C   UNL     1       3.281   4.355  17.552  0.00  0.00    +0.000 A 
ATOM     24  N   UNL     1       2.575   5.456  17.858  0.00  0.00    +0.000 NA
BRANCH  23  25
ATOM     25  C   UNL     1       2.570   3.028  17.632  0.00  0.00    +0.000 C 
BRANCH  25  26
ATOM     26  C   UNL     1       1.228   3.145  18.360  0.00  0.00    +0.000 C 
BRANCH  26  27
ATOM     27  C   UNL     1       1.272   2.583  19.750  0.00  0.00    +0.000 C 
ATOM     28  C   UNL     1       1.184   3.335  20.851  0.00  0.00    +0.000 C 
ATOM     29  F   UNL     1       1.015   4.670  20.755  0.00  0.00    +0.000 F 
ATOM     30  F   UNL     1       1.268   2.754  22.066  0.00  0.00    +0.000 F 
ENDBRANCH  26  27
ENDBRANCH  25  26
ENDBRANCH  23  25
ENDBRANCH   2  19
TORSDOF 7
ENDMDL
MODEL 3
REMARK VINA RESULT:      -8.3      3.347      8.813
REMARK  Name = 
REMARK  9 active torsions:
REMARK  status: ('A' for Active; 'I' for Inactive)
REMARK    1  A    between atoms: C_1  and  C_2
REMARK    2  A    between atoms: C_2  and  C_3
REMARK    3  A    between atoms: C_2  and  C_24
REMARK    4  A    between atoms: C_7  and  N_8
REMARK    5  A    between atoms: C_9  and  C_11
REMARK    6  A    between atoms: C_15  and  C_16
REMARK    7  A    between atoms: C_16  and  C_17
REMARK    8  A    between atoms: C_17  and  C_18
REMARK    9  A    between atoms: N_28  and  C_29
REMARK                            x       y       z     vdW  Elec       q    Type
REMARK                         _______ _______ _______ _____ _____    ______ ____
ROOT
ATOM      1  N   UNL     1       2.235   7.473  20.087  0.00  0.00    +0.000 N 
ATOM      2  C   UNL     1       2.063   6.099  20.115  0.00  0.00    +0.000 C 
ATOM      3  O   UNL     1       1.188   5.476  20.711  0.00  0.00    +0.000 OA
ATOM      4  H   UNL     1       3.015   7.800  19.520  0.00  0.00    +0.000 HD
ENDROOT
BRANCH   1   9
ATOM      5  C   UNL     1      -0.224  10.247  20.354  0.00  0.00    +0.000 A 
ATOM      6  C   UNL     1      -0.430  10.289  21.742  0.00  0.00    +0.000 A 
ATOM      7  C   UNL     1       0.285   9.447  22.588  0.00  0.00    +0.000 A 
ATOM      8  C   UNL     1       1.197   8.534  22.057  0.00  0.00    +0.000 A 
ATOM      9  C   UNL     1       1.399   8.444  20.680  0.00  0.00    +0.000 A 
ATOM     10  C   UNL     1       0.705   9.322  19.836  0.00  0.00    +0.000 A 
BRANCH   5  12
ATOM     11  C   UNL     1      -1.214  10.417  18.080  0.00  0.00    +0.000 C 
ATOM     12  C   UNL     1      -1.116  11.094  19.453  0.00  0.00    +0.000 C 
BRANCH  12  13
ATOM     13  C   UNL     1      -0.680  12.526  19.317  0.00  0.00    +0.000 A 
ATOM     14  N   UNL     1       0.314  12.981  18.575  0.00  0.00    +0.000 NA
ATOM     15  N   UNL     1       0.357  14.348  18.695  0.00  0.00    +0.000 NA
ATOM     16  C   UNL     1      -0.609  14.704  19.508  0.00  0.00    +0.000 A 
ATOM     17  N   UNL     1      -1.281  13.600  19.929  0.00  0.00    +0.000 N 
ATOM     18  C   UNL     1      -2.407  13.592  20.822  0.00  0.00    +0.000 C 
ENDBRANCH  12  13
ENDBRANCH   5  12
ENDBRANCH   1   9
BRANCH   2  19
ATOM     19  C   UNL     1       3.063   5.330  19.316  0.00  0.00    +0.000 A 
ATOM     20  C   UNL     1       2.610   4.404  18.398  0.00  0.00    +0.000 A 
ATOM     21  C   UNL     1       3.586   3.753  17.696  0.00  0.00    +0.000 A 
ATOM     22  N   UNL     1       4.898   3.986  17.877  0.00  0.00    +0.000 NA
ATOM     23  C   UNL     1       5.244   4.926  18.779  0.00  0.00    +0.000 A 
ATOM     24  N   UNL     1       4.371   5.613  19.535  0.00  0.00    +0.000 NA
BRANCH  23  25
ATOM     25  C   UNL     1       6.710   5.224  18.966  0.00  0.00    +0.000 C 
BRANCH  25  26
ATOM     26  C   UNL     1       7.392   5.576  17.642  0.00  0.00    +0.000 C 
BRANCH  26  27
ATOM     27  C   UNL     1       7.241   7.024  17.279  0.00  0.00    +0.000 C 
ATOM     28  C   UNL     1       7.894   8.010  17.901  0.00  0.00    +0.000 C 
ATOM     29  F   UNL     1       8.766   7.734  18.893  0.00  0.00    +0.000 F 
ATOM     30  F   UNL     1       7.674   9.291  17.537  0.00  0.00    +0.000 F 
ENDBRANCH  26  27
ENDBRANCH  25  26
ENDBRANCH  23  25
ENDBRANCH   2  19
TORSDOF 7
ENDMDL
MODEL 4
REMARK VINA RESULT:      -8.2      3.010      8.615
REMARK  Name = 
REMARK  9 active torsions:
REMARK  status: ('A' for Active; 'I' for Inactive)
REMARK    1  A    between atoms: C_1  and  C_2
REMARK    2  A    between atoms: C_2  and  C_3
REMARK    3  A    between atoms: C_2  and  C_24
REMARK    4  A    between atoms: C_7  and  N_8
REMARK    5  A    between atoms: C_9  and  C_11
REMARK    6  A    between atoms: C_15  and  C_16
REMARK    7  A    between atoms: C_16  and  C_17
REMARK    8  A    between atoms: C_17  and  C_18
REMARK    9  A    between atoms: N_28  and  C_29
REMARK                            x       y       z     vdW  Elec       q    Type
REMARK                         _______ _______ _______ _____ _____    ______ ____
ROOT
ATOM      1  N   UNL     1       2.354   7.179  20.329  0.00  0.00    +0.000 N 
ATOM      2  C   UNL     1       2.078   5.823  20.277  0.00  0.00    +0.000 C 
ATOM      3  O   UNL     1       1.013   5.275  20.548  0.00  0.00    +0.000 OA
ATOM      4  H   UNL     1       3.297   7.440  20.049  0.00  0.00    +0.000 HD
ENDROOT
BRANCH   1   9
ATOM      5  C   UNL     1       0.196  10.166  19.847  0.00  0.00    +0.000 A 
ATOM      6  C   UNL     1      -0.476  10.212  21.079  0.00  0.00    +0.000 A 
ATOM      7  C   UNL     1      -0.172   9.298  22.083  0.00  0.00    +0.000 A 
ATOM      8  C   UNL     1       0.788   8.311  21.862  0.00  0.00    +0.000 A 
ATOM      9  C   UNL     1       1.448   8.217  20.638  0.00  0.00    +0.000 A 
ATOM     10  C   UNL     1       1.166   9.164  19.643  0.00  0.00    +0.000 A 
BRANCH   5  12
ATOM     11  C   UNL     1       0.497  12.432  18.868  0.00  0.00    +0.000 C 
ATOM     12  C   UNL     1      -0.253  11.101  18.730  0.00  0.00    +0.000 C 
BRANCH  12  13
ATOM     13  C   UNL     1      -1.738  11.325  18.667  0.00  0.00    +0.000 A 
ATOM     14  N   UNL     1      -2.446  12.141  19.428  0.00  0.00    +0.000 NA
ATOM     15  N   UNL     1      -3.757  12.086  19.025  0.00  0.00    +0.000 NA
ATOM     16  C   UNL     1      -3.829  11.237  18.028  0.00  0.00    +0.000 A 
ATOM     17  N   UNL     1      -2.593  10.730  17.771  0.00  0.00    +0.000 N 
ATOM     18  C   UNL     1      -2.274   9.775  16.744  0.00  0.00    +0.000 C 
ENDBRANCH  12  13
ENDBRANCH   5  12
ENDBRANCH   1   9
BRANCH   2  19
ATOM     19  C   UNL     1       3.221   4.971  19.830  0.00  0.00    +0.000 A 
ATOM     20  C   UNL     1       3.006   3.624  19.625  0.00  0.00    +0.000 A 
ATOM     21  C   UNL     1       4.097   2.917  19.201  0.00  0.00    +0.000 A 
ATOM     22  N   UNL     1       5.300   3.480  18.998  0.00  0.00    +0.000 NA
ATOM     23  C   UNL     1       5.409   4.808  19.202  0.00  0.00    +0.000 A 
ATOM     24  N   UNL     1       4.409   5.595  19.633  0.00  0.00    +0.000 NA
BRANCH  23  25
ATOM     25  C   UNL     1       6.743   5.459  18.941  0.00  0.00    +0.000 C 
BRANCH  25  26
ATOM     26  C   UNL     1       7.140   5.372  17.465  0.00  0.00    +0.000 C 
BRANCH  26  27
ATOM     27  C   UNL     1       6.417   6.370  16.610  0.00  0.00    +0.000 C 
ATOM     28  C   UNL     1       5.349   6.065  15.867  0.00  0.00    +0.000 C 
ATOM     29  F   UNL     1       4.843   4.815  15.879  0.00  0.00    +0.000 F 
ATOM     30  F   UNL     1       4.777   7.015  15.097  0.00  0.00    +0.000 F 
ENDBRANCH  26  27
ENDBRANCH  25  26
ENDBRANCH  23  25
ENDBRANCH   2  19
TORSDOF 7
ENDMDL
MODEL 5
REMARK VINA RESULT:      -8.2      2.335      3.277
REMARK  Name = 
REMARK  9 active torsions:
REMARK  status: ('A' for Active; 'I' for Inactive)
REMARK    1  A    between atoms: C_1  and  C_2
REMARK    2  A    between atoms: C_2  and  C_3
REMARK    3  A    between atoms: C_2  and  C_24
REMARK    4  A    between atoms: C_7  and  N_8
REMARK    5  A    between atoms: C_9  and  C_11
REMARK    6  A    between atoms: C_15  and  C_16
REMARK    7  A    between atoms: C_16  and  C_17
REMARK    8  A    between atoms: C_17  and  C_18
REMARK    9  A    between atoms: N_28  and  C_29
REMARK                            x       y       z     vdW  Elec       q    Type
REMARK                         _______ _______ _______ _____ _____    ______ ____
ROOT
ATOM      1  N   UNL     1       2.002   8.373  19.573  0.00  0.00    +0.000 N 
ATOM      2  C   UNL     1       1.551   9.147  18.518  0.00  0.00    +0.000 C 
ATOM      3  O   UNL     1       1.209   8.752  17.405  0.00  0.00    +0.000 OA
ATOM      4  H   UNL     1       2.222   8.888  20.424  0.00  0.00    +0.000 HD
ENDROOT
BRANCH   1   9
ATOM      5  C   UNL     1       2.954   4.926  18.563  0.00  0.00    +0.000 A 
ATOM      6  C   UNL     1       2.512   4.190  19.674  0.00  0.00    +0.000 A 
ATOM      7  C   UNL     1       1.849   4.822  20.720  0.00  0.00    +0.000 A 
ATOM      8  C   UNL     1       1.642   6.201  20.685  0.00  0.00    +0.000 A 
ATOM      9  C   UNL     1       2.099   6.965  19.612  0.00  0.00    +0.000 A 
ATOM     10  C   UNL     1       2.732   6.318  18.541  0.00  0.00    +0.000 A 
BRANCH   5  12
ATOM     11  C   UNL     1       3.426   2.729  17.498  0.00  0.00    +0.000 C 
ATOM     12  C   UNL     1       3.786   4.220  17.497  0.00  0.00    +0.000 C 
BRANCH  12  13
ATOM     13  C   UNL     1       5.270   4.416  17.638  0.00  0.00    +0.000 A 
ATOM     14  N   UNL     1       5.984   4.264  18.739  0.00  0.00    +0.000 NA
ATOM     15  N   UNL     1       7.304   4.495  18.437  0.00  0.00    +0.000 NA
ATOM     16  C   UNL     1       7.372   4.786  17.159  0.00  0.00    +0.000 A 
ATOM     17  N   UNL     1       6.126   4.756  16.618  0.00  0.00    +0.000 N 
ATOM     18  C   UNL     1       5.802   5.014  15.241  0.00  0.00    +0.000 C 
ENDBRANCH  12  13
ENDBRANCH   5  12
ENDBRANCH   1   9
BRANCH   2  19
ATOM     19  C   UNL     1       1.475  10.611  18.805  0.00  0.00    +0.000 A 
ATOM     20  C   UNL     1       2.244  11.477  18.054  0.00  0.00    +0.000 A 
ATOM     21  C   UNL     1       2.106  12.800  18.368  0.00  0.00    +0.000 A 
ATOM     22  N   UNL     1       1.287  13.242  19.339  0.00  0.00    +0.000 NA
ATOM     23  C   UNL     1       0.558  12.323  20.003  0.00  0.00    +0.000 A 
ATOM     24  N   UNL     1       0.627  10.998  19.789  0.00  0.00    +0.000 NA
BRANCH  23  25
ATOM     25  C   UNL     1      -0.392  12.807  21.069  0.00  0.00    +0.000 C 
BRANCH  25  26
ATOM     26  C   UNL     1      -1.291  11.680  21.584  0.00  0.00    +0.000 C 
BRANCH  26  27
ATOM     27  C   UNL     1      -0.765  11.046  22.838  0.00  0.00    +0.000 C 
ATOM     28  C   UNL     1      -0.434   9.755  22.925  0.00  0.00    +0.000 C 
ATOM     29  F   UNL     1      -0.532   8.948  21.848  0.00  0.00    +0.000 F 
ATOM     30  F   UNL     1      -0.002   9.254  24.102  0.00  0.00    +0.000 F 
ENDBRANCH  26  27
ENDBRANCH  25  26
ENDBRANCH  23  25
ENDBRANCH   2  19
TORSDOF 7
ENDMDL
MODEL 6
REMARK VINA RESULT:      -8.2      2.819      4.312
REMARK  Name = 
REMARK  9 active torsions:
REMARK  status: ('A' for Active; 'I' for Inactive)
REMARK    1  A    between atoms: C_1  and  C_2
REMARK    2  A    between atoms: C_2  and  C_3
REMARK    3  A    between atoms: C_2  and  C_24
REMARK    4  A    between atoms: C_7  and  N_8
REMARK    5  A    between atoms: C_9  and  C_11
REMARK    6  A    between atoms: C_15  and  C_16
REMARK    7  A    between atoms: C_16  and  C_17
REMARK    8  A    between atoms: C_17  and  C_18
REMARK    9  A    between atoms: N_28  and  C_29
REMARK                            x       y       z     vdW  Elec       q    Type
REMARK                         _______ _______ _______ _____ _____    ______ ____
ROOT
ATOM      1  N   UNL     1       1.581   8.664  17.987  0.00  0.00    +0.000 N 
ATOM      2  C   UNL     1       1.050   9.258  19.119  0.00  0.00    +0.000 C 
ATOM      3  O   UNL     1       1.305   8.982  20.289  0.00  0.00    +0.000 OA
ATOM      4  H   UNL     1       1.253   9.047  17.103  0.00  0.00    +0.000 HD
ENDROOT
BRANCH   1   9
ATOM      5  C   UNL     1       3.124   5.286  18.126  0.00  0.00    +0.000 A 
ATOM      6  C   UNL     1       4.432   5.572  17.705  0.00  0.00    +0.000 A 
ATOM      7  C   UNL     1       4.817   6.881  17.437  0.00  0.00    +0.000 A 
ATOM      8  C   UNL     1       3.894   7.920  17.560  0.00  0.00    +0.000 A 
ATOM      9  C   UNL     1       2.577   7.665  17.943  0.00  0.00    +0.000 A 
ATOM     10  C   UNL     1       2.205   6.348  18.250  0.00  0.00    +0.000 A 
BRANCH   5  12
ATOM     11  C   UNL     1       1.512   3.552  17.364  0.00  0.00    +0.000 C 
ATOM     12  C   UNL     1       2.706   3.828  18.287  0.00  0.00    +0.000 C 
BRANCH  12  13
ATOM     13  C   UNL     1       2.397   3.424  19.701  0.00  0.00    +0.000 A 
ATOM     14  N   UNL     1       1.284   3.672  20.368  0.00  0.00    +0.000 NA
ATOM     15  N   UNL     1       1.383   3.099  21.612  0.00  0.00    +0.000 NA
ATOM     16  C   UNL     1       2.555   2.513  21.685  0.00  0.00    +0.000 A 
ATOM     17  N   UNL     1       3.228   2.695  20.517  0.00  0.00    +0.000 N 
ATOM     18  C   UNL     1       4.542   2.192  20.219  0.00  0.00    +0.000 C 
ENDBRANCH  12  13
ENDBRANCH   5  12
ENDBRANCH   1   9
BRANCH   2  19
ATOM     19  C   UNL     1       0.073  10.355  18.847  0.00  0.00    +0.000 A 
ATOM     20  C   UNL     1       0.483  11.664  19.000  0.00  0.00    +0.000 A 
ATOM     21  C   UNL     1      -0.464  12.608  18.716  0.00  0.00    +0.000 A 
ATOM     22  N   UNL     1      -1.711  12.300  18.318  0.00  0.00    +0.000 NA
ATOM     23  C   UNL     1      -2.012  10.994  18.175  0.00  0.00    +0.000 A 
ATOM     24  N   UNL     1      -1.166   9.984  18.441  0.00  0.00    +0.000 NA
BRANCH  23  25
ATOM     25  C   UNL     1      -3.395  10.634  17.694  0.00  0.00    +0.000 C 
BRANCH  25  26
ATOM     26  C   UNL     1      -3.741  11.338  16.379  0.00  0.00    +0.000 C 
BRANCH  26  27
ATOM     27  C   UNL     1      -2.872  10.897  15.239  0.00  0.00    +0.000 C 
ATOM     28  C   UNL     1      -3.294  10.087  14.264  0.00  0.00    +0.000 C 
ATOM     29  F   UNL     1      -4.568   9.643  14.247  0.00  0.00    +0.000 F 
ATOM     30  F   UNL     1      -2.437   9.708  13.292  0.00  0.00    +0.000 F 
ENDBRANCH  26  27
ENDBRANCH  25  26
ENDBRANCH  23  25
ENDBRANCH   2  19
TORSDOF 7
ENDMDL
MODEL 7
REMARK VINA RESULT:      -8.1      1.311      1.547
REMARK  Name = 
REMARK  9 active torsions:
REMARK  status: ('A' for Active; 'I' for Inactive)
REMARK    1  A    between atoms: C_1  and  C_2
REMARK    2  A    between atoms: C_2  and  C_3
REMARK    3  A    between atoms: C_2  and  C_24
REMARK    4  A    between atoms: C_7  and  N_8
REMARK    5  A    between atoms: C_9  and  C_11
REMARK    6  A    between atoms: C_15  and  C_16
REMARK    7  A    between atoms: C_16  and  C_17
REMARK    8  A    between atoms: C_17  and  C_18
REMARK    9  A    between atoms: N_28  and  C_29
REMARK                            x       y       z     vdW  Elec       q    Type
REMARK                         _______ _______ _______ _____ _____    ______ ____
ROOT
ATOM      1  N   UNL     1       1.320   7.027  20.955  0.00  0.00    +0.000 N 
ATOM      2  C   UNL     1       1.281   8.275  20.356  0.00  0.00    +0.000 C 
ATOM      3  O   UNL     1       1.829   8.609  19.308  0.00  0.00    +0.000 OA
ATOM      4  H   UNL     1       0.785   6.944  21.817  0.00  0.00    +0.000 HD
ENDROOT
BRANCH   1   9
ATOM      5  C   UNL     1       3.633   4.906  18.964  0.00  0.00    +0.000 A 
ATOM      6  C   UNL     1       3.369   3.639  19.509  0.00  0.00    +0.000 A 
ATOM      7  C   UNL     1       2.390   3.480  20.484  0.00  0.00    +0.000 A 
ATOM      8  C   UNL     1       1.679   4.587  20.947  0.00  0.00    +0.000 A 
ATOM      9  C   UNL     1       1.940   5.864  20.451  0.00  0.00    +0.000 A 
ATOM     10  C   UNL     1       2.901   6.013  19.440  0.00  0.00    +0.000 A 
BRANCH   5  12
ATOM     11  C   UNL     1       4.896   3.792  17.135  0.00  0.00    +0.000 C 
ATOM     12  C   UNL     1       4.797   5.061  17.992  0.00  0.00    +0.000 C 
BRANCH  12  13
ATOM     13  C   UNL     1       6.114   5.374  18.645  0.00  0.00    +0.000 A 
ATOM     14  N   UNL     1       6.551   4.908  19.801  0.00  0.00    +0.000 NA
ATOM     15  N   UNL     1       7.814   5.401  20.021  0.00  0.00    +0.000 NA
ATOM     16  C   UNL     1       8.125   6.159  18.996  0.00  0.00    +0.000 A 
ATOM     17  N   UNL     1       7.092   6.180  18.113  0.00  0.00    +0.000 N 
ATOM     18  C   UNL     1       7.066   6.897  16.867  0.00  0.00    +0.000 C 
ENDBRANCH  12  13
ENDBRANCH   5  12
ENDBRANCH   1   9
BRANCH   2  19
ATOM     19  C   UNL     1       0.467   9.292  21.087  0.00  0.00    +0.000 A 
ATOM     20  C   UNL     1       0.323   9.170  22.454  0.00  0.00    +0.000 A 
ATOM     21  C   UNL     1      -0.423  10.148  23.051  0.00  0.00    +0.000 A 
ATOM     22  N   UNL     1      -0.983  11.162  22.368  0.00  0.00    +0.000 NA
ATOM     23  C   UNL     1      -0.767  11.210  21.038  0.00  0.00    +0.000 A 
ATOM     24  N   UNL     1      -0.067  10.295  20.348  0.00  0.00    +0.000 NA
BRANCH  23  25
ATOM     25  C   UNL     1      -1.358  12.362  20.265  0.00  0.00    +0.000 C 
BRANCH  25  26
ATOM     26  C   UNL     1      -2.564  11.926  19.429  0.00  0.00    +0.000 C 
BRANCH  26  27
ATOM     27  C   UNL     1      -2.220  11.708  17.985  0.00  0.00    +0.000 C 
ATOM     28  C   UNL     1      -2.404  10.545  17.354  0.00  0.00    +0.000 C 
ATOM     29  F   UNL     1      -2.952   9.495  18.000  0.00  0.00    +0.000 F 
ATOM     30  F   UNL     1      -2.034  10.421  16.062  0.00  0.00    +0.000 F 
ENDBRANCH  26  27
ENDBRANCH  25  26
ENDBRANCH  23  25
ENDBRANCH   2  19
TORSDOF 7
ENDMDL
MODEL 8
REMARK VINA RESULT:      -8.0      1.117      1.245
REMARK  Name = 
REMARK  9 active torsions:
REMARK  status: ('A' for Active; 'I' for Inactive)
REMARK    1  A    between atoms: C_1  and  C_2
REMARK    2  A    between atoms: C_2  and  C_3
REMARK    3  A    between atoms: C_2  and  C_24
REMARK    4  A    between atoms: C_7  and  N_8
REMARK    5  A    between atoms: C_9  and  C_11
REMARK    6  A    between atoms: C_15  and  C_16
REMARK    7  A    between atoms: C_16  and  C_17
REMARK    8  A    between atoms: C_17  and  C_18
REMARK    9  A    between atoms: N_28  and  C_29
REMARK                            x       y       z     vdW  Elec       q    Type
REMARK                         _______ _______ _______ _____ _____    ______ ____
ROOT
ATOM      1  N   UNL     1       1.914   7.117  18.818  0.00  0.00    +0.000 N 
ATOM      2  C   UNL     1       1.698   7.195  20.183  0.00  0.00    +0.000 C 
ATOM      3  O   UNL     1       1.939   6.329  21.021  0.00  0.00    +0.000 OA
ATOM      4  H   UNL     1       1.662   7.951  18.291  0.00  0.00    +0.000 HD
ENDROOT
BRANCH   1   9
ATOM      5  C   UNL     1       4.522   5.187  17.006  0.00  0.00    +0.000 A 
ATOM      6  C   UNL     1       3.887   3.942  16.869  0.00  0.00    +0.000 A 
ATOM      7  C   UNL     1       2.583   3.763  17.318  0.00  0.00    +0.000 A 
ATOM      8  C   UNL     1       1.904   4.815  17.933  0.00  0.00    +0.000 A 
ATOM      9  C   UNL     1       2.519   6.053  18.115  0.00  0.00    +0.000 A 
ATOM     10  C   UNL     1       3.820   6.240  17.626  0.00  0.00    +0.000 A 
BRANCH   5  12
ATOM     11  C   UNL     1       6.388   4.079  15.791  0.00  0.00    +0.000 C 
ATOM     12  C   UNL     1       5.992   5.308  16.618  0.00  0.00    +0.000 C 
BRANCH  12  13
ATOM     13  C   UNL     1       6.927   5.499  17.780  0.00  0.00    +0.000 A 
ATOM     14  N   UNL     1       7.310   4.576  18.643  0.00  0.00    +0.000 NA
ATOM     15  N   UNL     1       8.198   5.144  19.524  0.00  0.00    +0.000 NA
ATOM     16  C   UNL     1       8.340   6.403  19.184  0.00  0.00    +0.000 A 
ATOM     17  N   UNL     1       7.560   6.675  18.104  0.00  0.00    +0.000 N 
ATOM     18  C   UNL     1       7.456   7.947  17.442  0.00  0.00    +0.000 C 
ENDBRANCH  12  13
ENDBRANCH   5  12
ENDBRANCH   1   9
BRANCH   2  19
ATOM     19  C   UNL     1       1.118   8.491  20.649  0.00  0.00    +0.000 A 
ATOM     20  C   UNL     1       1.246   8.837  21.979  0.00  0.00    +0.000 A 
ATOM     21  C   UNL     1       0.703  10.044  22.322  0.00  0.00    +0.000 A 
ATOM     22  N   UNL     1       0.083  10.846  21.439  0.00  0.00    +0.000 NA
ATOM     23  C   UNL     1       0.027  10.433  20.157  0.00  0.00    +0.000 A 
ATOM     24  N   UNL     1       0.511   9.261  19.713  0.00  0.00    +0.000 NA
BRANCH  23  25
ATOM     25  C   UNL     1      -0.633  11.339  19.149  0.00  0.00    +0.000 C 
BRANCH  25  26
ATOM     26  C   UNL     1      -1.286  10.547  18.013  0.00  0.00    +0.000 C 
BRANCH  26  27
ATOM     27  C   UNL     1      -2.285  11.357  17.241  0.00  0.00    +0.000 C 
ATOM     28  C   UNL     1      -3.588  11.066  17.193  0.00  0.00    +0.000 C 
ATOM     29  F   UNL     1      -4.081  10.017  17.883  0.00  0.00    +0.000 F 
ATOM     30  F   UNL     1      -4.415  11.827  16.444  0.00  0.00    +0.000 F 
ENDBRANCH  26  27
ENDBRANCH  25  26
ENDBRANCH  23  25
ENDBRANCH   2  19
TORSDOF 7
ENDMDL
MODEL 9
REMARK VINA RESULT:      -8.0      2.855      8.482
REMARK  Name = 
REMARK  9 active torsions:
REMARK  status: ('A' for Active; 'I' for Inactive)
REMARK    1  A    between atoms: C_1  and  C_2
REMARK    2  A    between atoms: C_2  and  C_3
REMARK    3  A    between atoms: C_2  and  C_24
REMARK    4  A    between atoms: C_7  and  N_8
REMARK    5  A    between atoms: C_9  and  C_11
REMARK    6  A    between atoms: C_15  and  C_16
REMARK    7  A    between atoms: C_16  and  C_17
REMARK    8  A    between atoms: C_17  and  C_18
REMARK    9  A    between atoms: N_28  and  C_29
REMARK                            x       y       z     vdW  Elec       q    Type
REMARK                         _______ _______ _______ _____ _____    ______ ____
ROOT
ATOM      1  N   UNL     1       2.082   7.404  19.468  0.00  0.00    +0.000 N 
ATOM      2  C   UNL     1       2.836   7.609  18.325  0.00  0.00    +0.000 C 
ATOM      3  O   UNL     1       3.044   8.680  17.759  0.00  0.00    +0.000 OA
ATOM      4  H   UNL     1       2.042   6.439  19.792  0.00  0.00    +0.000 HD
ENDROOT
BRANCH   1   9
ATOM      5  C   UNL     1      -0.118  10.265  20.354  0.00  0.00    +0.000 A 
ATOM      6  C   UNL     1       0.008  10.276  21.752  0.00  0.00    +0.000 A 
ATOM      7  C   UNL     1       0.863   9.383  22.391  0.00  0.00    +0.000 A 
ATOM      8  C   UNL     1       1.582   8.450  21.645  0.00  0.00    +0.000 A 
ATOM      9  C   UNL     1       1.453   8.390  20.258  0.00  0.00    +0.000 A 
ATOM     10  C   UNL     1       0.621   9.318  19.615  0.00  0.00    +0.000 A 
BRANCH   5  12
ATOM     11  C   UNL     1      -1.530  10.589  18.333  0.00  0.00    +0.000 C 
ATOM     12  C   UNL     1      -1.157  11.171  19.703  0.00  0.00    +0.000 C 
BRANCH  12  13
ATOM     13  C   UNL     1      -0.737  12.609  19.580  0.00  0.00    +0.000 A 
ATOM     14  N   UNL     1       0.329  13.068  18.947  0.00  0.00    +0.000 NA
ATOM     15  N   UNL     1       0.331  14.438  19.034  0.00  0.00    +0.000 NA
ATOM     16  C   UNL     1      -0.731  14.793  19.718  0.00  0.00    +0.000 A 
ATOM     17  N   UNL     1      -1.426  13.684  20.088  0.00  0.00    +0.000 N 
ATOM     18  C   UNL     1      -2.649  13.672  20.843  0.00  0.00    +0.000 C 
ENDBRANCH  12  13
ENDBRANCH   5  12
ENDBRANCH   1   9
BRANCH   2  19
ATOM     19  C   UNL     1       3.453   6.374  17.755  0.00  0.00    +0.000 A 
ATOM     20  C   UNL     1       4.650   6.482  17.075  0.00  0.00    +0.000 A 
ATOM     21  C   UNL     1       5.157   5.306  16.598  0.00  0.00    +0.000 A 
ATOM     22  N   UNL     1       4.545   4.121  16.769  0.00  0.00    +0.000 NA
ATOM     23  C   UNL     1       3.392   4.112  17.467  0.00  0.00    +0.000 A 
ATOM     24  N   UNL     1       2.795   5.208  17.965  0.00  0.00    +0.000 NA
BRANCH  23  25
ATOM     25  C   UNL     1       2.713   2.786  17.698  0.00  0.00    +0.000 C 
BRANCH  25  26
ATOM     26  C   UNL     1       1.349   2.954  18.373  0.00  0.00    +0.000 C 
BRANCH  26  27
ATOM     27  C   UNL     1       1.320   2.397  19.766  0.00  0.00    +0.000 C 
ATOM     28  C   UNL     1       1.166   3.153  20.856  0.00  0.00    +0.000 C 
ATOM     29  F   UNL     1       0.994   4.486  20.747  0.00  0.00    +0.000 F 
ATOM     30  F   UNL     1       1.186   2.576  22.077  0.00  0.00    +0.000 F 
ENDBRANCH  26  27
ENDBRANCH  25  26
ENDBRANCH  23  25
ENDBRANCH   2  19
TORSDOF 7
ENDMDL
