MODEL 1
REMARK VINA RESULT:      -8.0      0.000      0.000
REMARK  Name = 
REMARK  4 active torsions:
REMARK  status: ('A' for Active; 'I' for Inactive)
REMARK    1  A    between atoms: C_2  and  C_16
REMARK    2  A    between atoms: N_3  and  C_4
REMARK    3  A    between atoms: C_7  and  C_8
REMARK    4  A    between atoms: C_20  and  C_21
REMARK                            x       y       z     vdW  Elec       q    Type
REMARK                         _______ _______ _______ _____ _____    ______ ____
ROOT
ATOM      1  O   UNL     1       2.476   8.822  18.008  0.00  0.00    +0.000 OA
ATOM      2  C   UNL     1       2.315   7.810  18.678  0.00  0.00    +0.000 C 
ATOM      3  N   UNL     1       1.675   7.737  19.902  0.00  0.00    +0.000 N 
ATOM      4  H   UNL     1       1.775   6.885  20.442  0.00  0.00    +0.000 HD
ENDROOT
BRANCH   3   5
ATOM      5  C   UNL     1       1.074   8.835  20.550  0.00  0.00    +0.000 A 
ATOM      6  C   UNL     1       1.191   9.121  21.893  0.00  0.00    +0.000 A 
ATOM      7  N   UNL     1       0.571  10.153  22.500  0.00  0.00    +0.000 NA
ATOM      8  C   UNL     1      -0.204  10.937  21.730  0.00  0.00    +0.000 A 
ATOM      9  N   UNL     1      -0.364  10.772  20.400  0.00  0.00    +0.000 NA
ATOM     10  C   UNL     1       0.287   9.727  19.844  0.00  0.00    +0.000 A 
BRANCH   8  11
ATOM     11  C   UNL     1      -0.908  12.045  22.400  0.00  0.00    +0.000 A 
ATOM     12  C   UNL     1      -2.127  11.826  23.075  0.00  0.00    +0.000 A 
ATOM     13  C   UNL     1      -2.792  12.859  23.737  0.00  0.00    +0.000 A 
ATOM     14  C   UNL     1      -2.258  14.141  23.735  0.00  0.00    +0.000 A 
ATOM     15  C   UNL     1      -1.065  14.393  23.064  0.00  0.00    +0.000 A 
ATOM     16  C   UNL     1      -0.399  13.357  22.402  0.00  0.00    +0.000 A 
ENDBRANCH   8  11
ENDBRANCH   3   5
BRANCH   2  17
ATOM     17  C   UNL     1       2.918   6.546  18.192  0.00  0.00    +0.000 A 
ATOM     18  C   UNL     1       4.105   6.624  17.455  0.00  0.00    +0.000 A 
ATOM     19  C   UNL     1       4.708   5.465  16.978  0.00  0.00    +0.000 A 
ATOM     20  C   UNL     1       4.127   4.222  17.234  0.00  0.00    +0.000 A 
ATOM     21  C   UNL     1       2.929   4.128  17.962  0.00  0.00    +0.000 A 
ATOM     22  C   UNL     1       2.320   5.303  18.430  0.00  0.00    +0.000 A 
BRANCH  21  23
ATOM     23  C   UNL     1       2.295   2.790  18.256  0.00  0.00    +0.000 C 
ATOM     24  F   UNL     1       0.937   2.800  18.196  0.00  0.00    +0.000 F 
ATOM     25  F   UNL     1       2.705   1.834  17.377  0.00  0.00    +0.000 F 
ATOM     26  F   UNL     1       2.618   2.323  19.492  0.00  0.00    +0.000 F 
ENDBRANCH  21  23
ENDBRANCH   2  17
TORSDOF 4
ENDMDL
MODEL 2
REMARK VINA RESULT:      -8.0      2.081      2.754
REMARK  Name = 
REMARK  4 active torsions:
REMARK  status: ('A' for Active; 'I' for Inactive)
REMARK    1  A    between atoms: C_2  and  C_16
REMARK    2  A    between atoms: N_3  and  C_4
REMARK    3  A    between atoms: C_7  and  C_8
REMARK    4  A    between atoms: C_20  and  C_21
REMARK                            x       y       z     vdW  Elec       q    Type
REMARK                         _______ _______ _______ _____ _____    ______ ____
ROOT
ATOM      1  O   UNL     1       1.886   9.132  18.515  0.00  0.00    +0.000 OA
ATOM      2  C   UNL     1       1.950   8.163  19.262  0.00  0.00    +0.000 C 
ATOM      3  N   UNL     1       1.384   8.067  20.521  0.00  0.00    +0.000 N 
ATOM      4  H   UNL     1       1.668   7.295  21.114  0.00  0.00    +0.000 HD
ENDROOT
BRANCH   3   5
ATOM      5  C   UNL     1       0.607   9.079  21.120  0.00  0.00    +0.000 A 
ATOM      6  C   UNL     1      -0.297   9.880  20.454  0.00  0.00    +0.000 A 
ATOM      7  N   UNL     1      -0.998  10.871  21.040  0.00  0.00    +0.000 NA
ATOM      8  C   UNL     1      -0.788  11.075  22.352  0.00  0.00    +0.000 A 
ATOM      9  N   UNL     1       0.045  10.330  23.110  0.00  0.00    +0.000 NA
ATOM     10  C   UNL     1       0.716   9.346  22.473  0.00  0.00    +0.000 A 
BRANCH   8  11
ATOM     11  C   UNL     1      -1.530  12.179  22.984  0.00  0.00    +0.000 A 
ATOM     12  C   UNL     1      -2.867  12.009  23.401  0.00  0.00    +0.000 A 
ATOM     13  C   UNL     1      -3.576  13.037  24.024  0.00  0.00    +0.000 A 
ATOM     14  C   UNL     1      -2.967  14.266  24.241  0.00  0.00    +0.000 A 
ATOM     15  C   UNL     1      -1.654  14.471  23.827  0.00  0.00    +0.000 A 
ATOM     16  C   UNL     1      -0.945  13.440  23.203  0.00  0.00    +0.000 A 
ENDBRANCH   8  11
ENDBRANCH   3   5
BRANCH   2  17
ATOM     17  C   UNL     1       2.767   7.003  18.835  0.00  0.00    +0.000 A 
ATOM     18  C   UNL     1       2.711   5.837  19.608  0.00  0.00    +0.000 A 
ATOM     19  C   UNL     1       3.460   4.723  19.247  0.00  0.00    +0.000 A 
ATOM     20  C   UNL     1       4.272   4.768  18.112  0.00  0.00    +0.000 A 
ATOM     21  C   UNL     1       4.348   5.934  17.333  0.00  0.00    +0.000 A 
ATOM     22  C   UNL     1       3.599   7.059  17.710  0.00  0.00    +0.000 A 
BRANCH  21  23
ATOM     23  C   UNL     1       5.213   5.993  16.097  0.00  0.00    +0.000 C 
ATOM     24  F   UNL     1       5.202   4.849  15.362  0.00  0.00    +0.000 F 
ATOM     25  F   UNL     1       4.819   6.987  15.253  0.00  0.00    +0.000 F 
ATOM     26  F   UNL     1       6.518   6.246  16.388  0.00  0.00    +0.000 F 
ENDBRANCH  21  23
ENDBRANCH   2  17
TORSDOF 4
ENDMDL
MODEL 3
REMARK VINA RESULT:      -8.0      0.685      1.058
REMARK  Name = 
REMARK  4 active torsions:
REMARK  status: ('A' for Active; 'I' for Inactive)
REMARK    1  A    between atoms: C_2  and  C_16
REMARK    2  A    between atoms: N_3  and  C_4
REMARK    3  A    between atoms: C_7  and  C_8
REMARK    4  A    between atoms: C_20  and  C_21
REMARK                            x       y       z     vdW  Elec       q    Type
REMARK                         _______ _______ _______ _____ _____    ______ ____
ROOT
ATOM      1  O   UNL     1       1.866   9.350  18.099  0.00  0.00    +0.000 OA
ATOM      2  C   UNL     1       1.943   8.350  18.801  0.00  0.00    +0.000 C 
ATOM      3  N   UNL     1       1.478   8.228  20.098  0.00  0.00    +0.000 N 
ATOM      4  H   UNL     1       1.770   7.420  20.636  0.00  0.00    +0.000 HD
ENDROOT
BRANCH   3   5
ATOM      5  C   UNL     1       0.805   9.250  20.798  0.00  0.00    +0.000 A 
ATOM      6  C   UNL     1       0.887   9.462  22.158  0.00  0.00    +0.000 A 
ATOM      7  N   UNL     1       0.199  10.419  22.813  0.00  0.00    +0.000 NA
ATOM      8  C   UNL     1      -0.610  11.201  22.078  0.00  0.00    +0.000 A 
ATOM      9  N   UNL     1      -0.741  11.106  20.738  0.00  0.00    +0.000 NA
ATOM     10  C   UNL     1      -0.024  10.135  20.133  0.00  0.00    +0.000 A 
BRANCH   8  11
ATOM     11  C   UNL     1      -1.386  12.225  22.799  0.00  0.00    +0.000 A 
ATOM     12  C   UNL     1      -2.671  11.937  23.305  0.00  0.00    +0.000 A 
ATOM     13  C   UNL     1      -3.409  12.887  24.013  0.00  0.00    +0.000 A 
ATOM     14  C   UNL     1      -2.881  14.154  24.229  0.00  0.00    +0.000 A 
ATOM     15  C   UNL     1      -1.622  14.474  23.729  0.00  0.00    +0.000 A 
ATOM     16  C   UNL     1      -0.885  13.521  23.020  0.00  0.00    +0.000 A 
ENDBRANCH   8  11
ENDBRANCH   3   5
BRANCH   2  17
ATOM     17  C   UNL     1       2.662   7.171  18.264  0.00  0.00    +0.000 A 
ATOM     18  C   UNL     1       3.885   7.384  17.617  0.00  0.00    +0.000 A 
ATOM     19  C   UNL     1       4.597   6.309  17.097  0.00  0.00    +0.000 A 
ATOM     20  C   UNL     1       4.090   5.014  17.218  0.00  0.00    +0.000 A 
ATOM     21  C   UNL     1       2.858   4.785  17.853  0.00  0.00    +0.000 A 
ATOM     22  C   UNL     1       2.139   5.876  18.366  0.00  0.00    +0.000 A 
BRANCH  21  23
ATOM     23  C   UNL     1       2.302   3.390  18.001  0.00  0.00    +0.000 C 
ATOM     24  F   UNL     1       2.863   2.678  19.015  0.00  0.00    +0.000 F 
ATOM     25  F   UNL     1       0.962   3.404  18.245  0.00  0.00    +0.000 F 
ATOM     26  F   UNL     1       2.467   2.643  16.876  0.00  0.00    +0.000 F 
ENDBRANCH  21  23
ENDBRANCH   2  17
TORSDOF 4
ENDMDL
MODEL 4
REMARK VINA RESULT:      -7.9      1.882      2.574
REMARK  Name = 
REMARK  4 active torsions:
REMARK  status: ('A' for Active; 'I' for Inactive)
REMARK    1  A    between atoms: C_2  and  C_16
REMARK    2  A    between atoms: N_3  and  C_4
REMARK    3  A    between atoms: C_7  and  C_8
REMARK    4  A    between atoms: C_20  and  C_21
REMARK                            x       y       z     vdW  Elec       q    Type
REMARK                         _______ _______ _______ _____ _____    ______ ____
ROOT
ATOM      1  O   UNL     1       2.130   8.803  18.683  0.00  0.00    +0.000 OA
ATOM      2  C   UNL     1       2.138   7.853  19.456  0.00  0.00    +0.000 C 
ATOM      3  N   UNL     1       1.580   7.829  20.722  0.00  0.00    +0.000 N 
ATOM      4  H   UNL     1       1.818   7.057  21.334  0.00  0.00    +0.000 HD
ENDROOT
BRANCH   3   5
ATOM      5  C   UNL     1       0.877   8.906  21.299  0.00  0.00    +0.000 A 
ATOM      6  C   UNL     1       0.848   9.200  22.646  0.00  0.00    +0.000 A 
ATOM      7  N   UNL     1       0.133  10.210  23.180  0.00  0.00    +0.000 NA
ATOM      8  C   UNL     1      -0.589  10.963  22.332  0.00  0.00    +0.000 A 
ATOM      9  N   UNL     1      -0.608  10.789  20.994  0.00  0.00    +0.000 NA
ATOM     10  C   UNL     1       0.132   9.767  20.512  0.00  0.00    +0.000 A 
BRANCH   8  11
ATOM     11  C   UNL     1      -1.396  12.045  22.921  0.00  0.00    +0.000 A 
ATOM     12  C   UNL     1      -0.858  13.337  23.096  0.00  0.00    +0.000 A 
ATOM     13  C   UNL     1      -1.617  14.381  23.628  0.00  0.00    +0.000 A 
ATOM     14  C   UNL     1      -2.934  14.156  24.006  0.00  0.00    +0.000 A 
ATOM     15  C   UNL     1      -3.490  12.889  23.861  0.00  0.00    +0.000 A 
ATOM     16  C   UNL     1      -2.728  11.845  23.327  0.00  0.00    +0.000 A 
ENDBRANCH   8  11
ENDBRANCH   3   5
BRANCH   2  17
ATOM     17  C   UNL     1       2.873   6.631  19.056  0.00  0.00    +0.000 A 
ATOM     18  C   UNL     1       2.782   5.506  19.884  0.00  0.00    +0.000 A 
ATOM     19  C   UNL     1       3.454   4.335  19.549  0.00  0.00    +0.000 A 
ATOM     20  C   UNL     1       4.222   4.282  18.385  0.00  0.00    +0.000 A 
ATOM     21  C   UNL     1       4.333   5.406  17.549  0.00  0.00    +0.000 A 
ATOM     22  C   UNL     1       3.662   6.587  17.900  0.00  0.00    +0.000 A 
BRANCH  21  23
ATOM     23  C   UNL     1       5.151   5.359  16.282  0.00  0.00    +0.000 C 
ATOM     24  F   UNL     1       4.871   4.293  15.485  0.00  0.00    +0.000 F 
ATOM     25  F   UNL     1       4.954   6.467  15.514  0.00  0.00    +0.000 F 
ATOM     26  F   UNL     1       6.488   5.310  16.528  0.00  0.00    +0.000 F 
ENDBRANCH  21  23
ENDBRANCH   2  17
TORSDOF 4
ENDMDL
MODEL 5
REMARK VINA RESULT:      -7.9      1.478      1.940
REMARK  Name = 
REMARK  4 active torsions:
REMARK  status: ('A' for Active; 'I' for Inactive)
REMARK    1  A    between atoms: C_2  and  C_16
REMARK    2  A    between atoms: N_3  and  C_4
REMARK    3  A    between atoms: C_7  and  C_8
REMARK    4  A    between atoms: C_20  and  C_21
REMARK                            x       y       z     vdW  Elec       q    Type
REMARK                         _______ _______ _______ _____ _____    ______ ____
ROOT
ATOM      1  O   UNL     1       2.070   8.720  19.299  0.00  0.00    +0.000 OA
ATOM      2  C   UNL     1       1.754   7.782  20.021  0.00  0.00    +0.000 C 
ATOM      3  N   UNL     1       0.921   7.848  21.123  0.00  0.00    +0.000 N 
ATOM      4  H   UNL     1       0.891   7.050  21.746  0.00  0.00    +0.000 HD
ENDROOT
BRANCH   3   5
ATOM      5  C   UNL     1       0.276   9.023  21.560  0.00  0.00    +0.000 A 
ATOM      6  C   UNL     1      -0.345   9.937  20.736  0.00  0.00    +0.000 A 
ATOM      7  N   UNL     1      -0.918  11.076  21.172  0.00  0.00    +0.000 NA
ATOM      8  C   UNL     1      -0.869  11.317  22.494  0.00  0.00    +0.000 A 
ATOM      9  N   UNL     1      -0.318  10.478  23.396  0.00  0.00    +0.000 NA
ATOM     10  C   UNL     1       0.235   9.348  22.904  0.00  0.00    +0.000 A 
BRANCH   8  11
ATOM     11  C   UNL     1      -1.466  12.579  22.965  0.00  0.00    +0.000 A 
ATOM     12  C   UNL     1      -2.772  12.608  23.497  0.00  0.00    +0.000 A 
ATOM     13  C   UNL     1      -3.344  13.789  23.973  0.00  0.00    +0.000 A 
ATOM     14  C   UNL     1      -2.623  14.976  23.922  0.00  0.00    +0.000 A 
ATOM     15  C   UNL     1      -1.338  14.984  23.388  0.00  0.00    +0.000 A 
ATOM     16  C   UNL     1      -0.767  13.799  22.913  0.00  0.00    +0.000 A 
ENDBRANCH   8  11
ENDBRANCH   3   5
BRANCH   2  17
ATOM     17  C   UNL     1       2.366   6.459  19.757  0.00  0.00    +0.000 A 
ATOM     18  C   UNL     1       3.395   6.386  18.810  0.00  0.00    +0.000 A 
ATOM     19  C   UNL     1       4.001   5.166  18.529  0.00  0.00    +0.000 A 
ATOM     20  C   UNL     1       3.580   4.011  19.191  0.00  0.00    +0.000 A 
ATOM     21  C   UNL     1       2.541   4.066  20.135  0.00  0.00    +0.000 A 
ATOM     22  C   UNL     1       1.927   5.298  20.405  0.00  0.00    +0.000 A 
BRANCH  21  23
ATOM     23  C   UNL     1       2.083   2.828  20.867  0.00  0.00    +0.000 C 
ATOM     24  F   UNL     1       0.878   2.965  21.481  0.00  0.00    +0.000 F 
ATOM     25  F   UNL     1       1.959   1.763  20.026  0.00  0.00    +0.000 F 
ATOM     26  F   UNL     1       2.961   2.440  21.832  0.00  0.00    +0.000 F 
ENDBRANCH  21  23
ENDBRANCH   2  17
TORSDOF 4
ENDMDL
MODEL 6
REMARK VINA RESULT:      -7.9      1.389      2.117
REMARK  Name = 
REMARK  4 active torsions:
REMARK  status: ('A' for Active; 'I' for Inactive)
REMARK    1  A    between atoms: C_2  and  C_16
REMARK    2  A    between atoms: N_3  and  C_4
REMARK    3  A    between atoms: C_7  and  C_8
REMARK    4  A    between atoms: C_20  and  C_21
REMARK                            x       y       z     vdW  Elec       q    Type
REMARK                         _______ _______ _______ _____ _____    ______ ____
ROOT
ATOM      1  O   UNL     1       1.921   8.730  19.028  0.00  0.00    +0.000 OA
ATOM      2  C   UNL     1       1.789   7.805  19.821  0.00  0.00    +0.000 C 
ATOM      3  N   UNL     1       1.091   7.849  21.014  0.00  0.00    +0.000 N 
ATOM      4  H   UNL     1       1.216   7.084  21.668  0.00  0.00    +0.000 HD
ENDROOT
BRANCH   3   5
ATOM      5  C   UNL     1       0.388   8.978  21.481  0.00  0.00    +0.000 A 
ATOM      6  C   UNL     1      -0.291   9.872  20.681  0.00  0.00    +0.000 A 
ATOM      7  N   UNL     1      -0.920  10.970  21.145  0.00  0.00    +0.000 NA
ATOM      8  C   UNL     1      -0.868  11.189  22.471  0.00  0.00    +0.000 A 
ATOM      9  N   UNL     1      -0.263  10.364  23.351  0.00  0.00    +0.000 NA
ATOM     10  C   UNL     1       0.345   9.275  22.831  0.00  0.00    +0.000 A 
BRANCH   8  11
ATOM     11  C   UNL     1      -1.528  12.407  22.973  0.00  0.00    +0.000 A 
ATOM     12  C   UNL     1      -0.842  13.639  23.012  0.00  0.00    +0.000 A 
ATOM     13  C   UNL     1      -1.459  14.807  23.460  0.00  0.00    +0.000 A 
ATOM     14  C   UNL     1      -2.781  14.772  23.887  0.00  0.00    +0.000 A 
ATOM     15  C   UNL     1      -3.480  13.569  23.876  0.00  0.00    +0.000 A 
ATOM     16  C   UNL     1      -2.860  12.399  23.426  0.00  0.00    +0.000 A 
ENDBRANCH   8  11
ENDBRANCH   3   5
BRANCH   2  17
ATOM     17  C   UNL     1       2.495   6.534  19.536  0.00  0.00    +0.000 A 
ATOM     18  C   UNL     1       3.393   6.505  18.463  0.00  0.00    +0.000 A 
ATOM     19  C   UNL     1       4.080   5.335  18.157  0.00  0.00    +0.000 A 
ATOM     20  C   UNL     1       3.870   4.185  18.921  0.00  0.00    +0.000 A 
ATOM     21  C   UNL     1       2.964   4.195  19.994  0.00  0.00    +0.000 A 
ATOM     22  C   UNL     1       2.266   5.376  20.289  0.00  0.00    +0.000 A 
BRANCH  21  23
ATOM     23  C   UNL     1       2.736   2.963  20.836  0.00  0.00    +0.000 C 
ATOM     24  F   UNL     1       1.816   2.105  20.319  0.00  0.00    +0.000 F 
ATOM     25  F   UNL     1       3.880   2.240  20.992  0.00  0.00    +0.000 F 
ATOM     26  F   UNL     1       2.311   3.264  22.093  0.00  0.00    +0.000 F 
ENDBRANCH  21  23
ENDBRANCH   2  17
TORSDOF 4
ENDMDL
MODEL 7
REMARK VINA RESULT:      -7.9      0.548      1.470
REMARK  Name = 
REMARK  4 active torsions:
REMARK  status: ('A' for Active; 'I' for Inactive)
REMARK    1  A    between atoms: C_2  and  C_16
REMARK    2  A    between atoms: N_3  and  C_4
REMARK    3  A    between atoms: C_7  and  C_8
REMARK    4  A    between atoms: C_20  and  C_21
REMARK                            x       y       z     vdW  Elec       q    Type
REMARK                         _______ _______ _______ _____ _____    ______ ____
ROOT
ATOM      1  O   UNL     1       2.165   9.072  17.885  0.00  0.00    +0.000 OA
ATOM      2  C   UNL     1       2.215   8.075  18.595  0.00  0.00    +0.000 C 
ATOM      3  N   UNL     1       1.670   7.949  19.860  0.00  0.00    +0.000 N 
ATOM      4  H   UNL     1       1.942   7.148  20.418  0.00  0.00    +0.000 HD
ENDROOT
BRANCH   3   5
ATOM      5  C   UNL     1       0.932   8.959  20.510  0.00  0.00    +0.000 A 
ATOM      6  C   UNL     1       0.012   9.783  19.899  0.00  0.00    +0.000 A 
ATOM      7  N   UNL     1      -0.650  10.772  20.531  0.00  0.00    +0.000 NA
ATOM      8  C   UNL     1      -0.381  10.949  21.837  0.00  0.00    +0.000 A 
ATOM      9  N   UNL     1       0.473  10.181  22.544  0.00  0.00    +0.000 NA
ATOM     10  C   UNL     1       1.103   9.200  21.861  0.00  0.00    +0.000 A 
BRANCH   8  11
ATOM     11  C   UNL     1      -1.081  12.051  22.520  0.00  0.00    +0.000 A 
ATOM     12  C   UNL     1      -0.544  13.356  22.527  0.00  0.00    +0.000 A 
ATOM     13  C   UNL     1      -1.206  14.417  23.146  0.00  0.00    +0.000 A 
ATOM     14  C   UNL     1      -2.422  14.198  23.781  0.00  0.00    +0.000 A 
ATOM     15  C   UNL     1      -2.971  12.919  23.805  0.00  0.00    +0.000 A 
ATOM     16  C   UNL     1      -2.306  11.858  23.183  0.00  0.00    +0.000 A 
ENDBRANCH   8  11
ENDBRANCH   3   5
BRANCH   2  17
ATOM     17  C   UNL     1       2.991   6.910  18.111  0.00  0.00    +0.000 A 
ATOM     18  C   UNL     1       4.154   7.154  17.371  0.00  0.00    +0.000 A 
ATOM     19  C   UNL     1       4.916   6.091  16.895  0.00  0.00    +0.000 A 
ATOM     20  C   UNL     1       4.518   4.779  17.154  0.00  0.00    +0.000 A 
ATOM     21  C   UNL     1       3.347   4.517  17.886  0.00  0.00    +0.000 A 
ATOM     22  C   UNL     1       2.577   5.594  18.352  0.00  0.00    +0.000 A 
BRANCH  21  23
ATOM     23  C   UNL     1       2.911   3.104  18.183  0.00  0.00    +0.000 C 
ATOM     24  F   UNL     1       2.024   3.006  19.209  0.00  0.00    +0.000 F 
ATOM     25  F   UNL     1       2.308   2.525  17.107  0.00  0.00    +0.000 F 
ATOM     26  F   UNL     1       3.956   2.294  18.505  0.00  0.00    +0.000 F 
ENDBRANCH  21  23
ENDBRANCH   2  17
TORSDOF 4
ENDMDL
MODEL 8
REMARK VINA RESULT:      -7.9      2.101      2.604
REMARK  Name = 
REMARK  4 active torsions:
REMARK  status: ('A' for Active; 'I' for Inactive)
REMARK    1  A    between atoms: C_2  and  C_16
REMARK    2  A    between atoms: N_3  and  C_4
REMARK    3  A    between atoms: C_7  and  C_8
REMARK    4  A    between atoms: C_20  and  C_21
REMARK                            x       y       z     vdW  Elec       q    Type
REMARK                         _______ _______ _______ _____ _____    ______ ____
ROOT
ATOM      1  O   UNL     1       1.482   8.892  18.549  0.00  0.00    +0.000 OA
ATOM      2  C   UNL     1       1.884   8.112  19.403  0.00  0.00    +0.000 C 
ATOM      3  N   UNL     1       1.664   8.212  20.765  0.00  0.00    +0.000 N 
ATOM      4  H   UNL     1       2.207   7.616  21.380  0.00  0.00    +0.000 HD
ENDROOT
BRANCH   3   5
ATOM      5  C   UNL     1       0.900   9.228  21.372  0.00  0.00    +0.000 A 
ATOM      6  C   UNL     1       0.562   9.271  22.709  0.00  0.00    +0.000 A 
ATOM      7  N   UNL     1      -0.207  10.231  23.259  0.00  0.00    +0.000 NA
ATOM      8  C   UNL     1      -0.663  11.194  22.439  0.00  0.00    +0.000 A 
ATOM      9  N   UNL     1      -0.367  11.271  21.125  0.00  0.00    +0.000 NA
ATOM     10  C   UNL     1       0.413  10.287  20.628  0.00  0.00    +0.000 A 
BRANCH   8  11
ATOM     11  C   UNL     1      -1.531  12.224  23.036  0.00  0.00    +0.000 A 
ATOM     12  C   UNL     1      -2.842  11.914  23.454  0.00  0.00    +0.000 A 
ATOM     13  C   UNL     1      -3.668  12.870  24.046  0.00  0.00    +0.000 A 
ATOM     14  C   UNL     1      -3.205  14.167  24.228  0.00  0.00    +0.000 A 
ATOM     15  C   UNL     1      -1.922  14.510  23.812  0.00  0.00    +0.000 A 
ATOM     16  C   UNL     1      -1.095  13.549  23.221  0.00  0.00    +0.000 A 
ENDBRANCH   8  11
ENDBRANCH   3   5
BRANCH   2  17
ATOM     17  C   UNL     1       2.752   6.991  18.973  0.00  0.00    +0.000 A 
ATOM     18  C   UNL     1       2.816   5.856  19.790  0.00  0.00    +0.000 A 
ATOM     19  C   UNL     1       3.618   4.778  19.427  0.00  0.00    +0.000 A 
ATOM     20  C   UNL     1       4.362   4.830  18.248  0.00  0.00    +0.000 A 
ATOM     21  C   UNL     1       4.317   5.966  17.423  0.00  0.00    +0.000 A 
ATOM     22  C   UNL     1       3.516   7.054  17.801  0.00  0.00    +0.000 A 
BRANCH  21  23
ATOM     23  C   UNL     1       5.107   6.031  16.139  0.00  0.00    +0.000 C 
ATOM     24  F   UNL     1       4.735   7.047  15.314  0.00  0.00    +0.000 F 
ATOM     25  F   UNL     1       6.438   6.204  16.373  0.00  0.00    +0.000 F 
ATOM     26  F   UNL     1       5.003   4.889  15.406  0.00  0.00    +0.000 F 
ENDBRANCH  21  23
ENDBRANCH   2  17
TORSDOF 4
ENDMDL
MODEL 9
REMARK VINA RESULT:      -7.9      0.290      1.287
REMARK  Name = 
REMARK  4 active torsions:
REMARK  status: ('A' for Active; 'I' for Inactive)
REMARK    1  A    between atoms: C_2  and  C_16
REMARK    2  A    between atoms: N_3  and  C_4
REMARK    3  A    between atoms: C_7  and  C_8
REMARK    4  A    between atoms: C_20  and  C_21
REMARK                            x       y       z     vdW  Elec       q    Type
REMARK                         _______ _______ _______ _____ _____    ______ ____
ROOT
ATOM      1  O   UNL     1       2.031   8.924  17.911  0.00  0.00    +0.000 OA
ATOM      2  C   UNL     1       2.104   7.955  18.657  0.00  0.00    +0.000 C 
ATOM      3  N   UNL     1       1.662   7.901  19.967  0.00  0.00    +0.000 N 
ATOM      4  H   UNL     1       1.951   7.113  20.535  0.00  0.00    +0.000 HD
ENDROOT
BRANCH   3   5
ATOM      5  C   UNL     1       1.019   8.965  20.631  0.00  0.00    +0.000 A 
ATOM      6  C   UNL     1       1.080   9.202  21.988  0.00  0.00    +0.000 A 
ATOM      7  N   UNL     1       0.421  10.200  22.608  0.00  0.00    +0.000 NA
ATOM      8  C   UNL     1      -0.336  11.003  21.839  0.00  0.00    +0.000 A 
ATOM      9  N   UNL     1      -0.442  10.886  20.499  0.00  0.00    +0.000 NA
ATOM     10  C   UNL     1       0.246   9.872  19.930  0.00  0.00    +0.000 A 
BRANCH   8  11
ATOM     11  C   UNL     1      -1.082  12.074  22.523  0.00  0.00    +0.000 A 
ATOM     12  C   UNL     1      -0.613  13.404  22.512  0.00  0.00    +0.000 A 
ATOM     13  C   UNL     1      -1.320  14.435  23.132  0.00  0.00    +0.000 A 
ATOM     14  C   UNL     1      -2.514  14.160  23.785  0.00  0.00    +0.000 A 
ATOM     15  C   UNL     1      -2.996  12.855  23.828  0.00  0.00    +0.000 A 
ATOM     16  C   UNL     1      -2.286  11.824  23.206  0.00  0.00    +0.000 A 
ENDBRANCH   8  11
ENDBRANCH   3   5
BRANCH   2  17
ATOM     17  C   UNL     1       2.793   6.741  18.162  0.00  0.00    +0.000 A 
ATOM     18  C   UNL     1       3.983   6.905  17.443  0.00  0.00    +0.000 A 
ATOM     19  C   UNL     1       4.667   5.795  16.959  0.00  0.00    +0.000 A 
ATOM     20  C   UNL     1       4.163   4.514  17.187  0.00  0.00    +0.000 A 
ATOM     21  C   UNL     1       2.964   4.332  17.897  0.00  0.00    +0.000 A 
ATOM     22  C   UNL     1       2.274   5.458  18.373  0.00  0.00    +0.000 A 
BRANCH  21  23
ATOM     23  C   UNL     1       2.413   2.952  18.161  0.00  0.00    +0.000 C 
ATOM     24  F   UNL     1       3.071   2.275  19.140  0.00  0.00    +0.000 F 
ATOM     25  F   UNL     1       1.107   2.995  18.545  0.00  0.00    +0.000 F 
ATOM     26  F   UNL     1       2.451   2.157  17.057  0.00  0.00    +0.000 F 
ENDBRANCH  21  23
ENDBRANCH   2  17
TORSDOF 4
ENDMDL
