MODEL 1
REMARK VINA RESULT:      -8.3      0.000      0.000
REMARK  Name = 
REMARK  6 active torsions:
REMARK  status: ('A' for Active; 'I' for Inactive)
REMARK    1  A    between atoms: C_1  and  N_2
REMARK    2  A    between atoms: N_2  and  C_24
REMARK    3  A    between atoms: C_3  and  C_5
REMARK    4  A    between atoms: C_9  and  S_10
REMARK    5  A    between atoms: S_10  and  N_13
REMARK    6  A    between atoms: C_21  and  O_22
REMARK                            x       y       z     vdW  Elec       q    Type
REMARK                         _______ _______ _______ _____ _____    ______ ____
ROOT
ATOM      1  C   UNL     1       1.829   7.133  19.619  0.00  0.00    +0.000 A 
ATOM      2  C   UNL     1       1.385   6.579  20.824  0.00  0.00    +0.000 A 
ATOM      3  C   UNL     1       1.678   5.252  21.138  0.00  0.00    +0.000 A 
ATOM      4  C   UNL     1       2.345   4.447  20.213  0.00  0.00    +0.000 A 
ATOM      5  C   UNL     1       2.691   4.951  18.950  0.00  0.00    +0.000 A 
ATOM      6  C   UNL     1       2.467   6.307  18.670  0.00  0.00    +0.000 A 
ENDROOT
BRANCH   1   9
ATOM      7  C   UNL     1       0.092   8.916  21.332  0.00  0.00    +0.000 C 
ATOM      8  N   UNL     1       0.711   9.354  20.075  0.00  0.00    +0.000 N 
ATOM      9  C   UNL     1       1.559   8.562  19.271  0.00  0.00    +0.000 C 
ATOM     10  O   UNL     1       2.168   8.974  18.280  0.00  0.00    +0.000 OA
BRANCH   8  11
ATOM     11  C   UNL     1       0.361  10.692  19.666  0.00  0.00    +0.000 A 
ATOM     12  C   UNL     1       1.150  11.796  20.020  0.00  0.00    +0.000 A 
ATOM     13  C   UNL     1       0.847  13.071  19.514  0.00  0.00    +0.000 A 
ATOM     14  C   UNL     1      -0.238  13.269  18.674  0.00  0.00    +0.000 A 
ATOM     15  C   UNL     1      -1.048  12.190  18.340  0.00  0.00    +0.000 A 
ATOM     16  C   UNL     1      -0.749  10.916  18.829  0.00  0.00    +0.000 A 
ENDBRANCH   8  11
ENDBRANCH   1   9
BRANCH   5  17
ATOM     17  S   UNL     1       3.546   3.888  17.785  0.00  0.00    +0.000 S 
ATOM     18  O   UNL     1       4.235   2.910  18.603  0.00  0.00    +0.000 OA
ATOM     19  O   UNL     1       2.588   3.462  16.783  0.00  0.00    +0.000 OA
BRANCH  17  20
ATOM     20  N   UNL     1       4.720   4.781  16.999  0.00  0.00    +0.000 NA
ATOM     21  C   UNL     1       5.479   4.242  15.869  0.00  0.00    +0.000 C 
ATOM     22  C   UNL     1       6.827   4.925  16.005  0.00  0.00    +0.000 C 
ATOM     23  C   UNL     1       7.650   4.415  17.214  0.00  0.00    +0.000 C 
ATOM     24  C   UNL     1       7.608   5.600  18.210  0.00  0.00    +0.000 C 
ATOM     25  C   UNL     1       7.707   6.774  17.244  0.00  0.00    +0.000 C 
ATOM     26  C   UNL     1       6.468   6.350  16.450  0.00  0.00    +0.000 C 
ATOM     27  C   UNL     1       5.348   6.032  17.498  0.00  0.00    +0.000 C 
ATOM     28  C   UNL     1       6.202   5.885  18.768  0.00  0.00    +0.000 C 
BRANCH  28  29
ATOM     29  O   UNL     1       5.777   4.946  19.711  0.00  0.00    +0.000 OA
ATOM     30  H   UNL     1       5.215   5.402  20.360  0.00  0.00    +0.000 HD
ENDBRANCH  28  29
ENDBRANCH  17  20
ENDBRANCH   5  17
TORSDOF 5
ENDMDL
MODEL 2
REMARK VINA RESULT:      -8.2      1.462      2.113
REMARK  Name = 
REMARK  6 active torsions:
REMARK  status: ('A' for Active; 'I' for Inactive)
REMARK    1  A    between atoms: C_1  and  N_2
REMARK    2  A    between atoms: N_2  and  C_24
REMARK    3  A    between atoms: C_3  and  C_5
REMARK    4  A    between atoms: C_9  and  S_10
REMARK    5  A    between atoms: S_10  and  N_13
REMARK    6  A    between atoms: C_21  and  O_22
REMARK                            x       y       z     vdW  Elec       q    Type
REMARK                         _______ _______ _______ _____ _____    ______ ____
ROOT
ATOM      1  C   UNL     1       1.889   7.040  20.294  0.00  0.00    +0.000 A 
ATOM      2  C   UNL     1       1.045   6.065  20.835  0.00  0.00    +0.000 A 
ATOM      3  C   UNL     1       1.466   4.738  20.917  0.00  0.00    +0.000 A 
ATOM      4  C   UNL     1       2.700   4.362  20.385  0.00  0.00    +0.000 A 
ATOM      5  C   UNL     1       3.508   5.304  19.730  0.00  0.00    +0.000 A 
ATOM      6  C   UNL     1       3.119   6.651  19.720  0.00  0.00    +0.000 A 
ENDROOT
BRANCH   1   9
ATOM      7  C   UNL     1       1.659   8.530  17.675  0.00  0.00    +0.000 C 
ATOM      8  N   UNL     1       1.419   9.150  18.985  0.00  0.00    +0.000 N 
ATOM      9  C   UNL     1       1.478   8.476  20.223  0.00  0.00    +0.000 C 
ATOM     10  O   UNL     1       1.161   8.974  21.306  0.00  0.00    +0.000 OA
BRANCH   8  11
ATOM     11  C   UNL     1       1.139  10.564  18.938  0.00  0.00    +0.000 A 
ATOM     12  C   UNL     1       2.105  11.489  18.517  0.00  0.00    +0.000 A 
ATOM     13  C   UNL     1       1.770  12.845  18.375  0.00  0.00    +0.000 A 
ATOM     14  C   UNL     1       0.492  13.301  18.662  0.00  0.00    +0.000 A 
ATOM     15  C   UNL     1      -0.468  12.402  19.112  0.00  0.00    +0.000 A 
ATOM     16  C   UNL     1      -0.147  11.049  19.246  0.00  0.00    +0.000 A 
ENDBRANCH   8  11
ENDBRANCH   1   9
BRANCH   5  17
ATOM     17  S   UNL     1       5.088   4.787  19.055  0.00  0.00    +0.000 S 
ATOM     18  O   UNL     1       6.068   5.642  19.696  0.00  0.00    +0.000 OA
ATOM     19  O   UNL     1       5.179   3.345  19.182  0.00  0.00    +0.000 OA
BRANCH  17  20
ATOM     20  N   UNL     1       5.122   5.143  17.423  0.00  0.00    +0.000 NA
ATOM     21  C   UNL     1       4.123   4.614  16.492  0.00  0.00    +0.000 C 
ATOM     22  C   UNL     1       4.904   4.469  15.199  0.00  0.00    +0.000 C 
ATOM     23  C   UNL     1       5.941   3.319  15.239  0.00  0.00    +0.000 C 
ATOM     24  C   UNL     1       7.301   4.058  15.289  0.00  0.00    +0.000 C 
ATOM     25  C   UNL     1       7.012   5.231  14.361  0.00  0.00    +0.000 C 
ATOM     26  C   UNL     1       5.810   5.708  15.181  0.00  0.00    +0.000 C 
ATOM     27  C   UNL     1       6.267   5.731  16.679  0.00  0.00    +0.000 C 
ATOM     28  C   UNL     1       7.523   4.850  16.591  0.00  0.00    +0.000 C 
BRANCH  28  29
ATOM     29  O   UNL     1       7.808   4.041  17.693  0.00  0.00    +0.000 OA
ATOM     30  H   UNL     1       7.905   4.614  18.472  0.00  0.00    +0.000 HD
ENDBRANCH  28  29
ENDBRANCH  17  20
ENDBRANCH   5  17
TORSDOF 5
ENDMDL
MODEL 3
REMARK VINA RESULT:      -8.1      1.289      1.863
REMARK  Name = 
REMARK  6 active torsions:
REMARK  status: ('A' for Active; 'I' for Inactive)
REMARK    1  A    between atoms: C_1  and  N_2
REMARK    2  A    between atoms: N_2  and  C_24
REMARK    3  A    between atoms: C_3  and  C_5
REMARK    4  A    between atoms: C_9  and  S_10
REMARK    5  A    between atoms: S_10  and  N_13
REMARK    6  A    between atoms: C_21  and  O_22
REMARK                            x       y       z     vdW  Elec       q    Type
REMARK                         _______ _______ _______ _____ _____    ______ ____
ROOT
ATOM      1  C   UNL     1       1.888   7.217  20.052  0.00  0.00    +0.000 A 
ATOM      2  C   UNL     1       1.102   6.337  20.802  0.00  0.00    +0.000 A 
ATOM      3  C   UNL     1       1.563   5.052  21.089  0.00  0.00    +0.000 A 
ATOM      4  C   UNL     1       2.776   4.611  20.558  0.00  0.00    +0.000 A 
ATOM      5  C   UNL     1       3.520   5.437  19.703  0.00  0.00    +0.000 A 
ATOM      6  C   UNL     1       3.094   6.755  19.482  0.00  0.00    +0.000 A 
ENDROOT
BRANCH   1   9
ATOM      7  C   UNL     1       1.128   9.167  22.231  0.00  0.00    +0.000 C 
ATOM      8  N   UNL     1       1.050   9.482  20.798  0.00  0.00    +0.000 N 
ATOM      9  C   UNL     1       1.435   8.611  19.757  0.00  0.00    +0.000 C 
ATOM     10  O   UNL     1       1.477   8.924  18.564  0.00  0.00    +0.000 OA
BRANCH   8  11
ATOM     11  C   UNL     1       0.501  10.780  20.497  0.00  0.00    +0.000 A 
ATOM     12  C   UNL     1       1.320  11.912  20.374  0.00  0.00    +0.000 A 
ATOM     13  C   UNL     1       0.772  13.140  19.970  0.00  0.00    +0.000 A 
ATOM     14  C   UNL     1      -0.584  13.265  19.700  0.00  0.00    +0.000 A 
ATOM     15  C   UNL     1      -1.413  12.160  19.849  0.00  0.00    +0.000 A 
ATOM     16  C   UNL     1      -0.876  10.932  20.240  0.00  0.00    +0.000 A 
ENDBRANCH   8  11
ENDBRANCH   1   9
BRANCH   5  17
ATOM     17  S   UNL     1       5.074   4.838  19.037  0.00  0.00    +0.000 S 
ATOM     18  O   UNL     1       6.094   5.647  19.674  0.00  0.00    +0.000 OA
ATOM     19  O   UNL     1       5.092   3.394  19.173  0.00  0.00    +0.000 OA
BRANCH  17  20
ATOM     20  N   UNL     1       5.130   5.181  17.402  0.00  0.00    +0.000 NA
ATOM     21  C   UNL     1       4.130   4.664  16.466  0.00  0.00    +0.000 C 
ATOM     22  C   UNL     1       4.920   4.494  15.181  0.00  0.00    +0.000 C 
ATOM     23  C   UNL     1       5.935   3.326  15.239  0.00  0.00    +0.000 C 
ATOM     24  C   UNL     1       7.309   4.040  15.296  0.00  0.00    +0.000 C 
ATOM     25  C   UNL     1       7.050   5.210  14.357  0.00  0.00    +0.000 C 
ATOM     26  C   UNL     1       5.849   5.716  15.162  0.00  0.00    +0.000 C 
ATOM     27  C   UNL     1       6.292   5.742  16.665  0.00  0.00    +0.000 C 
ATOM     28  C   UNL     1       7.533   4.837  16.595  0.00  0.00    +0.000 C 
BRANCH  28  29
ATOM     29  O   UNL     1       7.792   4.031  17.706  0.00  0.00    +0.000 OA
ATOM     30  H   UNL     1       7.369   3.169  17.559  0.00  0.00    +0.000 HD
ENDBRANCH  28  29
ENDBRANCH  17  20
ENDBRANCH   5  17
TORSDOF 5
ENDMDL
MODEL 4
REMARK VINA RESULT:      -8.0      1.063      1.318
REMARK  Name = 
REMARK  6 active torsions:
REMARK  status: ('A' for Active; 'I' for Inactive)
REMARK    1  A    between atoms: C_1  and  N_2
REMARK    2  A    between atoms: N_2  and  C_24
REMARK    3  A    between atoms: C_3  and  C_5
REMARK    4  A    between atoms: C_9  and  S_10
REMARK    5  A    between atoms: S_10  and  N_13
REMARK    6  A    between atoms: C_21  and  O_22
REMARK                            x       y       z     vdW  Elec       q    Type
REMARK                         _______ _______ _______ _____ _____    ______ ____
ROOT
ATOM      1  C   UNL     1       1.865   6.577  20.105  0.00  0.00    +0.000 A 
ATOM      2  C   UNL     1       1.495   5.764  21.181  0.00  0.00    +0.000 A 
ATOM      3  C   UNL     1       1.811   4.405  21.177  0.00  0.00    +0.000 A 
ATOM      4  C   UNL     1       2.424   3.834  20.061  0.00  0.00    +0.000 A 
ATOM      5  C   UNL     1       2.692   4.610  18.923  0.00  0.00    +0.000 A 
ATOM      6  C   UNL     1       2.448   5.990  18.961  0.00  0.00    +0.000 A 
ENDROOT
BRANCH   1   9
ATOM      7  C   UNL     1       1.735   8.187  17.551  0.00  0.00    +0.000 C 
ATOM      8  N   UNL     1       1.556   8.771  18.888  0.00  0.00    +0.000 N 
ATOM      9  C   UNL     1       1.571   8.043  20.097  0.00  0.00    +0.000 C 
ATOM     10  O   UNL     1       1.303   8.520  21.203  0.00  0.00    +0.000 OA
BRANCH   8  11
ATOM     11  C   UNL     1       1.390  10.202  18.902  0.00  0.00    +0.000 A 
ATOM     12  C   UNL     1       2.342  11.056  18.326  0.00  0.00    +0.000 A 
ATOM     13  C   UNL     1       2.102  12.437  18.255  0.00  0.00    +0.000 A 
ATOM     14  C   UNL     1       0.934  12.988  18.763  0.00  0.00    +0.000 A 
ATOM     15  C   UNL     1      -0.004  12.159  19.367  0.00  0.00    +0.000 A 
ATOM     16  C   UNL     1       0.221  10.782  19.432  0.00  0.00    +0.000 A 
ENDBRANCH   8  11
ENDBRANCH   1   9
BRANCH   5  17
ATOM     17  S   UNL     1       3.480   3.843  17.504  0.00  0.00    +0.000 S 
ATOM     18  O   UNL     1       4.214   2.716  18.045  0.00  0.00    +0.000 OA
ATOM     19  O   UNL     1       2.467   3.638  16.487  0.00  0.00    +0.000 OA
BRANCH  17  20
ATOM     20  N   UNL     1       4.607   4.903  16.873  0.00  0.00    +0.000 NA
ATOM     21  C   UNL     1       5.283   4.650  15.599  0.00  0.00    +0.000 C 
ATOM     22  C   UNL     1       6.644   5.290  15.801  0.00  0.00    +0.000 C 
ATOM     23  C   UNL     1       7.541   4.515  16.797  0.00  0.00    +0.000 C 
ATOM     24  C   UNL     1       7.578   5.434  18.044  0.00  0.00    +0.000 C 
ATOM     25  C   UNL     1       7.623   6.802  17.377  0.00  0.00    +0.000 C 
ATOM     26  C   UNL     1       6.329   6.568  16.591  0.00  0.00    +0.000 C 
ATOM     27  C   UNL     1       5.279   6.006  17.609  0.00  0.00    +0.000 C 
ATOM     28  C   UNL     1       6.215   5.569  18.748  0.00  0.00    +0.000 C 
BRANCH  28  29
ATOM     29  O   UNL     1       5.845   4.433  19.470  0.00  0.00    +0.000 OA
ATOM     30  H   UNL     1       5.703   4.695  20.395  0.00  0.00    +0.000 HD
ENDBRANCH  28  29
ENDBRANCH  17  20
ENDBRANCH   5  17
TORSDOF 5
ENDMDL
MODEL 5
REMARK VINA RESULT:      -7.9      2.779      8.568
REMARK  Name = 
REMARK  6 active torsions:
REMARK  status: ('A' for Active; 'I' for Inactive)
REMARK    1  A    between atoms: C_1  and  N_2
REMARK    2  A    between atoms: N_2  and  C_24
REMARK    3  A    between atoms: C_3  and  C_5
REMARK    4  A    between atoms: C_9  and  S_10
REMARK    5  A    between atoms: S_10  and  N_13
REMARK    6  A    between atoms: C_21  and  O_22
REMARK                            x       y       z     vdW  Elec       q    Type
REMARK                         _______ _______ _______ _____ _____    ______ ____
ROOT
ATOM      1  C   UNL     1       2.058   8.018  19.157  0.00  0.00    +0.000 A 
ATOM      2  C   UNL     1       1.846   7.372  20.379  0.00  0.00    +0.000 A 
ATOM      3  C   UNL     1       0.953   7.904  21.309  0.00  0.00    +0.000 A 
ATOM      4  C   UNL     1       0.330   9.128  21.059  0.00  0.00    +0.000 A 
ATOM      5  C   UNL     1       0.625   9.850  19.893  0.00  0.00    +0.000 A 
ATOM      6  C   UNL     1       1.459   9.275  18.924  0.00  0.00    +0.000 A 
ENDROOT
BRANCH   1   9
ATOM      7  C   UNL     1       3.627   5.475  19.609  0.00  0.00    +0.000 C 
ATOM      8  N   UNL     1       3.730   6.285  18.388  0.00  0.00    +0.000 N 
ATOM      9  C   UNL     1       2.984   7.454  18.127  0.00  0.00    +0.000 C 
ATOM     10  O   UNL     1       2.989   8.062  17.053  0.00  0.00    +0.000 OA
BRANCH   8  11
ATOM     11  C   UNL     1       4.708   5.818  17.437  0.00  0.00    +0.000 A 
ATOM     12  C   UNL     1       5.974   6.411  17.337  0.00  0.00    +0.000 A 
ATOM     13  C   UNL     1       6.944   5.865  16.482  0.00  0.00    +0.000 A 
ATOM     14  C   UNL     1       6.670   4.745  15.710  0.00  0.00    +0.000 A 
ATOM     15  C   UNL     1       5.408   4.165  15.774  0.00  0.00    +0.000 A 
ATOM     16  C   UNL     1       4.440   4.695  16.630  0.00  0.00    +0.000 A 
ENDBRANCH   8  11
ENDBRANCH   1   9
BRANCH   5  17
ATOM     17  S   UNL     1      -0.192  11.421  19.604  0.00  0.00    +0.000 S 
ATOM     18  O   UNL     1      -0.781  11.301  18.284  0.00  0.00    +0.000 OA
ATOM     19  O   UNL     1      -1.026  11.710  20.755  0.00  0.00    +0.000 OA
BRANCH  17  20
ATOM     20  N   UNL     1       0.964  12.624  19.515  0.00  0.00    +0.000 NA
ATOM     21  C   UNL     1       1.958  12.825  20.571  0.00  0.00    +0.000 C 
ATOM     22  C   UNL     1       2.201  14.323  20.532  0.00  0.00    +0.000 C 
ATOM     23  C   UNL     1       1.002  15.149  21.060  0.00  0.00    +0.000 C 
ATOM     24  C   UNL     1       0.419  15.804  19.783  0.00  0.00    +0.000 C 
ATOM     25  C   UNL     1       1.702  16.112  19.022  0.00  0.00    +0.000 C 
ATOM     26  C   UNL     1       2.173  14.655  19.033  0.00  0.00    +0.000 C 
ATOM     27  C   UNL     1       0.951  13.783  18.585  0.00  0.00    +0.000 C 
ATOM     28  C   UNL     1      -0.191  14.791  18.797  0.00  0.00    +0.000 C 
BRANCH  28  29
ATOM     29  O   UNL     1      -1.419  14.276  19.216  0.00  0.00    +0.000 OA
ATOM     30  H   UNL     1      -1.917  14.992  19.645  0.00  0.00    +0.000 HD
ENDBRANCH  28  29
ENDBRANCH  17  20
ENDBRANCH   5  17
TORSDOF 5
ENDMDL
MODEL 6
REMARK VINA RESULT:      -7.8      3.541      9.406
REMARK  Name = 
REMARK  6 active torsions:
REMARK  status: ('A' for Active; 'I' for Inactive)
REMARK    1  A    between atoms: C_1  and  N_2
REMARK    2  A    between atoms: N_2  and  C_24
REMARK    3  A    between atoms: C_3  and  C_5
REMARK    4  A    between atoms: C_9  and  S_10
REMARK    5  A    between atoms: S_10  and  N_13
REMARK    6  A    between atoms: C_21  and  O_22
REMARK                            x       y       z     vdW  Elec       q    Type
REMARK                         _______ _______ _______ _____ _____    ______ ____
ROOT
ATOM      1  C   UNL     1       1.865   8.045  19.134  0.00  0.00    +0.000 A 
ATOM      2  C   UNL     1       1.926   8.664  17.881  0.00  0.00    +0.000 A 
ATOM      3  C   UNL     1       1.648  10.025  17.755  0.00  0.00    +0.000 A 
ATOM      4  C   UNL     1       1.227  10.758  18.866  0.00  0.00    +0.000 A 
ATOM      5  C   UNL     1       1.042  10.127  20.105  0.00  0.00    +0.000 A 
ATOM      6  C   UNL     1       1.399   8.778  20.247  0.00  0.00    +0.000 A 
ENDROOT
BRANCH   1   9
ATOM      7  C   UNL     1       3.963   6.650  17.467  0.00  0.00    +0.000 C 
ATOM      8  N   UNL     1       3.149   5.968  18.482  0.00  0.00    +0.000 N 
ATOM      9  C   UNL     1       2.190   6.596  19.305  0.00  0.00    +0.000 C 
ATOM     10  O   UNL     1       1.596   6.042  20.234  0.00  0.00    +0.000 OA
BRANCH   8  11
ATOM     11  C   UNL     1       3.368   4.546  18.573  0.00  0.00    +0.000 A 
ATOM     12  C   UNL     1       4.298   4.004  19.471  0.00  0.00    +0.000 A 
ATOM     13  C   UNL     1       4.410   2.612  19.618  0.00  0.00    +0.000 A 
ATOM     14  C   UNL     1       3.621   1.747  18.874  0.00  0.00    +0.000 A 
ATOM     15  C   UNL     1       2.717   2.269  17.956  0.00  0.00    +0.000 A 
ATOM     16  C   UNL     1       2.591   3.653  17.810  0.00  0.00    +0.000 A 
ENDBRANCH   8  11
ENDBRANCH   1   9
BRANCH   5  17
ATOM     17  S   UNL     1       0.497  11.098  21.512  0.00  0.00    +0.000 S 
ATOM     18  O   UNL     1       0.518  10.180  22.634  0.00  0.00    +0.000 OA
ATOM     19  O   UNL     1       1.284  12.315  21.546  0.00  0.00    +0.000 OA
BRANCH  17  20
ATOM     20  N   UNL     1      -1.096  11.545  21.276  0.00  0.00    +0.000 NA
ATOM     21  C   UNL     1      -1.606  11.938  19.962  0.00  0.00    +0.000 C 
ATOM     22  C   UNL     1      -2.680  12.955  20.301  0.00  0.00    +0.000 C 
ATOM     23  C   UNL     1      -2.108  14.292  20.834  0.00  0.00    +0.000 C 
ATOM     24  C   UNL     1      -2.478  14.273  22.338  0.00  0.00    +0.000 C 
ATOM     25  C   UNL     1      -3.857  13.628  22.274  0.00  0.00    +0.000 C 
ATOM     26  C   UNL     1      -3.343  12.375  21.559  0.00  0.00    +0.000 C 
ATOM     27  C   UNL     1      -2.072  11.899  22.340  0.00  0.00    +0.000 C 
ATOM     28  C   UNL     1      -1.751  13.175  23.136  0.00  0.00    +0.000 C 
BRANCH  28  29
ATOM     29  O   UNL     1      -0.403  13.455  23.368  0.00  0.00    +0.000 OA
ATOM     30  H   UNL     1      -0.349  14.274  23.887  0.00  0.00    +0.000 HD
ENDBRANCH  28  29
ENDBRANCH  17  20
ENDBRANCH   5  17
TORSDOF 5
ENDMDL
MODEL 7
REMARK VINA RESULT:      -7.8      1.249      1.754
REMARK  Name = 
REMARK  6 active torsions:
REMARK  status: ('A' for Active; 'I' for Inactive)
REMARK    1  A    between atoms: C_1  and  N_2
REMARK    2  A    between atoms: N_2  and  C_24
REMARK    3  A    between atoms: C_3  and  C_5
REMARK    4  A    between atoms: C_9  and  S_10
REMARK    5  A    between atoms: S_10  and  N_13
REMARK    6  A    between atoms: C_21  and  O_22
REMARK                            x       y       z     vdW  Elec       q    Type
REMARK                         _______ _______ _______ _____ _____    ______ ____
ROOT
ATOM      1  C   UNL     1       1.803   5.777  20.397  0.00  0.00    +0.000 A 
ATOM      2  C   UNL     1       1.773   4.886  21.474  0.00  0.00    +0.000 A 
ATOM      3  C   UNL     1       2.318   3.609  21.345  0.00  0.00    +0.000 A 
ATOM      4  C   UNL     1       2.821   3.186  20.114  0.00  0.00    +0.000 A 
ATOM      5  C   UNL     1       2.749   4.023  18.991  0.00  0.00    +0.000 A 
ATOM      6  C   UNL     1       2.275   5.334  19.143  0.00  0.00    +0.000 A 
ENDROOT
BRANCH   1   9
ATOM      7  C   UNL     1       2.451   7.949  18.399  0.00  0.00    +0.000 C 
ATOM      8  N   UNL     1       1.612   8.164  19.585  0.00  0.00    +0.000 N 
ATOM      9  C   UNL     1       1.256   7.164  20.516  0.00  0.00    +0.000 C 
ATOM     10  O   UNL     1       0.458   7.324  21.443  0.00  0.00    +0.000 OA
BRANCH   8  11
ATOM     11  C   UNL     1       1.177   9.525  19.777  0.00  0.00    +0.000 A 
ATOM     12  C   UNL     1       0.890  10.362  18.690  0.00  0.00    +0.000 A 
ATOM     13  C   UNL     1       0.361  11.645  18.907  0.00  0.00    +0.000 A 
ATOM     14  C   UNL     1       0.129  12.117  20.191  0.00  0.00    +0.000 A 
ATOM     15  C   UNL     1       0.440  11.311  21.279  0.00  0.00    +0.000 A 
ATOM     16  C   UNL     1       0.955  10.029  21.073  0.00  0.00    +0.000 A 
ENDBRANCH   8  11
ENDBRANCH   1   9
BRANCH   5  17
ATOM     17  S   UNL     1       3.404   3.446  17.423  0.00  0.00    +0.000 S 
ATOM     18  O   UNL     1       4.226   2.300  17.758  0.00  0.00    +0.000 OA
ATOM     19  O   UNL     1       2.295   3.308  16.499  0.00  0.00    +0.000 OA
BRANCH  17  20
ATOM     20  N   UNL     1       4.424   4.614  16.801  0.00  0.00    +0.000 NA
ATOM     21  C   UNL     1       4.955   4.536  15.439  0.00  0.00    +0.000 C 
ATOM     22  C   UNL     1       6.314   5.200  15.562  0.00  0.00    +0.000 C 
ATOM     23  C   UNL     1       7.339   4.349  16.352  0.00  0.00    +0.000 C 
ATOM     24  C   UNL     1       7.497   5.118  17.688  0.00  0.00    +0.000 C 
ATOM     25  C   UNL     1       7.431   6.555  17.188  0.00  0.00    +0.000 C 
ATOM     26  C   UNL     1       6.061   6.365  16.530  0.00  0.00    +0.000 C 
ATOM     27  C   UNL     1       5.150   5.649  17.583  0.00  0.00    +0.000 C 
ATOM     28  C   UNL     1       6.221   5.119  18.550  0.00  0.00    +0.000 C 
BRANCH  28  29
ATOM     29  O   UNL     1       5.965   3.893  19.169  0.00  0.00    +0.000 OA
ATOM     30  H   UNL     1       6.765   3.346  19.097  0.00  0.00    +0.000 HD
ENDBRANCH  28  29
ENDBRANCH  17  20
ENDBRANCH   5  17
TORSDOF 5
ENDMDL
MODEL 8
REMARK VINA RESULT:      -7.8      3.267      8.776
REMARK  Name = 
REMARK  6 active torsions:
REMARK  status: ('A' for Active; 'I' for Inactive)
REMARK    1  A    between atoms: C_1  and  N_2
REMARK    2  A    between atoms: N_2  and  C_24
REMARK    3  A    between atoms: C_3  and  C_5
REMARK    4  A    between atoms: C_9  and  S_10
REMARK    5  A    between atoms: S_10  and  N_13
REMARK    6  A    between atoms: C_21  and  O_22
REMARK                            x       y       z     vdW  Elec       q    Type
REMARK                         _______ _______ _______ _____ _____    ______ ____
ROOT
ATOM      1  C   UNL     1       1.388   8.584  20.218  0.00  0.00    +0.000 A 
ATOM      2  C   UNL     1       1.232   8.246  21.566  0.00  0.00    +0.000 A 
ATOM      3  C   UNL     1       0.509   9.078  22.420  0.00  0.00    +0.000 A 
ATOM      4  C   UNL     1       0.008  10.294  21.951  0.00  0.00    +0.000 A 
ATOM      5  C   UNL     1       0.259  10.706  20.634  0.00  0.00    +0.000 A 
ATOM      6  C   UNL     1       0.916   9.831  19.757  0.00  0.00    +0.000 A 
ENDROOT
BRANCH   1   9
ATOM      7  C   UNL     1       1.702   5.616  20.694  0.00  0.00    +0.000 C 
ATOM      8  N   UNL     1       2.289   6.320  19.545  0.00  0.00    +0.000 N 
ATOM      9  C   UNL     1       2.129   7.695  19.271  0.00  0.00    +0.000 C 
ATOM     10  O   UNL     1       2.526   8.253  18.245  0.00  0.00    +0.000 OA
BRANCH   8  11
ATOM     11  C   UNL     1       3.107   5.497  18.690  0.00  0.00    +0.000 A 
ATOM     12  C   UNL     1       4.505   5.495  18.793  0.00  0.00    +0.000 A 
ATOM     13  C   UNL     1       5.269   4.602  18.024  0.00  0.00    +0.000 A 
ATOM     14  C   UNL     1       4.665   3.719  17.140  0.00  0.00    +0.000 A 
ATOM     15  C   UNL     1       3.282   3.732  17.003  0.00  0.00    +0.000 A 
ATOM     16  C   UNL     1       2.513   4.610  17.771  0.00  0.00    +0.000 A 
ENDBRANCH   8  11
ENDBRANCH   1   9
BRANCH   5  17
ATOM     17  S   UNL     1      -0.399  12.275  20.065  0.00  0.00    +0.000 S 
ATOM     18  O   UNL     1      -1.067  11.972  18.815  0.00  0.00    +0.000 OA
ATOM     19  O   UNL     1      -1.133  12.876  21.162  0.00  0.00    +0.000 OA
BRANCH  17  20
ATOM     20  N   UNL     1       0.874  13.296  19.703  0.00  0.00    +0.000 NA
ATOM     21  C   UNL     1       1.977  13.523  20.639  0.00  0.00    +0.000 C 
ATOM     22  C   UNL     1       2.384  14.955  20.347  0.00  0.00    +0.000 C 
ATOM     23  C   UNL     1       1.341  15.995  20.826  0.00  0.00    +0.000 C 
ATOM     24  C   UNL     1       0.722  16.524  19.509  0.00  0.00    +0.000 C 
ATOM     25  C   UNL     1       1.956  16.552  18.616  0.00  0.00    +0.000 C 
ATOM     26  C   UNL     1       2.256  15.065  18.821  0.00  0.00    +0.000 C 
ATOM     27  C   UNL     1       0.907  14.298  18.606  0.00  0.00    +0.000 C 
ATOM     28  C   UNL     1      -0.088  15.463  18.741  0.00  0.00    +0.000 C 
BRANCH  28  29
ATOM     29  O   UNL     1      -1.324  15.174  19.325  0.00  0.00    +0.000 OA
ATOM     30  H   UNL     1      -1.976  15.805  18.979  0.00  0.00    +0.000 HD
ENDBRANCH  28  29
ENDBRANCH  17  20
ENDBRANCH   5  17
TORSDOF 5
ENDMDL
MODEL 9
REMARK VINA RESULT:      -7.7      8.181      8.989
REMARK  Name = 
REMARK  6 active torsions:
REMARK  status: ('A' for Active; 'I' for Inactive)
REMARK    1  A    between atoms: C_1  and  N_2
REMARK    2  A    between atoms: N_2  and  C_24
REMARK    3  A    between atoms: C_3  and  C_5
REMARK    4  A    between atoms: C_9  and  S_10
REMARK    5  A    between atoms: S_10  and  N_13
REMARK    6  A    between atoms: C_21  and  O_22
REMARK                            x       y       z     vdW  Elec       q    Type
REMARK                         _______ _______ _______ _____ _____    ______ ____
ROOT
ATOM      1  C   UNL     1       4.588  15.319  20.989  0.00  0.00    +0.000 A 
ATOM      2  C   UNL     1       4.322  14.429  22.035  0.00  0.00    +0.000 A 
ATOM      3  C   UNL     1       5.367  13.759  22.672  0.00  0.00    +0.000 A 
ATOM      4  C   UNL     1       6.676  13.912  22.213  0.00  0.00    +0.000 A 
ATOM      5  C   UNL     1       6.947  14.706  21.089  0.00  0.00    +0.000 A 
ATOM      6  C   UNL     1       5.907  15.440  20.502  0.00  0.00    +0.000 A 
ENDROOT
BRANCH   1   9
ATOM      7  C   UNL     1       3.064  14.195  18.635  0.00  0.00    +0.000 C 
ATOM      8  N   UNL     1       2.827  15.535  19.189  0.00  0.00    +0.000 N 
ATOM      9  C   UNL     1       3.492  16.076  20.310  0.00  0.00    +0.000 C 
ATOM     10  O   UNL     1       3.206  17.153  20.840  0.00  0.00    +0.000 OA
BRANCH   8  11
ATOM     11  C   UNL     1       1.857  16.322  18.469  0.00  0.00    +0.000 A 
ATOM     12  C   UNL     1       0.488  16.243  18.760  0.00  0.00    +0.000 A 
ATOM     13  C   UNL     1      -0.421  17.101  18.121  0.00  0.00    +0.000 A 
ATOM     14  C   UNL     1       0.008  18.028  17.182  0.00  0.00    +0.000 A 
ATOM     15  C   UNL     1       1.358  18.096  16.859  0.00  0.00    +0.000 A 
ATOM     16  C   UNL     1       2.271  17.253  17.497  0.00  0.00    +0.000 A 
ENDBRANCH   8  11
ENDBRANCH   1   9
BRANCH   5  17
ATOM     17  S   UNL     1       8.642  14.879  20.525  0.00  0.00    +0.000 S 
ATOM     18  O   UNL     1       8.596  15.911  19.508  0.00  0.00    +0.000 OA
ATOM     19  O   UNL     1       9.488  15.037  21.693  0.00  0.00    +0.000 OA
BRANCH  17  20
ATOM     20  N   UNL     1       9.107  13.465  19.766  0.00  0.00    +0.000 NA
ATOM     21  C   UNL     1       9.151  12.183  20.472  0.00  0.00    +0.000 C 
ATOM     22  C   UNL     1      10.288  11.451  19.783  0.00  0.00    +0.000 C 
ATOM     23  C   UNL     1      11.681  12.043  20.111  0.00  0.00    +0.000 C 
ATOM     24  C   UNL     1      12.105  12.731  18.790  0.00  0.00    +0.000 C 
ATOM     25  C   UNL     1      11.557  11.737  17.774  0.00  0.00    +0.000 C 
ATOM     26  C   UNL     1      10.124  11.837  18.306  0.00  0.00    +0.000 C 
ATOM     27  C   UNL     1       9.804  13.363  18.457  0.00  0.00    +0.000 C 
ATOM     28  C   UNL     1      11.228  13.941  18.418  0.00  0.00    +0.000 C 
BRANCH  28  29
ATOM     29  O   UNL     1      11.475  15.070  19.203  0.00  0.00    +0.000 OA
ATOM     30  H   UNL     1      12.139  14.834  19.872  0.00  0.00    +0.000 HD
ENDBRANCH  28  29
ENDBRANCH  17  20
ENDBRANCH   5  17
TORSDOF 5
ENDMDL
