MODEL 1
REMARK VINA RESULT:      -9.2      0.000      0.000
REMARK  Name = 
REMARK  6 active torsions:
REMARK  status: ('A' for Active; 'I' for Inactive)
REMARK    1  A    between atoms: C_1  and  N_2
REMARK    2  A    between atoms: C_3  and  C_4
REMARK    3  A    between atoms: C_8  and  C_9
REMARK    4  A    between atoms: N_15  and  C_16
REMARK    5  A    between atoms: C_20  and  C_21
REMARK    6  A    between atoms: N_25  and  C_26
REMARK                            x       y       z     vdW  Elec       q    Type
REMARK                         _______ _______ _______ _____ _____    ______ ____
ROOT
ATOM      1  C   UNL     1       0.241  11.635  19.623  0.00  0.00    +0.000 A 
ATOM      2  C   UNL     1       0.923  10.696  18.855  0.00  0.00    +0.000 A 
ATOM      3  C   UNL     1       1.167   9.469  19.446  0.00  0.00    +0.000 A 
ATOM      4  C   UNL     1       0.770   9.145  20.742  0.00  0.00    +0.000 A 
ATOM      5  C   UNL     1       0.100  10.078  21.525  0.00  0.00    +0.000 A 
ATOM      6  C   UNL     1      -0.161  11.335  20.942  0.00  0.00    +0.000 A 
ATOM      7  C   UNL     1       1.186   7.739  21.048  0.00  0.00    +0.000 C 
ATOM      8  N   UNL     1       1.882   7.320  19.840  0.00  0.00    +0.000 N 
ATOM      9  C   UNL     1       1.866   8.322  18.867  0.00  0.00    +0.000 C 
ATOM     10  O   UNL     1       2.318   8.370  17.738  0.00  0.00    +0.000 OA
ENDROOT
BRANCH   8  11
ATOM     11  C   UNL     1       2.525   6.058  19.728  0.00  0.00    +0.000 A 
ATOM     12  C   UNL     1       1.857   4.877  20.077  0.00  0.00    +0.000 A 
ATOM     13  C   UNL     1       2.477   3.635  19.966  0.00  0.00    +0.000 A 
ATOM     14  C   UNL     1       3.777   3.550  19.488  0.00  0.00    +0.000 A 
ATOM     15  C   UNL     1       4.455   4.698  19.068  0.00  0.00    +0.000 A 
ATOM     16  C   UNL     1       3.835   5.950  19.234  0.00  0.00    +0.000 A 
BRANCH  15  17
ATOM     17  C   UNL     1       5.781   4.617  18.449  0.00  0.00    +0.000 A 
ATOM     18  N   UNL     1       6.937   4.728  19.082  0.00  0.00    +0.000 NA
ATOM     19  N   UNL     1       7.957   4.618  18.169  0.00  0.00    +0.000 NA
ATOM     20  C   UNL     1       7.413   4.469  16.985  0.00  0.00    +0.000 A 
ATOM     21  N   UNL     1       6.056   4.483  17.105  0.00  0.00    +0.000 N 
ATOM     22  C   UNL     1       5.135   4.479  16.000  0.00  0.00    +0.000 C 
ENDBRANCH  15  17
ENDBRANCH   8  11
BRANCH   5  23
ATOM     23  C   UNL     1      -0.341   9.803  22.938  0.00  0.00    +0.000 C 
ATOM     24  F   UNL     1       0.692   9.560  23.790  0.00  0.00    +0.000 F 
ATOM     25  F   UNL     1      -1.029  10.846  23.477  0.00  0.00    +0.000 F 
ATOM     26  F   UNL     1      -1.159   8.720  23.026  0.00  0.00    +0.000 F 
ENDBRANCH   5  23
BRANCH   1  29
ATOM     27  C   UNL     1      -0.004  15.242  18.826  0.00  0.00    +0.000 C 
ATOM     28  N   UNL     1       0.425  14.033  19.522  0.00  0.00    +0.000 NA
ATOM     29  C   UNL     1      -0.070  12.951  19.032  0.00  0.00    +0.000 C 
ENDBRANCH   1  29
TORSDOF 4
ENDMDL
MODEL 2
REMARK VINA RESULT:      -8.9      0.795      1.485
REMARK  Name = 
REMARK  6 active torsions:
REMARK  status: ('A' for Active; 'I' for Inactive)
REMARK    1  A    between atoms: C_1  and  N_2
REMARK    2  A    between atoms: C_3  and  C_4
REMARK    3  A    between atoms: C_8  and  C_9
REMARK    4  A    between atoms: N_15  and  C_16
REMARK    5  A    between atoms: C_20  and  C_21
REMARK    6  A    between atoms: N_25  and  C_26
REMARK                            x       y       z     vdW  Elec       q    Type
REMARK                         _______ _______ _______ _____ _____    ______ ____
ROOT
ATOM      1  C   UNL     1       0.324  11.688  19.415  0.00  0.00    +0.000 A 
ATOM      2  C   UNL     1       1.014  10.794  18.602  0.00  0.00    +0.000 A 
ATOM      3  C   UNL     1       1.312   9.559  19.149  0.00  0.00    +0.000 A 
ATOM      4  C   UNL     1       0.961   9.185  20.444  0.00  0.00    +0.000 A 
ATOM      5  C   UNL     1       0.283  10.073  21.273  0.00  0.00    +0.000 A 
ATOM      6  C   UNL     1      -0.032  11.337  20.734  0.00  0.00    +0.000 A 
ATOM      7  C   UNL     1       1.429   7.784  20.698  0.00  0.00    +0.000 C 
ATOM      8  N   UNL     1       2.105   7.423  19.459  0.00  0.00    +0.000 N 
ATOM      9  C   UNL     1       2.031   8.452  18.518  0.00  0.00    +0.000 C 
ATOM     10  O   UNL     1       2.450   8.547  17.380  0.00  0.00    +0.000 OA
ENDROOT
BRANCH   8  11
ATOM     11  C   UNL     1       2.783   6.186  19.293  0.00  0.00    +0.000 A 
ATOM     12  C   UNL     1       2.485   5.087  20.109  0.00  0.00    +0.000 A 
ATOM     13  C   UNL     1       3.141   3.869  19.950  0.00  0.00    +0.000 A 
ATOM     14  C   UNL     1       4.101   3.723  18.960  0.00  0.00    +0.000 A 
ATOM     15  C   UNL     1       4.382   4.776  18.083  0.00  0.00    +0.000 A 
ATOM     16  C   UNL     1       3.749   6.015  18.288  0.00  0.00    +0.000 A 
BRANCH  15  17
ATOM     17  C   UNL     1       5.303   4.605  16.956  0.00  0.00    +0.000 A 
ATOM     18  N   UNL     1       4.976   4.164  15.752  0.00  0.00    +0.000 NA
ATOM     19  N   UNL     1       6.107   4.121  14.972  0.00  0.00    +0.000 NA
ATOM     20  C   UNL     1       7.115   4.510  15.716  0.00  0.00    +0.000 A 
ATOM     21  N   UNL     1       6.666   4.801  16.969  0.00  0.00    +0.000 N 
ATOM     22  C   UNL     1       7.512   5.130  18.086  0.00  0.00    +0.000 C 
ENDBRANCH  15  17
ENDBRANCH   8  11
BRANCH   5  23
ATOM     23  C   UNL     1      -0.111   9.743  22.687  0.00  0.00    +0.000 C 
ATOM     24  F   UNL     1      -0.927   8.657  22.783  0.00  0.00    +0.000 F 
ATOM     25  F   UNL     1       0.965   9.468  23.473  0.00  0.00    +0.000 F 
ATOM     26  F   UNL     1      -0.776  10.763  23.293  0.00  0.00    +0.000 F 
ENDBRANCH   5  23
BRANCH   1  29
ATOM     27  C   UNL     1      -0.175  15.306  18.814  0.00  0.00    +0.000 C 
ATOM     28  N   UNL     1       0.286  14.093  19.481  0.00  0.00    +0.000 NA
ATOM     29  C   UNL     1      -0.044  13.010  18.871  0.00  0.00    +0.000 C 
ENDBRANCH   1  29
TORSDOF 4
ENDMDL
MODEL 3
REMARK VINA RESULT:      -8.8      0.888      1.172
REMARK  Name = 
REMARK  6 active torsions:
REMARK  status: ('A' for Active; 'I' for Inactive)
REMARK    1  A    between atoms: C_1  and  N_2
REMARK    2  A    between atoms: C_3  and  C_4
REMARK    3  A    between atoms: C_8  and  C_9
REMARK    4  A    between atoms: N_15  and  C_16
REMARK    5  A    between atoms: C_20  and  C_21
REMARK    6  A    between atoms: N_25  and  C_26
REMARK                            x       y       z     vdW  Elec       q    Type
REMARK                         _______ _______ _______ _____ _____    ______ ____
ROOT
ATOM      1  C   UNL     1       0.149  11.871  19.629  0.00  0.00    +0.000 A 
ATOM      2  C   UNL     1       0.790  11.066  18.693  0.00  0.00    +0.000 A 
ATOM      3  C   UNL     1       1.114   9.782  19.093  0.00  0.00    +0.000 A 
ATOM      4  C   UNL     1       0.834   9.277  20.361  0.00  0.00    +0.000 A 
ATOM      5  C   UNL     1       0.206  10.074  21.312  0.00  0.00    +0.000 A 
ATOM      6  C   UNL     1      -0.135  11.386  20.924  0.00  0.00    +0.000 A 
ATOM      7  C   UNL     1       1.311   7.859  20.444  0.00  0.00    +0.000 C 
ATOM      8  N   UNL     1       1.916   7.628  19.140  0.00  0.00    +0.000 N 
ATOM      9  C   UNL     1       1.793   8.748  18.314  0.00  0.00    +0.000 C 
ATOM     10  O   UNL     1       2.149   8.959  17.170  0.00  0.00    +0.000 OA
ENDROOT
BRANCH   8  11
ATOM     11  C   UNL     1       2.580   6.416  18.811  0.00  0.00    +0.000 A 
ATOM     12  C   UNL     1       1.879   5.341  18.251  0.00  0.00    +0.000 A 
ATOM     13  C   UNL     1       2.523   4.150  17.921  0.00  0.00    +0.000 A 
ATOM     14  C   UNL     1       3.888   4.020  18.132  0.00  0.00    +0.000 A 
ATOM     15  C   UNL     1       4.635   5.092  18.628  0.00  0.00    +0.000 A 
ATOM     16  C   UNL     1       3.963   6.269  19.004  0.00  0.00    +0.000 A 
BRANCH  15  17
ATOM     17  C   UNL     1       6.094   5.016  18.744  0.00  0.00    +0.000 A 
ATOM     18  N   UNL     1       6.800   5.327  19.819  0.00  0.00    +0.000 NA
ATOM     19  N   UNL     1       8.134   5.147  19.542  0.00  0.00    +0.000 NA
ATOM     20  C   UNL     1       8.229   4.755  18.294  0.00  0.00    +0.000 A 
ATOM     21  N   UNL     1       6.984   4.679  17.747  0.00  0.00    +0.000 N 
ATOM     22  C   UNL     1       6.713   4.412  16.359  0.00  0.00    +0.000 C 
ENDBRANCH  15  17
ENDBRANCH   8  11
BRANCH   5  23
ATOM     23  C   UNL     1      -0.110   9.601  22.705  0.00  0.00    +0.000 C 
ATOM     24  F   UNL     1      -0.899   8.491  22.735  0.00  0.00    +0.000 F 
ATOM     25  F   UNL     1       1.009   9.277  23.408  0.00  0.00    +0.000 F 
ATOM     26  F   UNL     1      -0.763  10.541  23.439  0.00  0.00    +0.000 F 
ENDBRANCH   5  23
BRANCH   1  29
ATOM     27  C   UNL     1      -0.024  15.521  19.042  0.00  0.00    +0.000 C 
ATOM     28  N   UNL     1       0.532  14.241  19.468  0.00  0.00    +0.000 NA
ATOM     29  C   UNL     1      -0.245  13.240  19.245  0.00  0.00    +0.000 C 
ENDBRANCH   1  29
TORSDOF 4
ENDMDL
MODEL 4
REMARK VINA RESULT:      -8.6      3.167      8.289
REMARK  Name = 
REMARK  6 active torsions:
REMARK  status: ('A' for Active; 'I' for Inactive)
REMARK    1  A    between atoms: C_1  and  N_2
REMARK    2  A    between atoms: C_3  and  C_4
REMARK    3  A    between atoms: C_8  and  C_9
REMARK    4  A    between atoms: N_15  and  C_16
REMARK    5  A    between atoms: C_20  and  C_21
REMARK    6  A    between atoms: N_25  and  C_26
REMARK                            x       y       z     vdW  Elec       q    Type
REMARK                         _______ _______ _______ _____ _____    ______ ____
ROOT
ATOM      1  C   UNL     1       4.672   4.324  16.668  0.00  0.00    +0.000 A 
ATOM      2  C   UNL     1       4.387   5.673  16.850  0.00  0.00    +0.000 A 
ATOM      3  C   UNL     1       3.557   5.997  17.908  0.00  0.00    +0.000 A 
ATOM      4  C   UNL     1       3.008   5.052  18.774  0.00  0.00    +0.000 A 
ATOM      5  C   UNL     1       3.274   3.699  18.596  0.00  0.00    +0.000 A 
ATOM      6  C   UNL     1       4.120   3.347  17.525  0.00  0.00    +0.000 A 
ATOM      7  C   UNL     1       2.174   5.752  19.803  0.00  0.00    +0.000 C 
ATOM      8  N   UNL     1       2.264   7.153  19.418  0.00  0.00    +0.000 N 
ATOM      9  C   UNL     1       3.095   7.326  18.308  0.00  0.00    +0.000 C 
ATOM     10  O   UNL     1       3.436   8.318  17.692  0.00  0.00    +0.000 OA
ENDROOT
BRANCH   8  11
ATOM     11  C   UNL     1       1.540   8.177  20.086  0.00  0.00    +0.000 A 
ATOM     12  C   UNL     1       1.245   8.074  21.451  0.00  0.00    +0.000 A 
ATOM     13  C   UNL     1       0.540   9.074  22.116  0.00  0.00    +0.000 A 
ATOM     14  C   UNL     1       0.129  10.206  21.428  0.00  0.00    +0.000 A 
ATOM     15  C   UNL     1       0.460  10.377  20.080  0.00  0.00    +0.000 A 
ATOM     16  C   UNL     1       1.127   9.336  19.410  0.00  0.00    +0.000 A 
BRANCH  15  17
ATOM     17  C   UNL     1       0.141  11.618  19.368  0.00  0.00    +0.000 A 
ATOM     18  N   UNL     1      -0.821  11.768  18.472  0.00  0.00    +0.000 NA
ATOM     19  N   UNL     1      -0.800  13.062  18.010  0.00  0.00    +0.000 NA
ATOM     20  C   UNL     1       0.190  13.679  18.609  0.00  0.00    +0.000 A 
ATOM     21  N   UNL     1       0.821  12.813  19.450  0.00  0.00    +0.000 N 
ATOM     22  C   UNL     1       2.033  13.106  20.170  0.00  0.00    +0.000 C 
ENDBRANCH  15  17
ENDBRANCH   8  11
BRANCH   5  23
ATOM     23  C   UNL     1       2.702   2.624  19.481  0.00  0.00    +0.000 C 
ATOM     24  F   UNL     1       1.345   2.669  19.580  0.00  0.00    +0.000 F 
ATOM     25  F   UNL     1       2.999   1.374  19.034  0.00  0.00    +0.000 F 
ATOM     26  F   UNL     1       3.170   2.696  20.756  0.00  0.00    +0.000 F 
ENDBRANCH   5  23
BRANCH   1  29
ATOM     27  C   UNL     1       6.443   3.942  13.440  0.00  0.00    +0.000 C 
ATOM     28  N   UNL     1       5.487   4.469  14.409  0.00  0.00    +0.000 NA
ATOM     29  C   UNL     1       5.576   3.926  15.571  0.00  0.00    +0.000 C 
ENDBRANCH   1  29
TORSDOF 4
ENDMDL
MODEL 5
REMARK VINA RESULT:      -8.6      2.716      8.123
REMARK  Name = 
REMARK  6 active torsions:
REMARK  status: ('A' for Active; 'I' for Inactive)
REMARK    1  A    between atoms: C_1  and  N_2
REMARK    2  A    between atoms: C_3  and  C_4
REMARK    3  A    between atoms: C_8  and  C_9
REMARK    4  A    between atoms: N_15  and  C_16
REMARK    5  A    between atoms: C_20  and  C_21
REMARK    6  A    between atoms: N_25  and  C_26
REMARK                            x       y       z     vdW  Elec       q    Type
REMARK                         _______ _______ _______ _____ _____    ______ ____
ROOT
ATOM      1  C   UNL     1       3.907   4.492  17.509  0.00  0.00    +0.000 A 
ATOM      2  C   UNL     1       3.661   5.861  17.547  0.00  0.00    +0.000 A 
ATOM      3  C   UNL     1       2.906   6.329  18.607  0.00  0.00    +0.000 A 
ATOM      4  C   UNL     1       2.393   5.507  19.609  0.00  0.00    +0.000 A 
ATOM      5  C   UNL     1       2.618   4.136  19.577  0.00  0.00    +0.000 A 
ATOM      6  C   UNL     1       3.388   3.638  18.506  0.00  0.00    +0.000 A 
ATOM      7  C   UNL     1       1.639   6.345  20.596  0.00  0.00    +0.000 C 
ATOM      8  N   UNL     1       1.735   7.689  20.044  0.00  0.00    +0.000 N 
ATOM      9  C   UNL     1       2.499   7.708  18.875  0.00  0.00    +0.000 C 
ATOM     10  O   UNL     1       2.821   8.611  18.126  0.00  0.00    +0.000 OA
ENDROOT
BRANCH   8  11
ATOM     11  C   UNL     1       1.076   8.803  20.629  0.00  0.00    +0.000 A 
ATOM     12  C   UNL     1       0.611   8.752  21.949  0.00  0.00    +0.000 A 
ATOM     13  C   UNL     1      -0.032   9.841  22.533  0.00  0.00    +0.000 A 
ATOM     14  C   UNL     1      -0.209  11.011  21.808  0.00  0.00    +0.000 A 
ATOM     15  C   UNL     1       0.298  11.125  20.510  0.00  0.00    +0.000 A 
ATOM     16  C   UNL     1       0.898  10.000  19.917  0.00  0.00    +0.000 A 
BRANCH  15  17
ATOM     17  C   UNL     1       0.228  12.390  19.773  0.00  0.00    +0.000 A 
ATOM     18  N   UNL     1      -0.689  12.710  18.874  0.00  0.00    +0.000 NA
ATOM     19  N   UNL     1      -0.415  13.965  18.387  0.00  0.00    +0.000 NA
ATOM     20  C   UNL     1       0.681  14.386  18.973  0.00  0.00    +0.000 A 
ATOM     21  N   UNL     1       1.131  13.428  19.831  0.00  0.00    +0.000 N 
ATOM     22  C   UNL     1       2.380  13.489  20.544  0.00  0.00    +0.000 C 
ENDBRANCH  15  17
ENDBRANCH   8  11
BRANCH   5  23
ATOM     23  C   UNL     1       2.080   3.188  20.615  0.00  0.00    +0.000 C 
ATOM     24  F   UNL     1       0.727   3.249  20.755  0.00  0.00    +0.000 F 
ATOM     25  F   UNL     1       2.364   1.889  20.326  0.00  0.00    +0.000 F 
ATOM     26  F   UNL     1       2.593   3.424  21.852  0.00  0.00    +0.000 F 
ENDBRANCH   5  23
BRANCH   1  29
ATOM     27  C   UNL     1       6.067   4.007  14.543  0.00  0.00    +0.000 C 
ATOM     28  N   UNL     1       5.310   4.719  15.567  0.00  0.00    +0.000 NA
ATOM     29  C   UNL     1       4.731   3.944  16.415  0.00  0.00    +0.000 C 
ENDBRANCH   1  29
TORSDOF 4
ENDMDL
MODEL 6
REMARK VINA RESULT:      -8.5      3.166      8.225
REMARK  Name = 
REMARK  6 active torsions:
REMARK  status: ('A' for Active; 'I' for Inactive)
REMARK    1  A    between atoms: C_1  and  N_2
REMARK    2  A    between atoms: C_3  and  C_4
REMARK    3  A    between atoms: C_8  and  C_9
REMARK    4  A    between atoms: N_15  and  C_16
REMARK    5  A    between atoms: C_20  and  C_21
REMARK    6  A    between atoms: N_25  and  C_26
REMARK                            x       y       z     vdW  Elec       q    Type
REMARK                         _______ _______ _______ _____ _____    ______ ____
ROOT
ATOM      1  C   UNL     1       4.642   4.303  16.682  0.00  0.00    +0.000 A 
ATOM      2  C   UNL     1       4.368   5.654  16.866  0.00  0.00    +0.000 A 
ATOM      3  C   UNL     1       3.535   5.982  17.921  0.00  0.00    +0.000 A 
ATOM      4  C   UNL     1       2.973   5.040  18.781  0.00  0.00    +0.000 A 
ATOM      5  C   UNL     1       3.227   3.685  18.601  0.00  0.00    +0.000 A 
ATOM      6  C   UNL     1       4.075   3.329  17.533  0.00  0.00    +0.000 A 
ATOM      7  C   UNL     1       2.140   5.745  19.808  0.00  0.00    +0.000 C 
ATOM      8  N   UNL     1       2.246   7.146  19.428  0.00  0.00    +0.000 N 
ATOM      9  C   UNL     1       3.084   7.314  18.323  0.00  0.00    +0.000 C 
ATOM     10  O   UNL     1       3.437   8.305  17.712  0.00  0.00    +0.000 OA
ENDROOT
BRANCH   8  11
ATOM     11  C   UNL     1       1.528   8.174  20.096  0.00  0.00    +0.000 A 
ATOM     12  C   UNL     1       1.163   8.039  21.441  0.00  0.00    +0.000 A 
ATOM     13  C   UNL     1       0.464   9.044  22.106  0.00  0.00    +0.000 A 
ATOM     14  C   UNL     1       0.127  10.212  21.437  0.00  0.00    +0.000 A 
ATOM     15  C   UNL     1       0.530  10.413  20.113  0.00  0.00    +0.000 A 
ATOM     16  C   UNL     1       1.190   9.370  19.441  0.00  0.00    +0.000 A 
BRANCH  15  17
ATOM     17  C   UNL     1       0.290  11.687  19.429  0.00  0.00    +0.000 A 
ATOM     18  N   UNL     1       1.010  12.788  19.574  0.00  0.00    +0.000 NA
ATOM     19  N   UNL     1       0.471  13.778  18.787  0.00  0.00    +0.000 NA
ATOM     20  C   UNL     1      -0.587  13.278  18.194  0.00  0.00    +0.000 A 
ATOM     21  N   UNL     1      -0.753  11.983  18.579  0.00  0.00    +0.000 N 
ATOM     22  C   UNL     1      -1.884  11.163  18.232  0.00  0.00    +0.000 C 
ENDBRANCH  15  17
ENDBRANCH   8  11
BRANCH   5  23
ATOM     23  C   UNL     1       2.641   2.613  19.479  0.00  0.00    +0.000 C 
ATOM     24  F   UNL     1       3.107   2.646  20.758  0.00  0.00    +0.000 F 
ATOM     25  F   UNL     1       1.287   2.707  19.576  0.00  0.00    +0.000 F 
ATOM     26  F   UNL     1       2.905   1.361  19.019  0.00  0.00    +0.000 F 
ENDBRANCH   5  23
BRANCH   1  29
ATOM     27  C   UNL     1       6.434   3.923  13.466  0.00  0.00    +0.000 C 
ATOM     28  N   UNL     1       5.479   4.457  14.432  0.00  0.00    +0.000 NA
ATOM     29  C   UNL     1       5.547   3.900  15.589  0.00  0.00    +0.000 C 
ENDBRANCH   1  29
TORSDOF 4
ENDMDL
MODEL 7
REMARK VINA RESULT:      -8.5      2.726      8.077
REMARK  Name = 
REMARK  6 active torsions:
REMARK  status: ('A' for Active; 'I' for Inactive)
REMARK    1  A    between atoms: C_1  and  N_2
REMARK    2  A    between atoms: C_3  and  C_4
REMARK    3  A    between atoms: C_8  and  C_9
REMARK    4  A    between atoms: N_15  and  C_16
REMARK    5  A    between atoms: C_20  and  C_21
REMARK    6  A    between atoms: N_25  and  C_26
REMARK                            x       y       z     vdW  Elec       q    Type
REMARK                         _______ _______ _______ _____ _____    ______ ____
ROOT
ATOM      1  C   UNL     1       3.945   4.538  17.515  0.00  0.00    +0.000 A 
ATOM      2  C   UNL     1       3.669   5.901  17.554  0.00  0.00    +0.000 A 
ATOM      3  C   UNL     1       2.897   6.349  18.611  0.00  0.00    +0.000 A 
ATOM      4  C   UNL     1       2.397   5.514  19.608  0.00  0.00    +0.000 A 
ATOM      5  C   UNL     1       2.653   4.148  19.574  0.00  0.00    +0.000 A 
ATOM      6  C   UNL     1       3.440   3.670  18.507  0.00  0.00    +0.000 A 
ATOM      7  C   UNL     1       1.619   6.332  20.593  0.00  0.00    +0.000 C 
ATOM      8  N   UNL     1       1.687   7.679  20.045  0.00  0.00    +0.000 N 
ATOM      9  C   UNL     1       2.457   7.718  18.880  0.00  0.00    +0.000 C 
ATOM     10  O   UNL     1       2.763   8.630  18.135  0.00  0.00    +0.000 OA
ENDROOT
BRANCH   8  11
ATOM     11  C   UNL     1       1.000   8.777  20.629  0.00  0.00    +0.000 A 
ATOM     12  C   UNL     1       0.457   8.683  21.916  0.00  0.00    +0.000 A 
ATOM     13  C   UNL     1      -0.214   9.755  22.499  0.00  0.00    +0.000 A 
ATOM     14  C   UNL     1      -0.342  10.950  21.807  0.00  0.00    +0.000 A 
ATOM     15  C   UNL     1       0.242  11.107  20.546  0.00  0.00    +0.000 A 
ATOM     16  C   UNL     1       0.872  10.000  19.950  0.00  0.00    +0.000 A 
BRANCH  15  17
ATOM     17  C   UNL     1       0.223  12.397  19.851  0.00  0.00    +0.000 A 
ATOM     18  N   UNL     1       1.001  13.432  20.124  0.00  0.00    +0.000 NA
ATOM     19  N   UNL     1       0.678  14.465  19.277  0.00  0.00    +0.000 NA
ATOM     20  C   UNL     1      -0.311  14.059  18.517  0.00  0.00    +0.000 A 
ATOM     21  N   UNL     1      -0.645  12.782  18.853  0.00  0.00    +0.000 N 
ATOM     22  C   UNL     1      -1.772  12.063  18.320  0.00  0.00    +0.000 C 
ENDBRANCH  15  17
ENDBRANCH   8  11
BRANCH   5  23
ATOM     23  C   UNL     1       2.131   3.185  20.607  0.00  0.00    +0.000 C 
ATOM     24  F   UNL     1       2.682   3.361  21.839  0.00  0.00    +0.000 F 
ATOM     25  F   UNL     1       0.787   3.296  20.783  0.00  0.00    +0.000 F 
ATOM     26  F   UNL     1       2.367   1.888  20.276  0.00  0.00    +0.000 F 
ENDBRANCH   5  23
BRANCH   1  29
ATOM     27  C   UNL     1       6.003   4.085  14.472  0.00  0.00    +0.000 C 
ATOM     28  N   UNL     1       5.199   4.776  15.474  0.00  0.00    +0.000 NA
ATOM     29  C   UNL     1       4.787   4.011  16.423  0.00  0.00    +0.000 C 
ENDBRANCH   1  29
TORSDOF 4
ENDMDL
MODEL 8
REMARK VINA RESULT:      -8.4      3.377      8.387
REMARK  Name = 
REMARK  6 active torsions:
REMARK  status: ('A' for Active; 'I' for Inactive)
REMARK    1  A    between atoms: C_1  and  N_2
REMARK    2  A    between atoms: C_3  and  C_4
REMARK    3  A    between atoms: C_8  and  C_9
REMARK    4  A    between atoms: N_15  and  C_16
REMARK    5  A    between atoms: C_20  and  C_21
REMARK    6  A    between atoms: N_25  and  C_26
REMARK                            x       y       z     vdW  Elec       q    Type
REMARK                         _______ _______ _______ _____ _____    ______ ____
ROOT
ATOM      1  C   UNL     1       5.132   4.516  16.058  0.00  0.00    +0.000 A 
ATOM      2  C   UNL     1       4.709   5.824  16.273  0.00  0.00    +0.000 A 
ATOM      3  C   UNL     1       3.909   6.045  17.380  0.00  0.00    +0.000 A 
ATOM      4  C   UNL     1       3.518   5.039  18.262  0.00  0.00    +0.000 A 
ATOM      5  C   UNL     1       3.922   3.725  18.052  0.00  0.00    +0.000 A 
ATOM      6  C   UNL     1       4.740   3.478  16.931  0.00  0.00    +0.000 A 
ATOM      7  C   UNL     1       2.670   5.634  19.344  0.00  0.00    +0.000 C 
ATOM      8  N   UNL     1       2.583   7.039  18.974  0.00  0.00    +0.000 N 
ATOM      9  C   UNL     1       3.326   7.312  17.823  0.00  0.00    +0.000 C 
ATOM     10  O   UNL     1       3.519   8.340  17.202  0.00  0.00    +0.000 OA
ENDROOT
BRANCH   8  11
ATOM     11  C   UNL     1       1.788   7.970  19.695  0.00  0.00    +0.000 A 
ATOM     12  C   UNL     1       1.420   7.725  21.024  0.00  0.00    +0.000 A 
ATOM     13  C   UNL     1       0.646   8.634  21.741  0.00  0.00    +0.000 A 
ATOM     14  C   UNL     1       0.236   9.817  21.143  0.00  0.00    +0.000 A 
ATOM     15  C   UNL     1       0.636  10.129  19.840  0.00  0.00    +0.000 A 
ATOM     16  C   UNL     1       1.375   9.179  19.112  0.00  0.00    +0.000 A 
BRANCH  15  17
ATOM     17  C   UNL     1       0.316  11.425  19.234  0.00  0.00    +0.000 A 
ATOM     18  N   UNL     1       1.024  12.535  19.365  0.00  0.00    +0.000 NA
ATOM     19  N   UNL     1       0.402  13.544  18.671  0.00  0.00    +0.000 NA
ATOM     20  C   UNL     1      -0.693  13.046  18.147  0.00  0.00    +0.000 A 
ATOM     21  N   UNL     1      -0.801  11.732  18.489  0.00  0.00    +0.000 N 
ATOM     22  C   UNL     1      -1.942  10.903  18.203  0.00  0.00    +0.000 C 
ENDBRANCH  15  17
ENDBRANCH   8  11
BRANCH   5  23
ATOM     23  C   UNL     1       3.523   2.587  18.952  0.00  0.00    +0.000 C 
ATOM     24  F   UNL     1       3.711   1.361  18.390  0.00  0.00    +0.000 F 
ATOM     25  F   UNL     1       4.231   2.574  20.113  0.00  0.00    +0.000 F 
ATOM     26  F   UNL     1       2.211   2.637  19.304  0.00  0.00    +0.000 F 
ENDBRANCH   5  23
BRANCH   1  29
ATOM     27  C   UNL     1       6.534   3.752  12.719  0.00  0.00    +0.000 C 
ATOM     28  N   UNL     1       5.524   4.042  13.732  0.00  0.00    +0.000 NA
ATOM     29  C   UNL     1       6.011   4.230  14.908  0.00  0.00    +0.000 C 
ENDBRANCH   1  29
TORSDOF 4
ENDMDL
MODEL 9
REMARK VINA RESULT:      -8.3      2.019      2.969
REMARK  Name = 
REMARK  6 active torsions:
REMARK  status: ('A' for Active; 'I' for Inactive)
REMARK    1  A    between atoms: C_1  and  N_2
REMARK    2  A    between atoms: C_3  and  C_4
REMARK    3  A    between atoms: C_8  and  C_9
REMARK    4  A    between atoms: N_15  and  C_16
REMARK    5  A    between atoms: C_20  and  C_21
REMARK    6  A    between atoms: N_25  and  C_26
REMARK                            x       y       z     vdW  Elec       q    Type
REMARK                         _______ _______ _______ _____ _____    ______ ____
ROOT
ATOM      1  C   UNL     1      -0.005  12.621  20.216  0.00  0.00    +0.000 A 
ATOM      2  C   UNL     1       0.677  12.031  19.156  0.00  0.00    +0.000 A 
ATOM      3  C   UNL     1       1.011  10.696  19.299  0.00  0.00    +0.000 A 
ATOM      4  C   UNL     1       0.704   9.940  20.429  0.00  0.00    +0.000 A 
ATOM      5  C   UNL     1       0.034  10.521  21.501  0.00  0.00    +0.000 A 
ATOM      6  C   UNL     1      -0.318  11.880  21.376  0.00  0.00    +0.000 A 
ATOM      7  C   UNL     1       1.202   8.541  20.237  0.00  0.00    +0.000 C 
ATOM      8  N   UNL     1       1.849   8.586  18.933  0.00  0.00    +0.000 N 
ATOM      9  C   UNL     1       1.731   9.848  18.348  0.00  0.00    +0.000 C 
ATOM     10  O   UNL     1       2.116  10.292  17.282  0.00  0.00    +0.000 OA
ENDROOT
BRANCH   8  11
ATOM     11  C   UNL     1       2.543   7.473  18.387  0.00  0.00    +0.000 A 
ATOM     12  C   UNL     1       3.732   7.651  17.668  0.00  0.00    +0.000 A 
ATOM     13  C   UNL     1       4.423   6.566  17.133  0.00  0.00    +0.000 A 
ATOM     14  C   UNL     1       3.942   5.278  17.321  0.00  0.00    +0.000 A 
ATOM     15  C   UNL     1       2.794   5.053  18.087  0.00  0.00    +0.000 A 
ATOM     16  C   UNL     1       2.080   6.161  18.577  0.00  0.00    +0.000 A 
BRANCH  15  17
ATOM     17  C   UNL     1       2.339   3.696  18.398  0.00  0.00    +0.000 A 
ATOM     18  N   UNL     1       1.146   3.198  18.115  0.00  0.00    +0.000 NA
ATOM     19  N   UNL     1       1.082   1.905  18.577  0.00  0.00    +0.000 NA
ATOM     20  C   UNL     1       2.227   1.638  19.161  0.00  0.00    +0.000 A 
ATOM     21  N   UNL     1       3.035   2.732  19.093  0.00  0.00    +0.000 N 
ATOM     22  C   UNL     1       4.314   2.846  19.745  0.00  0.00    +0.000 C 
ENDBRANCH  15  17
ENDBRANCH   8  11
BRANCH   5  23
ATOM     23  C   UNL     1      -0.314   9.771  22.758  0.00  0.00    +0.000 C 
ATOM     24  F   UNL     1       0.766   9.499  23.543  0.00  0.00    +0.000 F 
ATOM     25  F   UNL     1      -1.181  10.460  23.547  0.00  0.00    +0.000 F 
ATOM     26  F   UNL     1      -0.900   8.570  22.503  0.00  0.00    +0.000 F 
ENDBRANCH   5  23
BRANCH   1  29
ATOM     27  C   UNL     1      -0.560  16.119  19.140  0.00  0.00    +0.000 C 
ATOM     28  N   UNL     1      -0.095  14.737  19.074  0.00  0.00    +0.000 NA
ATOM     29  C   UNL     1      -0.411  14.036  20.105  0.00  0.00    +0.000 C 
ENDBRANCH   1  29
TORSDOF 4
ENDMDL
