MODEL 1
REMARK VINA RESULT:      -9.1      0.000      0.000
REMARK  Name = 
REMARK  3 active torsions:
REMARK  status: ('A' for Active; 'I' for Inactive)
REMARK    1  A    between atoms: C_4  and  C_5
REMARK    2  A    between atoms: C_8  and  C_9
REMARK    3  A    between atoms: N_15  and  C_16
REMARK                            x       y       z     vdW  Elec       q    Type
REMARK                         _______ _______ _______ _____ _____    ______ ____
ROOT
ATOM      1  C   UNL     1       2.210   8.149  18.594  0.00  0.00    +0.000 A 
ATOM      2  N   UNL     1       3.006   8.363  17.538  0.00  0.00    +0.000 NA
ATOM      3  O   UNL     1       3.603   7.115  17.327  0.00  0.00    +0.000 OA
ATOM      4  C   UNL     1       3.077   6.276  18.269  0.00  0.00    +0.000 A 
ATOM      5  N   UNL     1       2.290   6.886  19.116  0.00  0.00    +0.000 NA
ENDROOT
BRANCH   1   9
ATOM      6  C   UNL     1       0.965   9.331  22.787  0.00  0.00    +0.000 A 
ATOM      7  C   UNL     1       1.437   8.830  21.631  0.00  0.00    +0.000 A 
ATOM      8  N   UNL     1       0.950   9.348  20.446  0.00  0.00    +0.000 N 
ATOM      9  C   UNL     1       1.253   9.134  19.125  0.00  0.00    +0.000 A 
ATOM     10  C   UNL     1       0.459  10.014  18.421  0.00  0.00    +0.000 A 
ATOM     11  N   UNL     1      -0.335  10.757  19.269  0.00  0.00    +0.000 NA
ATOM     12  C   UNL     1      -0.005  10.331  20.468  0.00  0.00    +0.000 A 
ATOM     13  C   UNL     1      -0.475  10.793  21.746  0.00  0.00    +0.000 A 
ATOM     14  N   UNL     1      -0.002  10.317  22.870  0.00  0.00    +0.000 NA
ENDBRANCH   1   9
BRANCH   4  15
ATOM     15  C   UNL     1       3.310   4.808  18.096  0.00  0.00    +0.000 C 
ATOM     16  C   UNL     1       4.165   4.262  19.278  0.00  0.00    +0.000 C 
ATOM     17  C   UNL     1       5.582   4.877  19.340  0.00  0.00    +0.000 C 
ATOM     18  C   UNL     1       6.167   4.946  17.982  0.00  0.00    +0.000 A 
ATOM     19  N   UNL     1       7.464   5.229  17.711  0.00  0.00    +0.000 NA
ATOM     20  N   UNL     1       7.599   5.256  16.391  0.00  0.00    +0.000 NA
ATOM     21  N   UNL     1       6.394   4.997  15.833  0.00  0.00    +0.000 N 
ATOM     22  C   UNL     1       5.458   4.795  16.810  0.00  0.00    +0.000 A 
ATOM     23  C   UNL     1       3.998   4.509  16.721  0.00  0.00    +0.000 C 
BRANCH  21  24
ATOM     24  C   UNL     1       6.279   4.939  14.391  0.00  0.00    +0.000 C 
ATOM     25  C   UNL     1       5.882   3.553  13.870  0.00  0.00    +0.000 C 
ATOM     26  C   UNL     1       6.329   3.522  12.410  0.00  0.00    +0.000 C 
ATOM     27  C   UNL     1       7.337   4.657  12.240  0.00  0.00    +0.000 C 
ATOM     28  C   UNL     1       7.588   5.208  13.639  0.00  0.00    +0.000 C 
ENDBRANCH  21  24
ENDBRANCH   4  15
TORSDOF 3
ENDMDL
MODEL 2
REMARK VINA RESULT:      -9.0      0.741      1.718
REMARK  Name = 
REMARK  3 active torsions:
REMARK  status: ('A' for Active; 'I' for Inactive)
REMARK    1  A    between atoms: C_4  and  C_5
REMARK    2  A    between atoms: C_8  and  C_9
REMARK    3  A    between atoms: N_15  and  C_16
REMARK                            x       y       z     vdW  Elec       q    Type
REMARK                         _______ _______ _______ _____ _____    ______ ____
ROOT
ATOM      1  C   UNL     1       2.230   7.612  19.259  0.00  0.00    +0.000 A 
ATOM      2  N   UNL     1       2.715   7.955  18.057  0.00  0.00    +0.000 NA
ATOM      3  O   UNL     1       3.223   6.750  17.559  0.00  0.00    +0.000 OA
ATOM      4  C   UNL     1       2.964   5.804  18.510  0.00  0.00    +0.000 A 
ATOM      5  N   UNL     1       2.438   6.302  19.599  0.00  0.00    +0.000 NA
ENDROOT
BRANCH   1   9
ATOM      6  C   UNL     1      -0.610  11.048  18.450  0.00  0.00    +0.000 A 
ATOM      7  C   UNL     1       0.271  10.032  18.491  0.00  0.00    +0.000 A 
ATOM      8  N   UNL     1       0.661   9.554  19.728  0.00  0.00    +0.000 N 
ATOM      9  C   UNL     1       1.459   8.513  20.131  0.00  0.00    +0.000 A 
ATOM     10  C   UNL     1       1.396   8.517  21.508  0.00  0.00    +0.000 A 
ATOM     11  N   UNL     1       0.592   9.537  21.968  0.00  0.00    +0.000 NA
ATOM     12  C   UNL     1       0.170  10.128  20.871  0.00  0.00    +0.000 A 
ATOM     13  C   UNL     1      -0.748  11.227  20.740  0.00  0.00    +0.000 A 
ATOM     14  N   UNL     1      -1.134  11.669  19.570  0.00  0.00    +0.000 NA
ENDBRANCH   1   9
BRANCH   4  15
ATOM     15  C   UNL     1       3.130   4.368  18.121  0.00  0.00    +0.000 C 
ATOM     16  C   UNL     1       3.896   3.600  19.240  0.00  0.00    +0.000 C 
ATOM     17  C   UNL     1       5.338   4.115  19.454  0.00  0.00    +0.000 C 
ATOM     18  C   UNL     1       5.992   4.356  18.149  0.00  0.00    +0.000 A 
ATOM     19  N   UNL     1       7.314   4.602  17.979  0.00  0.00    +0.000 NA
ATOM     20  N   UNL     1       7.515   4.822  16.686  0.00  0.00    +0.000 NA
ATOM     21  N   UNL     1       6.328   4.721  16.044  0.00  0.00    +0.000 N 
ATOM     22  C   UNL     1       5.335   4.427  16.939  0.00  0.00    +0.000 A 
ATOM     23  C   UNL     1       3.869   4.243  16.747  0.00  0.00    +0.000 C 
BRANCH  21  24
ATOM     24  C   UNL     1       6.283   4.891  14.607  0.00  0.00    +0.000 C 
ATOM     25  C   UNL     1       5.906   3.608  13.858  0.00  0.00    +0.000 C 
ATOM     26  C   UNL     1       6.422   3.800  12.434  0.00  0.00    +0.000 C 
ATOM     27  C   UNL     1       7.442   4.936  12.491  0.00  0.00    +0.000 C 
ATOM     28  C   UNL     1       7.627   5.259  13.970  0.00  0.00    +0.000 C 
ENDBRANCH  21  24
ENDBRANCH   4  15
TORSDOF 3
ENDMDL
MODEL 3
REMARK VINA RESULT:      -8.9      1.279      1.676
REMARK  Name = 
REMARK  3 active torsions:
REMARK  status: ('A' for Active; 'I' for Inactive)
REMARK    1  A    between atoms: C_4  and  C_5
REMARK    2  A    between atoms: C_8  and  C_9
REMARK    3  A    between atoms: N_15  and  C_16
REMARK                            x       y       z     vdW  Elec       q    Type
REMARK                         _______ _______ _______ _____ _____    ______ ____
ROOT
ATOM      1  C   UNL     1       2.402   7.007  18.197  0.00  0.00    +0.000 A 
ATOM      2  N   UNL     1       1.575   6.021  17.824  0.00  0.00    +0.000 NA
ATOM      3  O   UNL     1       2.420   4.910  17.729  0.00  0.00    +0.000 OA
ATOM      4  C   UNL     1       3.665   5.347  18.082  0.00  0.00    +0.000 A 
ATOM      5  N   UNL     1       3.716   6.637  18.291  0.00  0.00    +0.000 NA
ENDROOT
BRANCH   1   9
ATOM      6  C   UNL     1       1.026   8.879  22.088  0.00  0.00    +0.000 A 
ATOM      7  C   UNL     1       1.428   8.147  21.032  0.00  0.00    +0.000 A 
ATOM      8  N   UNL     1       1.528   8.771  19.803  0.00  0.00    +0.000 N 
ATOM      9  C   UNL     1       1.963   8.362  18.567  0.00  0.00    +0.000 A 
ATOM     10  C   UNL     1       1.876   9.478  17.763  0.00  0.00    +0.000 A 
ATOM     11  N   UNL     1       1.388  10.561  18.462  0.00  0.00    +0.000 NA
ATOM     12  C   UNL     1       1.199  10.095  19.677  0.00  0.00    +0.000 A 
ATOM     13  C   UNL     1       0.753  10.800  20.849  0.00  0.00    +0.000 A 
ATOM     14  N   UNL     1       0.676  10.216  22.019  0.00  0.00    +0.000 NA
ENDBRANCH   1   9
BRANCH   4  15
ATOM     15  C   UNL     1       4.710   4.311  18.357  0.00  0.00    +0.000 C 
ATOM     16  C   UNL     1       5.892   4.945  19.151  0.00  0.00    +0.000 C 
ATOM     17  C   UNL     1       6.634   6.048  18.362  0.00  0.00    +0.000 C 
ATOM     18  C   UNL     1       6.837   5.621  16.960  0.00  0.00    +0.000 A 
ATOM     19  N   UNL     1       7.636   6.255  16.066  0.00  0.00    +0.000 NA
ATOM     20  N   UNL     1       7.520   5.619  14.907  0.00  0.00    +0.000 NA
ATOM     21  N   UNL     1       6.651   4.594  15.067  0.00  0.00    +0.000 N 
ATOM     22  C   UNL     1       6.194   4.562  16.357  0.00  0.00    +0.000 A 
ATOM     23  C   UNL     1       5.216   3.660  17.025  0.00  0.00    +0.000 C 
BRANCH  21  24
ATOM     24  C   UNL     1       6.373   3.719  13.947  0.00  0.00    +0.000 C 
ATOM     25  C   UNL     1       7.267   3.990  12.731  0.00  0.00    +0.000 C 
ATOM     26  C   UNL     1       6.516   3.410  11.535  0.00  0.00    +0.000 C 
ATOM     27  C   UNL     1       5.065   3.230  11.978  0.00  0.00    +0.000 C 
ATOM     28  C   UNL     1       4.966   3.872  13.358  0.00  0.00    +0.000 C 
ENDBRANCH  21  24
ENDBRANCH   4  15
TORSDOF 3
ENDMDL
MODEL 4
REMARK VINA RESULT:      -8.6      1.363      2.245
REMARK  Name = 
REMARK  3 active torsions:
REMARK  status: ('A' for Active; 'I' for Inactive)
REMARK    1  A    between atoms: C_4  and  C_5
REMARK    2  A    between atoms: C_8  and  C_9
REMARK    3  A    between atoms: N_15  and  C_16
REMARK                            x       y       z     vdW  Elec       q    Type
REMARK                         _______ _______ _______ _____ _____    ______ ____
ROOT
ATOM      1  C   UNL     1       1.573   8.081  20.179  0.00  0.00    +0.000 A 
ATOM      2  N   UNL     1       2.055   8.451  18.985  0.00  0.00    +0.000 NA
ATOM      3  O   UNL     1       2.364   7.232  18.371  0.00  0.00    +0.000 OA
ATOM      4  C   UNL     1       2.008   6.256  19.258  0.00  0.00    +0.000 A 
ATOM      5  N   UNL     1       1.603   6.732  20.407  0.00  0.00    +0.000 NA
ENDROOT
BRANCH   1   9
ATOM      6  C   UNL     1      -1.414  11.470  19.828  0.00  0.00    +0.000 A 
ATOM      7  C   UNL     1      -0.529  10.461  19.730  0.00  0.00    +0.000 A 
ATOM      8  N   UNL     1       0.100  10.027  20.882  0.00  0.00    +0.000 N 
ATOM      9  C   UNL     1       0.974   9.006  21.155  0.00  0.00    +0.000 A 
ATOM     10  C   UNL     1       1.180   9.056  22.517  0.00  0.00    +0.000 A 
ATOM     11  N   UNL     1       0.467  10.087  23.092  0.00  0.00    +0.000 NA
ATOM     12  C   UNL     1      -0.167  10.637  22.080  0.00  0.00    +0.000 A 
ATOM     13  C   UNL     1      -1.108  11.725  22.095  0.00  0.00    +0.000 A 
ATOM     14  N   UNL     1      -1.719  12.125  21.009  0.00  0.00    +0.000 NA
ENDBRANCH   1   9
BRANCH   4  15
ATOM     15  C   UNL     1       1.951   4.849  18.754  0.00  0.00    +0.000 C 
ATOM     16  C   UNL     1       2.339   3.859  19.893  0.00  0.00    +0.000 C 
ATOM     17  C   UNL     1       3.793   4.037  20.386  0.00  0.00    +0.000 C 
ATOM     18  C   UNL     1       4.702   4.222  19.233  0.00  0.00    +0.000 A 
ATOM     19  N   UNL     1       6.055   4.190  19.300  0.00  0.00    +0.000 NA
ATOM     20  N   UNL     1       6.522   4.450  18.086  0.00  0.00    +0.000 NA
ATOM     21  N   UNL     1       5.471   4.650  17.257  0.00  0.00    +0.000 N 
ATOM     22  C   UNL     1       4.297   4.515  17.948  0.00  0.00    +0.000 A 
ATOM     23  C   UNL     1       2.881   4.662  17.508  0.00  0.00    +0.000 C 
BRANCH  21  24
ATOM     24  C   UNL     1       5.714   4.924  15.857  0.00  0.00    +0.000 C 
ATOM     25  C   UNL     1       5.339   3.756  14.938  0.00  0.00    +0.000 C 
ATOM     26  C   UNL     1       6.131   3.979  13.651  0.00  0.00    +0.000 C 
ATOM     27  C   UNL     1       7.245   4.966  13.992  0.00  0.00    +0.000 C 
ATOM     28  C   UNL     1       7.187   5.158  15.503  0.00  0.00    +0.000 C 
ENDBRANCH  21  24
ENDBRANCH   4  15
TORSDOF 3
ENDMDL
MODEL 5
REMARK VINA RESULT:      -8.3      1.159      1.669
REMARK  Name = 
REMARK  3 active torsions:
REMARK  status: ('A' for Active; 'I' for Inactive)
REMARK    1  A    between atoms: C_4  and  C_5
REMARK    2  A    between atoms: C_8  and  C_9
REMARK    3  A    between atoms: N_15  and  C_16
REMARK                            x       y       z     vdW  Elec       q    Type
REMARK                         _______ _______ _______ _____ _____    ______ ____
ROOT
ATOM      1  C   UNL     1       1.894   8.658  18.658  0.00  0.00    +0.000 A 
ATOM      2  N   UNL     1       2.519   8.715  17.474  0.00  0.00    +0.000 NA
ATOM      3  O   UNL     1       2.831   7.376  17.211  0.00  0.00    +0.000 OA
ATOM      4  C   UNL     1       2.333   6.655  18.258  0.00  0.00    +0.000 A 
ATOM      5  N   UNL     1       1.831   7.405  19.204  0.00  0.00    +0.000 NA
ENDROOT
BRANCH   1   9
ATOM      6  C   UNL     1       0.312   9.382  22.841  0.00  0.00    +0.000 A 
ATOM      7  C   UNL     1       0.808   8.975  21.658  0.00  0.00    +0.000 A 
ATOM      8  N   UNL     1       0.772   9.858  20.595  0.00  0.00    +0.000 N 
ATOM      9  C   UNL     1       1.241   9.807  19.307  0.00  0.00    +0.000 A 
ATOM     10  C   UNL     1       0.949  11.039  18.763  0.00  0.00    +0.000 A 
ATOM     11  N   UNL     1       0.301  11.846  19.674  0.00  0.00    +0.000 NA
ATOM     12  C   UNL     1       0.221  11.102  20.755  0.00  0.00    +0.000 A 
ATOM     13  C   UNL     1      -0.310  11.450  22.046  0.00  0.00    +0.000 A 
ATOM     14  N   UNL     1      -0.260  10.623  23.060  0.00  0.00    +0.000 NA
ENDBRANCH   1   9
BRANCH   4  15
ATOM     15  C   UNL     1       2.260   5.168  18.102  0.00  0.00    +0.000 C 
ATOM     16  C   UNL     1       2.247   4.487  19.504  0.00  0.00    +0.000 C 
ATOM     17  C   UNL     1       3.543   4.730  20.311  0.00  0.00    +0.000 C 
ATOM     18  C   UNL     1       4.725   4.582  19.434  0.00  0.00    +0.000 A 
ATOM     19  N   UNL     1       6.007   4.518  19.867  0.00  0.00    +0.000 NA
ATOM     20  N   UNL     1       6.787   4.444  18.796  0.00  0.00    +0.000 NA
ATOM     21  N   UNL     1       6.002   4.466  17.693  0.00  0.00    +0.000 N 
ATOM     22  C   UNL     1       4.686   4.554  18.056  0.00  0.00    +0.000 A 
ATOM     23  C   UNL     1       3.448   4.637  17.232  0.00  0.00    +0.000 C 
BRANCH  21  24
ATOM     24  C   UNL     1       6.615   4.366  16.385  0.00  0.00    +0.000 C 
ATOM     25  C   UNL     1       6.753   5.718  15.677  0.00  0.00    +0.000 C 
ATOM     26  C   UNL     1       6.883   5.389  14.191  0.00  0.00    +0.000 C 
ATOM     27  C   UNL     1       6.385   3.956  14.018  0.00  0.00    +0.000 C 
ATOM     28  C   UNL     1       5.812   3.546  15.370  0.00  0.00    +0.000 C 
ENDBRANCH  21  24
ENDBRANCH   4  15
TORSDOF 3
ENDMDL
MODEL 6
REMARK VINA RESULT:      -8.3      1.463      2.351
REMARK  Name = 
REMARK  3 active torsions:
REMARK  status: ('A' for Active; 'I' for Inactive)
REMARK    1  A    between atoms: C_4  and  C_5
REMARK    2  A    between atoms: C_8  and  C_9
REMARK    3  A    between atoms: N_15  and  C_16
REMARK                            x       y       z     vdW  Elec       q    Type
REMARK                         _______ _______ _______ _____ _____    ______ ____
ROOT
ATOM      1  C   UNL     1       2.591   6.597  18.979  0.00  0.00    +0.000 A 
ATOM      2  N   UNL     1       2.083   5.905  17.950  0.00  0.00    +0.000 NA
ATOM      3  O   UNL     1       3.098   4.990  17.646  0.00  0.00    +0.000 OA
ATOM      4  C   UNL     1       4.099   5.217  18.547  0.00  0.00    +0.000 A 
ATOM      5  N   UNL     1       3.868   6.245  19.322  0.00  0.00    +0.000 NA
ENDROOT
BRANCH   1   9
ATOM      6  C   UNL     1       1.372  10.886  18.173  0.00  0.00    +0.000 A 
ATOM      7  C   UNL     1       1.843   9.627  18.242  0.00  0.00    +0.000 A 
ATOM      8  N   UNL     1       1.586   8.894  19.386  0.00  0.00    +0.000 N 
ATOM      9  C   UNL     1       1.842   7.598  19.756  0.00  0.00    +0.000 A 
ATOM     10  C   UNL     1       1.271   7.455  21.003  0.00  0.00    +0.000 A 
ATOM     11  N   UNL     1       0.681   8.630  21.419  0.00  0.00    +0.000 NA
ATOM     12  C   UNL     1       0.889   9.460  20.421  0.00  0.00    +0.000 A 
ATOM     13  C   UNL     1       0.442  10.820  20.277  0.00  0.00    +0.000 A 
ATOM     14  N   UNL     1       0.668  11.510  19.187  0.00  0.00    +0.000 NA
ENDBRANCH   1   9
BRANCH   4  15
ATOM     15  C   UNL     1       5.184   4.191  18.649  0.00  0.00    +0.000 C 
ATOM     16  C   UNL     1       6.458   4.826  19.284  0.00  0.00    +0.000 C 
ATOM     17  C   UNL     1       7.069   5.956  18.424  0.00  0.00    +0.000 C 
ATOM     18  C   UNL     1       7.079   5.562  16.998  0.00  0.00    +0.000 A 
ATOM     19  N   UNL     1       7.736   6.225  16.016  0.00  0.00    +0.000 NA
ATOM     20  N   UNL     1       7.466   5.612  14.871  0.00  0.00    +0.000 NA
ATOM     21  N   UNL     1       6.640   4.571  15.127  0.00  0.00    +0.000 N 
ATOM     22  C   UNL     1       6.370   4.506  16.467  0.00  0.00    +0.000 A 
ATOM     23  C   UNL     1       5.505   3.575  17.245  0.00  0.00    +0.000 C 
BRANCH  21  24
ATOM     24  C   UNL     1       6.218   3.717  14.037  0.00  0.00    +0.000 C 
ATOM     25  C   UNL     1       7.107   3.838  12.794  0.00  0.00    +0.000 C 
ATOM     26  C   UNL     1       6.253   3.336  11.632  0.00  0.00    +0.000 C 
ATOM     27  C   UNL     1       4.804   3.362  12.114  0.00  0.00    +0.000 C 
ATOM     28  C   UNL     1       4.829   4.042  13.479  0.00  0.00    +0.000 C 
ENDBRANCH  21  24
ENDBRANCH   4  15
TORSDOF 3
ENDMDL
MODEL 7
REMARK VINA RESULT:      -8.3      1.864      2.965
REMARK  Name = 
REMARK  3 active torsions:
REMARK  status: ('A' for Active; 'I' for Inactive)
REMARK    1  A    between atoms: C_4  and  C_5
REMARK    2  A    between atoms: C_8  and  C_9
REMARK    3  A    between atoms: N_15  and  C_16
REMARK                            x       y       z     vdW  Elec       q    Type
REMARK                         _______ _______ _______ _____ _____    ______ ____
ROOT
ATOM      1  C   UNL     1       1.235   7.850  20.798  0.00  0.00    +0.000 A 
ATOM      2  N   UNL     1       2.189   7.983  19.867  0.00  0.00    +0.000 NA
ATOM      3  O   UNL     1       2.343   6.681  19.376  0.00  0.00    +0.000 OA
ATOM      4  C   UNL     1       1.442   5.909  20.051  0.00  0.00    +0.000 A 
ATOM      5  N   UNL     1       0.806   6.564  20.989  0.00  0.00    +0.000 NA
ENDROOT
BRANCH   1   9
ATOM      6  C   UNL     1      -1.380  11.311  19.489  0.00  0.00    +0.000 A 
ATOM      7  C   UNL     1      -0.582  10.244  19.680  0.00  0.00    +0.000 A 
ATOM      8  N   UNL     1      -0.131   9.985  20.960  0.00  0.00    +0.000 N 
ATOM      9  C   UNL     1       0.613   8.974  21.515  0.00  0.00    +0.000 A 
ATOM     10  C   UNL     1       0.664   9.257  22.863  0.00  0.00    +0.000 A 
ATOM     11  N   UNL     1      -0.016  10.420  23.156  0.00  0.00    +0.000 NA
ATOM     12  C   UNL     1      -0.478  10.819  21.992  0.00  0.00    +0.000 A 
ATOM     13  C   UNL     1      -1.314  11.952  21.698  0.00  0.00    +0.000 A 
ATOM     14  N   UNL     1      -1.759  12.188  20.489  0.00  0.00    +0.000 NA
ENDBRANCH   1   9
BRANCH   4  15
ATOM     15  C   UNL     1       1.177   4.533  19.526  0.00  0.00    +0.000 C 
ATOM     16  C   UNL     1       1.494   3.474  20.624  0.00  0.00    +0.000 C 
ATOM     17  C   UNL     1       2.983   3.453  21.039  0.00  0.00    +0.000 C 
ATOM     18  C   UNL     1       3.847   3.549  19.841  0.00  0.00    +0.000 A 
ATOM     19  N   UNL     1       5.186   3.343  19.834  0.00  0.00    +0.000 NA
ATOM     20  N   UNL     1       5.618   3.572  18.601  0.00  0.00    +0.000 NA
ATOM     21  N   UNL     1       4.560   3.925  17.835  0.00  0.00    +0.000 N 
ATOM     22  C   UNL     1       3.416   3.923  18.587  0.00  0.00    +0.000 A 
ATOM     23  C   UNL     1       2.010   4.261  18.228  0.00  0.00    +0.000 C 
BRANCH  21  24
ATOM     24  C   UNL     1       4.763   4.200  16.428  0.00  0.00    +0.000 C 
ATOM     25  C   UNL     1       5.987   3.486  15.843  0.00  0.00    +0.000 C 
ATOM     26  C   UNL     1       6.359   4.276  14.590  0.00  0.00    +0.000 C 
ATOM     27  C   UNL     1       5.667   5.633  14.710  0.00  0.00    +0.000 C 
ATOM     28  C   UNL     1       5.056   5.669  16.106  0.00  0.00    +0.000 C 
ENDBRANCH  21  24
ENDBRANCH   4  15
TORSDOF 3
ENDMDL
MODEL 8
REMARK VINA RESULT:      -8.2      1.233      1.906
REMARK  Name = 
REMARK  3 active torsions:
REMARK  status: ('A' for Active; 'I' for Inactive)
REMARK    1  A    between atoms: C_4  and  C_5
REMARK    2  A    between atoms: C_8  and  C_9
REMARK    3  A    between atoms: N_15  and  C_16
REMARK                            x       y       z     vdW  Elec       q    Type
REMARK                         _______ _______ _______ _____ _____    ______ ____
ROOT
ATOM      1  C   UNL     1       2.177   8.447  18.576  0.00  0.00    +0.000 A 
ATOM      2  N   UNL     1       2.738   8.567  17.366  0.00  0.00    +0.000 NA
ATOM      3  O   UNL     1       3.320   7.311  17.156  0.00  0.00    +0.000 OA
ATOM      4  C   UNL     1       3.021   6.562  18.258  0.00  0.00    +0.000 A 
ATOM      5  N   UNL     1       2.400   7.243  19.187  0.00  0.00    +0.000 NA
ENDROOT
BRANCH   1   9
ATOM      6  C   UNL     1       1.992  12.964  18.275  0.00  0.00    +0.000 A 
ATOM      7  C   UNL     1       2.218  11.638  18.256  0.00  0.00    +0.000 A 
ATOM      8  N   UNL     1       1.413  10.826  19.034  0.00  0.00    +0.000 N 
ATOM      9  C   UNL     1       1.315   9.467  19.196  0.00  0.00    +0.000 A 
ATOM     10  C   UNL     1       0.265   9.279  20.068  0.00  0.00    +0.000 A 
ATOM     11  N   UNL     1      -0.281  10.482  20.460  0.00  0.00    +0.000 NA
ATOM     12  C   UNL     1       0.432  11.379  19.815  0.00  0.00    +0.000 A 
ATOM     13  C   UNL     1       0.273  12.808  19.797  0.00  0.00    +0.000 A 
ATOM     14  N   UNL     1       1.021  13.578  19.046  0.00  0.00    +0.000 NA
ENDBRANCH   1   9
BRANCH   4  15
ATOM     15  C   UNL     1       3.261   5.087  18.179  0.00  0.00    +0.000 C 
ATOM     16  C   UNL     1       4.127   4.624  19.389  0.00  0.00    +0.000 C 
ATOM     17  C   UNL     1       5.541   5.249  19.401  0.00  0.00    +0.000 C 
ATOM     18  C   UNL     1       6.116   5.233  18.038  0.00  0.00    +0.000 A 
ATOM     19  N   UNL     1       7.410   5.505  17.740  0.00  0.00    +0.000 NA
ATOM     20  N   UNL     1       7.536   5.447  16.420  0.00  0.00    +0.000 NA
ATOM     21  N   UNL     1       6.329   5.145  15.888  0.00  0.00    +0.000 N 
ATOM     22  C   UNL     1       5.400   5.002  16.883  0.00  0.00    +0.000 A 
ATOM     23  C   UNL     1       3.942   4.703  16.823  0.00  0.00    +0.000 C 
BRANCH  21  24
ATOM     24  C   UNL     1       6.205   4.993  14.453  0.00  0.00    +0.000 C 
ATOM     25  C   UNL     1       5.758   3.590  14.030  0.00  0.00    +0.000 C 
ATOM     26  C   UNL     1       6.197   3.444  12.574  0.00  0.00    +0.000 C 
ATOM     27  C   UNL     1       7.242   4.529  12.324  0.00  0.00    +0.000 C 
ATOM     28  C   UNL     1       7.519   5.165  13.682  0.00  0.00    +0.000 C 
ENDBRANCH  21  24
ENDBRANCH   4  15
TORSDOF 3
ENDMDL
MODEL 9
REMARK VINA RESULT:      -8.2      1.244      2.139
REMARK  Name = 
REMARK  3 active torsions:
REMARK  status: ('A' for Active; 'I' for Inactive)
REMARK    1  A    between atoms: C_4  and  C_5
REMARK    2  A    between atoms: C_8  and  C_9
REMARK    3  A    between atoms: N_15  and  C_16
REMARK                            x       y       z     vdW  Elec       q    Type
REMARK                         _______ _______ _______ _____ _____    ______ ____
ROOT
ATOM      1  C   UNL     1       1.996   8.718  18.462  0.00  0.00    +0.000 A 
ATOM      2  N   UNL     1       2.675   8.811  17.310  0.00  0.00    +0.000 NA
ATOM      3  O   UNL     1       3.254   7.544  17.175  0.00  0.00    +0.000 OA
ATOM      4  C   UNL     1       2.837   6.817  18.254  0.00  0.00    +0.000 A 
ATOM      5  N   UNL     1       2.139   7.520  19.108  0.00  0.00    +0.000 NA
ENDROOT
BRANCH   1   9
ATOM      6  C   UNL     1      -2.073  10.235  17.168  0.00  0.00    +0.000 A 
ATOM      7  C   UNL     1      -0.867   9.677  17.381  0.00  0.00    +0.000 A 
ATOM      8  N   UNL     1      -0.110  10.139  18.441  0.00  0.00    +0.000 N 
ATOM      9  C   UNL     1       1.094   9.760  18.979  0.00  0.00    +0.000 A 
ATOM     10  C   UNL     1       1.275  10.574  20.076  0.00  0.00    +0.000 A 
ATOM     11  N   UNL     1       0.224  11.454  20.225  0.00  0.00    +0.000 NA
ATOM     12  C   UNL     1      -0.582  11.155  19.230  0.00  0.00    +0.000 A 
ATOM     13  C   UNL     1      -1.871  11.714  18.920  0.00  0.00    +0.000 A 
ATOM     14  N   UNL     1      -2.598  11.266  17.927  0.00  0.00    +0.000 NA
ENDBRANCH   1   9
BRANCH   4  15
ATOM     15  C   UNL     1       3.060   5.337  18.220  0.00  0.00    +0.000 C 
ATOM     16  C   UNL     1       3.877   4.894  19.470  0.00  0.00    +0.000 C 
ATOM     17  C   UNL     1       5.298   5.501  19.517  0.00  0.00    +0.000 C 
ATOM     18  C   UNL     1       5.920   5.444  18.176  0.00  0.00    +0.000 A 
ATOM     19  N   UNL     1       7.227   5.692  17.918  0.00  0.00    +0.000 NA
ATOM     20  N   UNL     1       7.399   5.600  16.605  0.00  0.00    +0.000 NA
ATOM     21  N   UNL     1       6.208   5.300  16.038  0.00  0.00    +0.000 N 
ATOM     22  C   UNL     1       5.242   5.194  17.002  0.00  0.00    +0.000 A 
ATOM     23  C   UNL     1       3.783   4.911  16.898  0.00  0.00    +0.000 C 
BRANCH  21  24
ATOM     24  C   UNL     1       6.132   5.115  14.604  0.00  0.00    +0.000 C 
ATOM     25  C   UNL     1       5.639   3.721  14.199  0.00  0.00    +0.000 C 
ATOM     26  C   UNL     1       6.126   3.516  12.766  0.00  0.00    +0.000 C 
ATOM     27  C   UNL     1       7.228   4.546  12.530  0.00  0.00    +0.000 C 
ATOM     28  C   UNL     1       7.481   5.206  13.881  0.00  0.00    +0.000 C 
ENDBRANCH  21  24
ENDBRANCH   4  15
TORSDOF 3
ENDMDL
