MODEL 1
REMARK VINA RESULT:      -8.5      0.000      0.000
REMARK  Name = 
REMARK  5 active torsions:
REMARK  status: ('A' for Active; 'I' for Inactive)
REMARK    1  A    between atoms: C_2  and  C_3
REMARK    2  A    between atoms: C_3  and  C_4
REMARK    3  A    between atoms: C_4  and  C_5
REMARK    4  A    between atoms: C_5  and  C_6
REMARK    5  A    between atoms: N_19  and  C_20
REMARK                            x       y       z     vdW  Elec       q    Type
REMARK                         _______ _______ _______ _____ _____    ______ ____
ROOT
ATOM      1  C   UNL     1       2.893   3.503  18.414  0.00  0.00    +0.000 C 
ENDROOT
BRANCH   1   2
ATOM      2  C   UNL     1       4.000   3.952  17.530  0.00  0.00    +0.000 A 
ATOM      3  N   UNL     1       4.104   3.545  16.217  0.00  0.00    +0.000 NA
ATOM      4  C   UNL     1       5.180   4.180  15.802  0.00  0.00    +0.000 A 
ATOM      5  C   UNL     1       5.876   4.222  14.533  0.00  0.00    +0.000 A 
ATOM      6  C   UNL     1       5.444   3.521  13.405  0.00  0.00    +0.000 A 
ATOM      7  C   UNL     1       6.178   3.605  12.222  0.00  0.00    +0.000 A 
ATOM      8  C   UNL     1       7.335   4.385  12.166  0.00  0.00    +0.000 A 
ATOM      9  C   UNL     1       7.764   5.093  13.293  0.00  0.00    +0.000 A 
ATOM     10  C   UNL     1       7.042   5.024  14.485  0.00  0.00    +0.000 A 
ATOM     11  N   UNL     1       7.508   5.764  15.609  0.00  0.00    +0.000 NA
ATOM     12  C   UNL     1       6.836   5.696  16.725  0.00  0.00    +0.000 A 
ATOM     13  N   UNL     1       5.691   4.919  16.829  0.00  0.00    +0.000 N 
ATOM     14  N   UNL     1       4.956   4.794  17.948  0.00  0.00    +0.000 NA
ENDBRANCH   1   2
BRANCH   1  15
ATOM     15  C   UNL     1       3.391   2.932  19.745  0.00  0.00    +0.000 C 
BRANCH  15  16
ATOM     16  C   UNL     1       2.999   3.857  20.893  0.00  0.00    +0.000 C 
BRANCH  16  18
ATOM     17  O   UNL     1       0.871   4.872  20.566  0.00  0.00    +0.000 OA
ATOM     18  C   UNL     1       2.089   5.003  20.489  0.00  0.00    +0.000 C 
ATOM     19  N   UNL     1       2.764   6.138  20.073  0.00  0.00    +0.000 N 
ATOM     20  H   UNL     1       3.754   6.048  19.885  0.00  0.00    +0.000 HD
BRANCH  19  21
ATOM     21  C   UNL     1       2.173   7.377  19.738  0.00  0.00    +0.000 A 
ATOM     22  C   UNL     1       1.468   8.169  20.654  0.00  0.00    +0.000 A 
ATOM     23  C   UNL     1       0.860   9.360  20.246  0.00  0.00    +0.000 A 
ATOM     24  C   UNL     1       0.959   9.761  18.922  0.00  0.00    +0.000 A 
ATOM     25  F   UNL     1       0.346  10.884  18.522  0.00  0.00    +0.000 F 
ATOM     26  C   UNL     1       1.686   9.013  18.005  0.00  0.00    +0.000 A 
ATOM     27  C   UNL     1       2.305   7.828  18.417  0.00  0.00    +0.000 A 
ENDBRANCH  19  21
ENDBRANCH  16  18
ENDBRANCH  15  16
ENDBRANCH   1  15
TORSDOF 5
ENDMDL
MODEL 2
REMARK VINA RESULT:      -8.5      0.674      1.163
REMARK  Name = 
REMARK  5 active torsions:
REMARK  status: ('A' for Active; 'I' for Inactive)
REMARK    1  A    between atoms: C_2  and  C_3
REMARK    2  A    between atoms: C_3  and  C_4
REMARK    3  A    between atoms: C_4  and  C_5
REMARK    4  A    between atoms: C_5  and  C_6
REMARK    5  A    between atoms: N_19  and  C_20
REMARK                            x       y       z     vdW  Elec       q    Type
REMARK                         _______ _______ _______ _____ _____    ______ ____
ROOT
ATOM      1  C   UNL     1       2.917   2.835  19.036  0.00  0.00    +0.000 C 
ENDROOT
BRANCH   1   2
ATOM      2  C   UNL     1       3.992   3.414  18.189  0.00  0.00    +0.000 A 
ATOM      3  N   UNL     1       4.064   3.183  16.832  0.00  0.00    +0.000 NA
ATOM      4  C   UNL     1       5.120   3.885  16.476  0.00  0.00    +0.000 A 
ATOM      5  C   UNL     1       5.779   4.103  15.205  0.00  0.00    +0.000 A 
ATOM      6  C   UNL     1       5.326   3.546  14.008  0.00  0.00    +0.000 A 
ATOM      7  C   UNL     1       6.025   3.796  12.827  0.00  0.00    +0.000 A 
ATOM      8  C   UNL     1       7.169   4.597  12.843  0.00  0.00    +0.000 A 
ATOM      9  C   UNL     1       7.620   5.160  14.041  0.00  0.00    +0.000 A 
ATOM     10  C   UNL     1       6.933   4.924  15.232  0.00  0.00    +0.000 A 
ATOM     11  N   UNL     1       7.419   5.521  16.431  0.00  0.00    +0.000 NA
ATOM     12  C   UNL     1       6.779   5.297  17.545  0.00  0.00    +0.000 A 
ATOM     13  N   UNL     1       5.649   4.493  17.577  0.00  0.00    +0.000 N 
ATOM     14  N   UNL     1       4.948   4.211  18.689  0.00  0.00    +0.000 NA
ENDBRANCH   1   2
BRANCH   1  15
ATOM     15  C   UNL     1       3.348   2.642  20.493  0.00  0.00    +0.000 C 
BRANCH  15  16
ATOM     16  C   UNL     1       2.584   3.604  21.399  0.00  0.00    +0.000 C 
BRANCH  16  18
ATOM     17  O   UNL     1       0.669   4.574  20.372  0.00  0.00    +0.000 OA
ATOM     18  C   UNL     1       1.854   4.711  20.659  0.00  0.00    +0.000 C 
ATOM     19  N   UNL     1       2.637   5.820  20.392  0.00  0.00    +0.000 N 
ATOM     20  H   UNL     1       3.636   5.727  20.520  0.00  0.00    +0.000 HD
BRANCH  19  21
ATOM     21  C   UNL     1       2.190   7.028  19.809  0.00  0.00    +0.000 A 
ATOM     22  C   UNL     1       2.398   7.358  18.463  0.00  0.00    +0.000 A 
ATOM     23  C   UNL     1       1.979   8.594  17.960  0.00  0.00    +0.000 A 
ATOM     24  C   UNL     1       1.350   9.498  18.801  0.00  0.00    +0.000 A 
ATOM     25  F   UNL     1       0.980  10.696  18.329  0.00  0.00    +0.000 F 
ATOM     26  C   UNL     1       1.098   9.177  20.129  0.00  0.00    +0.000 A 
ATOM     27  C   UNL     1       1.505   7.936  20.629  0.00  0.00    +0.000 A 
ENDBRANCH  19  21
ENDBRANCH  16  18
ENDBRANCH  15  16
ENDBRANCH   1  15
TORSDOF 5
ENDMDL
MODEL 3
REMARK VINA RESULT:      -8.3      3.619      7.387
REMARK  Name = 
REMARK  5 active torsions:
REMARK  status: ('A' for Active; 'I' for Inactive)
REMARK    1  A    between atoms: C_2  and  C_3
REMARK    2  A    between atoms: C_3  and  C_4
REMARK    3  A    between atoms: C_4  and  C_5
REMARK    4  A    between atoms: C_5  and  C_6
REMARK    5  A    between atoms: N_19  and  C_20
REMARK                            x       y       z     vdW  Elec       q    Type
REMARK                         _______ _______ _______ _____ _____    ______ ____
ROOT
ATOM      1  C   UNL     1       7.736   6.004  19.175  0.00  0.00    +0.000 C 
ENDROOT
BRANCH   1   2
ATOM      2  C   UNL     1       6.515   5.174  19.006  0.00  0.00    +0.000 A 
ATOM      3  N   UNL     1       5.354   5.421  19.707  0.00  0.00    +0.000 NA
ATOM      4  C   UNL     1       4.538   4.496  19.248  0.00  0.00    +0.000 A 
ATOM      5  C   UNL     1       3.159   4.162  19.538  0.00  0.00    +0.000 A 
ATOM      6  C   UNL     1       2.380   4.874  20.453  0.00  0.00    +0.000 A 
ATOM      7  C   UNL     1       1.062   4.481  20.684  0.00  0.00    +0.000 A 
ATOM      8  C   UNL     1       0.526   3.384  20.007  0.00  0.00    +0.000 A 
ATOM      9  C   UNL     1       1.303   2.674  19.086  0.00  0.00    +0.000 A 
ATOM     10  C   UNL     1       2.623   3.054  18.838  0.00  0.00    +0.000 A 
ATOM     11  N   UNL     1       3.380   2.310  17.889  0.00  0.00    +0.000 NA
ATOM     12  C   UNL     1       4.615   2.662  17.660  0.00  0.00    +0.000 A 
ATOM     13  N   UNL     1       5.193   3.734  18.325  0.00  0.00    +0.000 N 
ATOM     14  N   UNL     1       6.461   4.145  18.147  0.00  0.00    +0.000 NA
ENDBRANCH   1   2
BRANCH   1  15
ATOM     15  C   UNL     1       7.986   6.940  17.989  0.00  0.00    +0.000 C 
BRANCH  15  16
ATOM     16  C   UNL     1       6.660   7.464  17.444  0.00  0.00    +0.000 C 
BRANCH  16  18
ATOM     17  O   UNL     1       5.084   7.049  15.710  0.00  0.00    +0.000 OA
ATOM     18  C   UNL     1       6.165   6.741  16.205  0.00  0.00    +0.000 C 
ATOM     19  N   UNL     1       7.036   5.777  15.730  0.00  0.00    +0.000 N 
ATOM     20  H   UNL     1       7.800   5.501  16.334  0.00  0.00    +0.000 HD
BRANCH  19  21
ATOM     21  C   UNL     1       6.874   5.027  14.543  0.00  0.00    +0.000 A 
ATOM     22  C   UNL     1       5.960   3.973  14.414  0.00  0.00    +0.000 A 
ATOM     23  C   UNL     1       5.886   3.234  13.229  0.00  0.00    +0.000 A 
ATOM     24  C   UNL     1       6.725   3.551  12.172  0.00  0.00    +0.000 A 
ATOM     25  F   UNL     1       6.681   2.821  11.049  0.00  0.00    +0.000 F 
ATOM     26  C   UNL     1       7.612   4.616  12.262  0.00  0.00    +0.000 A 
ATOM     27  C   UNL     1       7.676   5.364  13.443  0.00  0.00    +0.000 A 
ENDBRANCH  19  21
ENDBRANCH  16  18
ENDBRANCH  15  16
ENDBRANCH   1  15
TORSDOF 5
ENDMDL
MODEL 4
REMARK VINA RESULT:      -8.3      2.117      3.238
REMARK  Name = 
REMARK  5 active torsions:
REMARK  status: ('A' for Active; 'I' for Inactive)
REMARK    1  A    between atoms: C_2  and  C_3
REMARK    2  A    between atoms: C_3  and  C_4
REMARK    3  A    between atoms: C_4  and  C_5
REMARK    4  A    between atoms: C_5  and  C_6
REMARK    5  A    between atoms: N_19  and  C_20
REMARK                            x       y       z     vdW  Elec       q    Type
REMARK                         _______ _______ _______ _____ _____    ______ ____
ROOT
ATOM      1  C   UNL     1       3.503   1.795  18.775  0.00  0.00    +0.000 C 
ENDROOT
BRANCH   1   2
ATOM      2  C   UNL     1       4.149   3.045  18.295  0.00  0.00    +0.000 A 
ATOM      3  N   UNL     1       5.228   3.610  18.942  0.00  0.00    +0.000 NA
ATOM      4  C   UNL     1       5.497   4.657  18.191  0.00  0.00    +0.000 A 
ATOM      5  C   UNL     1       6.499   5.700  18.271  0.00  0.00    +0.000 A 
ATOM      6  C   UNL     1       7.468   5.747  19.276  0.00  0.00    +0.000 A 
ATOM      7  C   UNL     1       8.392   6.792  19.289  0.00  0.00    +0.000 A 
ATOM      8  C   UNL     1       8.348   7.783  18.305  0.00  0.00    +0.000 A 
ATOM      9  C   UNL     1       7.381   7.732  17.296  0.00  0.00    +0.000 A 
ATOM     10  C   UNL     1       6.451   6.693  17.263  0.00  0.00    +0.000 A 
ATOM     11  N   UNL     1       5.487   6.672  16.215  0.00  0.00    +0.000 NA
ATOM     12  C   UNL     1       4.614   5.704  16.187  0.00  0.00    +0.000 A 
ATOM     13  N   UNL     1       4.611   4.710  17.155  0.00  0.00    +0.000 N 
ATOM     14  N   UNL     1       3.736   3.690  17.194  0.00  0.00    +0.000 NA
ENDBRANCH   1   2
BRANCH   1  15
ATOM     15  C   UNL     1       2.361   2.059  19.761  0.00  0.00    +0.000 C 
BRANCH  15  16
ATOM     16  C   UNL     1       2.696   3.257  20.645  0.00  0.00    +0.000 C 
BRANCH  16  18
ATOM     17  O   UNL     1       0.673   4.496  20.461  0.00  0.00    +0.000 OA
ATOM     18  C   UNL     1       1.894   4.507  20.333  0.00  0.00    +0.000 C 
ATOM     19  N   UNL     1       2.664   5.585  19.936  0.00  0.00    +0.000 N 
ATOM     20  H   UNL     1       3.631   5.404  19.698  0.00  0.00    +0.000 HD
BRANCH  19  21
ATOM     21  C   UNL     1       2.191   6.893  19.682  0.00  0.00    +0.000 A 
ATOM     22  C   UNL     1       2.350   7.546  18.453  0.00  0.00    +0.000 A 
ATOM     23  C   UNL     1       1.907   8.861  18.282  0.00  0.00    +0.000 A 
ATOM     24  C   UNL     1       1.302   9.523  19.339  0.00  0.00    +0.000 A 
ATOM     25  F   UNL     1       0.909  10.795  19.188  0.00  0.00    +0.000 F 
ATOM     26  C   UNL     1       1.097   8.882  20.555  0.00  0.00    +0.000 A 
ATOM     27  C   UNL     1       1.529   7.562  20.721  0.00  0.00    +0.000 A 
ENDBRANCH  19  21
ENDBRANCH  16  18
ENDBRANCH  15  16
ENDBRANCH   1  15
TORSDOF 5
ENDMDL
MODEL 5
REMARK VINA RESULT:      -8.2      2.907      7.418
REMARK  Name = 
REMARK  5 active torsions:
REMARK  status: ('A' for Active; 'I' for Inactive)
REMARK    1  A    between atoms: C_2  and  C_3
REMARK    2  A    between atoms: C_3  and  C_4
REMARK    3  A    between atoms: C_4  and  C_5
REMARK    4  A    between atoms: C_5  and  C_6
REMARK    5  A    between atoms: N_19  and  C_20
REMARK                            x       y       z     vdW  Elec       q    Type
REMARK                         _______ _______ _______ _____ _____    ______ ____
ROOT
ATOM      1  C   UNL     1       2.070   4.986  21.094  0.00  0.00    +0.000 C 
ENDROOT
BRANCH   1   2
ATOM      2  C   UNL     1       1.938   6.300  20.412  0.00  0.00    +0.000 A 
ATOM      3  N   UNL     1       1.274   7.363  20.986  0.00  0.00    +0.000 NA
ATOM      4  C   UNL     1       1.415   8.312  20.084  0.00  0.00    +0.000 A 
ATOM      5  C   UNL     1       0.972   9.690  20.021  0.00  0.00    +0.000 A 
ATOM      6  C   UNL     1       0.253  10.305  21.047  0.00  0.00    +0.000 A 
ATOM      7  C   UNL     1      -0.147  11.634  20.904  0.00  0.00    +0.000 A 
ATOM      8  C   UNL     1       0.171  12.343  19.743  0.00  0.00    +0.000 A 
ATOM      9  C   UNL     1       0.897  11.728  18.718  0.00  0.00    +0.000 A 
ATOM     10  C   UNL     1       1.308  10.401  18.844  0.00  0.00    +0.000 A 
ATOM     11  N   UNL     1       2.052   9.813  17.781  0.00  0.00    +0.000 NA
ATOM     12  C   UNL     1       2.432   8.571  17.896  0.00  0.00    +0.000 A 
ATOM     13  N   UNL     1       2.123   7.825  19.024  0.00  0.00    +0.000 N 
ATOM     14  N   UNL     1       2.473   6.540  19.206  0.00  0.00    +0.000 NA
ENDBRANCH   1   2
BRANCH   1  15
ATOM     15  C   UNL     1       1.511   3.828  20.262  0.00  0.00    +0.000 C 
BRANCH  15  16
ATOM     16  C   UNL     1       2.473   2.643  20.298  0.00  0.00    +0.000 C 
BRANCH  16  18
ATOM     17  O   UNL     1       3.564   1.581  18.470  0.00  0.00    +0.000 OA
ATOM     18  C   UNL     1       3.456   2.602  19.143  0.00  0.00    +0.000 C 
ATOM     19  N   UNL     1       4.148   3.784  18.949  0.00  0.00    +0.000 N 
ATOM     20  H   UNL     1       4.096   4.479  19.683  0.00  0.00    +0.000 HD
BRANCH  19  21
ATOM     21  C   UNL     1       5.046   4.056  17.892  0.00  0.00    +0.000 A 
ATOM     22  C   UNL     1       6.384   4.421  18.090  0.00  0.00    +0.000 A 
ATOM     23  C   UNL     1       7.207   4.729  17.003  0.00  0.00    +0.000 A 
ATOM     24  C   UNL     1       6.693   4.670  15.717  0.00  0.00    +0.000 A 
ATOM     25  F   UNL     1       7.471   5.001  14.677  0.00  0.00    +0.000 F 
ATOM     26  C   UNL     1       5.381   4.273  15.493  0.00  0.00    +0.000 A 
ATOM     27  C   UNL     1       4.561   3.951  16.580  0.00  0.00    +0.000 A 
ENDBRANCH  19  21
ENDBRANCH  16  18
ENDBRANCH  15  16
ENDBRANCH   1  15
TORSDOF 5
ENDMDL
MODEL 6
REMARK VINA RESULT:      -8.2      2.128      3.135
REMARK  Name = 
REMARK  5 active torsions:
REMARK  status: ('A' for Active; 'I' for Inactive)
REMARK    1  A    between atoms: C_2  and  C_3
REMARK    2  A    between atoms: C_3  and  C_4
REMARK    3  A    between atoms: C_4  and  C_5
REMARK    4  A    between atoms: C_5  and  C_6
REMARK    5  A    between atoms: N_19  and  C_20
REMARK                            x       y       z     vdW  Elec       q    Type
REMARK                         _______ _______ _______ _____ _____    ______ ____
ROOT
ATOM      1  C   UNL     1       3.743   1.952  21.086  0.00  0.00    +0.000 C 
ENDROOT
BRANCH   1   2
ATOM      2  C   UNL     1       4.223   2.806  19.968  0.00  0.00    +0.000 A 
ATOM      3  N   UNL     1       5.233   3.730  20.130  0.00  0.00    +0.000 NA
ATOM      4  C   UNL     1       5.360   4.233  18.920  0.00  0.00    +0.000 A 
ATOM      5  C   UNL     1       6.227   5.247  18.357  0.00  0.00    +0.000 A 
ATOM      6  C   UNL     1       7.197   5.919  19.105  0.00  0.00    +0.000 A 
ATOM      7  C   UNL     1       7.985   6.891  18.490  0.00  0.00    +0.000 A 
ATOM      8  C   UNL     1       7.805   7.192  17.137  0.00  0.00    +0.000 A 
ATOM      9  C   UNL     1       6.838   6.515  16.388  0.00  0.00    +0.000 A 
ATOM     10  C   UNL     1       6.042   5.536  16.984  0.00  0.00    +0.000 A 
ATOM     11  N   UNL     1       5.073   4.865  16.185  0.00  0.00    +0.000 NA
ATOM     12  C   UNL     1       4.326   3.953  16.743  0.00  0.00    +0.000 A 
ATOM     13  N   UNL     1       4.459   3.637  18.087  0.00  0.00    +0.000 N 
ATOM     14  N   UNL     1       3.717   2.718  18.729  0.00  0.00    +0.000 NA
ENDBRANCH   1   2
BRANCH   1  15
ATOM     15  C   UNL     1       2.226   2.030  21.283  0.00  0.00    +0.000 C 
BRANCH  15  16
ATOM     16  C   UNL     1       1.837   3.398  21.836  0.00  0.00    +0.000 C 
BRANCH  16  18
ATOM     17  O   UNL     1       0.571   4.227  19.999  0.00  0.00    +0.000 OA
ATOM     18  C   UNL     1       1.502   4.429  20.773  0.00  0.00    +0.000 C 
ATOM     19  N   UNL     1       2.311   5.551  20.804  0.00  0.00    +0.000 N 
ATOM     20  H   UNL     1       3.149   5.506  21.369  0.00  0.00    +0.000 HD
BRANCH  19  21
ATOM     21  C   UNL     1       2.159   6.704  20.000  0.00  0.00    +0.000 A 
ATOM     22  C   UNL     1       1.560   7.887  20.452  0.00  0.00    +0.000 A 
ATOM     23  C   UNL     1       1.392   8.975  19.590  0.00  0.00    +0.000 A 
ATOM     24  C   UNL     1       1.824   8.881  18.276  0.00  0.00    +0.000 A 
ATOM     25  F   UNL     1       1.630   9.909  17.439  0.00  0.00    +0.000 F 
ATOM     26  C   UNL     1       2.456   7.732  17.816  0.00  0.00    +0.000 A 
ATOM     27  C   UNL     1       2.637   6.649  18.682  0.00  0.00    +0.000 A 
ENDBRANCH  19  21
ENDBRANCH  16  18
ENDBRANCH  15  16
ENDBRANCH   1  15
TORSDOF 5
ENDMDL
MODEL 7
REMARK VINA RESULT:      -8.0      2.351      3.145
REMARK  Name = 
REMARK  5 active torsions:
REMARK  status: ('A' for Active; 'I' for Inactive)
REMARK    1  A    between atoms: C_2  and  C_3
REMARK    2  A    between atoms: C_3  and  C_4
REMARK    3  A    between atoms: C_4  and  C_5
REMARK    4  A    between atoms: C_5  and  C_6
REMARK    5  A    between atoms: N_19  and  C_20
REMARK                            x       y       z     vdW  Elec       q    Type
REMARK                         _______ _______ _______ _____ _____    ______ ____
ROOT
ATOM      1  C   UNL     1       2.890   1.940  19.607  0.00  0.00    +0.000 C 
ENDROOT
BRANCH   1   2
ATOM      2  C   UNL     1       3.590   3.086  18.969  0.00  0.00    +0.000 A 
ATOM      3  N   UNL     1       4.768   3.599  19.468  0.00  0.00    +0.000 NA
ATOM      4  C   UNL     1       5.051   4.557  18.610  0.00  0.00    +0.000 A 
ATOM      5  C   UNL     1       6.139   5.508  18.515  0.00  0.00    +0.000 A 
ATOM      6  C   UNL     1       7.199   5.545  19.423  0.00  0.00    +0.000 A 
ATOM      7  C   UNL     1       8.204   6.499  19.267  0.00  0.00    +0.000 A 
ATOM      8  C   UNL     1       8.149   7.412  18.210  0.00  0.00    +0.000 A 
ATOM      9  C   UNL     1       7.091   7.371  17.297  0.00  0.00    +0.000 A 
ATOM     10  C   UNL     1       6.079   6.421  17.434  0.00  0.00    +0.000 A 
ATOM     11  N   UNL     1       5.021   6.407  16.480  0.00  0.00    +0.000 NA
ATOM     12  C   UNL     1       4.073   5.522  16.610  0.00  0.00    +0.000 A 
ATOM     13  N   UNL     1       4.078   4.609  17.655  0.00  0.00    +0.000 N 
ATOM     14  N   UNL     1       3.129   3.679  17.858  0.00  0.00    +0.000 NA
ENDBRANCH   1   2
BRANCH   1  15
ATOM     15  C   UNL     1       1.924   2.377  20.713  0.00  0.00    +0.000 C 
BRANCH  15  16
ATOM     16  C   UNL     1       2.344   3.733  21.273  0.00  0.00    +0.000 C 
BRANCH  16  18
ATOM     17  O   UNL     1       0.522   4.808  20.184  0.00  0.00    +0.000 OA
ATOM     18  C   UNL     1       1.667   4.919  20.611  0.00  0.00    +0.000 C 
ATOM     19  N   UNL     1       2.446   6.062  20.574  0.00  0.00    +0.000 N 
ATOM     20  H   UNL     1       3.429   5.964  20.794  0.00  0.00    +0.000 HD
BRANCH  19  21
ATOM     21  C   UNL     1       2.032   7.332  20.108  0.00  0.00    +0.000 A 
ATOM     22  C   UNL     1       1.394   8.280  20.918  0.00  0.00    +0.000 A 
ATOM     23  C   UNL     1       0.961   9.497  20.384  0.00  0.00    +0.000 A 
ATOM     24  C   UNL     1       1.168   9.768  19.040  0.00  0.00    +0.000 A 
ATOM     25  F   UNL     1       0.721  10.918  18.519  0.00  0.00    +0.000 F 
ATOM     26  C   UNL     1       1.834   8.859  18.227  0.00  0.00    +0.000 A 
ATOM     27  C   UNL     1       2.280   7.647  18.765  0.00  0.00    +0.000 A 
ENDBRANCH  19  21
ENDBRANCH  16  18
ENDBRANCH  15  16
ENDBRANCH   1  15
TORSDOF 5
ENDMDL
MODEL 8
REMARK VINA RESULT:      -7.9      5.058      7.646
REMARK  Name = 
REMARK  5 active torsions:
REMARK  status: ('A' for Active; 'I' for Inactive)
REMARK    1  A    between atoms: C_2  and  C_3
REMARK    2  A    between atoms: C_3  and  C_4
REMARK    3  A    between atoms: C_4  and  C_5
REMARK    4  A    between atoms: C_5  and  C_6
REMARK    5  A    between atoms: N_19  and  C_20
REMARK                            x       y       z     vdW  Elec       q    Type
REMARK                         _______ _______ _______ _____ _____    ______ ____
ROOT
ATOM      1  C   UNL     1       7.402   5.446  17.563  0.00  0.00    +0.000 C 
ENDROOT
BRANCH   1   2
ATOM      2  C   UNL     1       6.041   4.879  17.753  0.00  0.00    +0.000 A 
ATOM      3  N   UNL     1       5.490   4.692  19.002  0.00  0.00    +0.000 NA
ATOM      4  C   UNL     1       4.297   4.210  18.721  0.00  0.00    +0.000 A 
ATOM      5  C   UNL     1       3.183   3.786  19.544  0.00  0.00    +0.000 A 
ATOM      6  C   UNL     1       3.199   3.852  20.939  0.00  0.00    +0.000 A 
ATOM      7  C   UNL     1       2.088   3.414  21.659  0.00  0.00    +0.000 A 
ATOM      8  C   UNL     1       0.969   2.913  20.991  0.00  0.00    +0.000 A 
ATOM      9  C   UNL     1       0.950   2.852  19.594  0.00  0.00    +0.000 A 
ATOM     10  C   UNL     1       2.050   3.289  18.855  0.00  0.00    +0.000 A 
ATOM     11  N   UNL     1       1.990   3.218  17.434  0.00  0.00    +0.000 NA
ATOM     12  C   UNL     1       3.020   3.622  16.743  0.00  0.00    +0.000 A 
ATOM     13  N   UNL     1       4.158   4.109  17.367  0.00  0.00    +0.000 N 
ATOM     14  N   UNL     1       5.259   4.532  16.720  0.00  0.00    +0.000 NA
ENDBRANCH   1   2
BRANCH   1  15
ATOM     15  C   UNL     1       7.673   6.653  18.466  0.00  0.00    +0.000 C 
BRANCH  15  16
ATOM     16  C   UNL     1       7.608   7.943  17.653  0.00  0.00    +0.000 C 
BRANCH  16  18
ATOM     17  O   UNL     1       9.097   8.907  19.239  0.00  0.00    +0.000 OA
ATOM     18  C   UNL     1       8.415   9.090  18.235  0.00  0.00    +0.000 C 
ATOM     19  N   UNL     1       8.303  10.273  17.527  0.00  0.00    +0.000 N 
ATOM     20  H   UNL     1       7.569  10.332  16.832  0.00  0.00    +0.000 HD
BRANCH  19  21
ATOM     21  C   UNL     1       9.018  11.464  17.786  0.00  0.00    +0.000 A 
ATOM     22  C   UNL     1       8.403  12.709  17.969  0.00  0.00    +0.000 A 
ATOM     23  C   UNL     1       9.170  13.861  18.168  0.00  0.00    +0.000 A 
ATOM     24  C   UNL     1      10.554  13.768  18.186  0.00  0.00    +0.000 A 
ATOM     25  F   UNL     1      11.291  14.876  18.341  0.00  0.00    +0.000 F 
ATOM     26  C   UNL     1      11.185  12.538  18.046  0.00  0.00    +0.000 A 
ATOM     27  C   UNL     1      10.416  11.384  17.861  0.00  0.00    +0.000 A 
ENDBRANCH  19  21
ENDBRANCH  16  18
ENDBRANCH  15  16
ENDBRANCH   1  15
TORSDOF 5
ENDMDL
MODEL 9
REMARK VINA RESULT:      -7.9      5.046      7.729
REMARK  Name = 
REMARK  5 active torsions:
REMARK  status: ('A' for Active; 'I' for Inactive)
REMARK    1  A    between atoms: C_2  and  C_3
REMARK    2  A    between atoms: C_3  and  C_4
REMARK    3  A    between atoms: C_4  and  C_5
REMARK    4  A    between atoms: C_5  and  C_6
REMARK    5  A    between atoms: N_19  and  C_20
REMARK                            x       y       z     vdW  Elec       q    Type
REMARK                         _______ _______ _______ _____ _____    ______ ____
ROOT
ATOM      1  C   UNL     1       7.320   5.772  18.112  0.00  0.00    +0.000 C 
ENDROOT
BRANCH   1   2
ATOM      2  C   UNL     1       5.986   5.117  18.155  0.00  0.00    +0.000 A 
ATOM      3  N   UNL     1       5.329   4.864  19.340  0.00  0.00    +0.000 NA
ATOM      4  C   UNL     1       4.203   4.316  18.934  0.00  0.00    +0.000 A 
ATOM      5  C   UNL     1       3.044   3.803  19.635  0.00  0.00    +0.000 A 
ATOM      6  C   UNL     1       2.921   3.833  21.026  0.00  0.00    +0.000 A 
ATOM      7  C   UNL     1       1.776   3.309  21.625  0.00  0.00    +0.000 A 
ATOM      8  C   UNL     1       0.761   2.756  20.840  0.00  0.00    +0.000 A 
ATOM      9  C   UNL     1       0.882   2.731  19.447  0.00  0.00    +0.000 A 
ATOM     10  C   UNL     1       2.017   3.255  18.828  0.00  0.00    +0.000 A 
ATOM     11  N   UNL     1       2.100   3.217  17.407  0.00  0.00    +0.000 NA
ATOM     12  C   UNL     1       3.163   3.702  16.829  0.00  0.00    +0.000 A 
ATOM     13  N   UNL     1       4.203   4.243  17.572  0.00  0.00    +0.000 N 
ATOM     14  N   UNL     1       5.331   4.749  17.044  0.00  0.00    +0.000 NA
ENDBRANCH   1   2
BRANCH   1  15
ATOM     15  C   UNL     1       7.464   6.748  16.941  0.00  0.00    +0.000 C 
BRANCH  15  16
ATOM     16  C   UNL     1       7.172   8.172  17.404  0.00  0.00    +0.000 C 
BRANCH  16  18
ATOM     17  O   UNL     1       8.953   8.088  18.979  0.00  0.00    +0.000 OA
ATOM     18  C   UNL     1       8.274   8.796  18.241  0.00  0.00    +0.000 C 
ATOM     19  N   UNL     1       8.415  10.160  18.059  0.00  0.00    +0.000 N 
ATOM     20  H   UNL     1       7.676  10.643  17.564  0.00  0.00    +0.000 HD
BRANCH  19  21
ATOM     21  C   UNL     1       9.420  10.972  18.632  0.00  0.00    +0.000 A 
ATOM     22  C   UNL     1       9.467  11.296  19.994  0.00  0.00    +0.000 A 
ATOM     23  C   UNL     1      10.458  12.150  20.490  0.00  0.00    +0.000 A 
ATOM     24  C   UNL     1      11.403  12.678  19.624  0.00  0.00    +0.000 A 
ATOM     25  F   UNL     1      12.330  13.525  20.091  0.00  0.00    +0.000 F 
ATOM     26  C   UNL     1      11.399  12.340  18.276  0.00  0.00    +0.000 A 
ATOM     27  C   UNL     1      10.417  11.475  17.783  0.00  0.00    +0.000 A 
ENDBRANCH  19  21
ENDBRANCH  16  18
ENDBRANCH  15  16
ENDBRANCH   1  15
TORSDOF 5
ENDMDL
