MODEL 1
REMARK VINA RESULT:      -8.7      0.000      0.000
REMARK  Name = 
REMARK  4 active torsions:
REMARK  status: ('A' for Active; 'I' for Inactive)
REMARK    1  A    between atoms: C_2  and  C_3
REMARK    2  A    between atoms: C_3  and  C_4
REMARK    3  A    between atoms: C_4  and  N_5
REMARK    4  A    between atoms: C_19  and  C_20
REMARK                            x       y       z     vdW  Elec       q    Type
REMARK                         _______ _______ _______ _____ _____    ______ ____
ROOT
ATOM      1  O   UNL     1       0.456   9.060  21.536  0.00  0.00    +0.000 OA
ATOM      2  C   UNL     1       1.125   8.358  20.774  0.00  0.00    +0.000 C 
ATOM      3  N   UNL     1       1.393   7.068  21.139  0.00  0.00    +0.000 N 
ATOM      4  C   UNL     1       2.175   6.203  20.433  0.00  0.00    +0.000 A 
ATOM      5  N   UNL     1       3.031   6.480  19.486  0.00  0.00    +0.000 NA
ATOM      6  C   UNL     1       3.569   5.309  18.988  0.00  0.00    +0.000 A 
ATOM      7  C   UNL     1       3.066   4.154  19.561  0.00  0.00    +0.000 A 
ATOM      8  S   UNL     1       1.988   4.561  20.837  0.00  0.00    +0.000 S 
ATOM      9  H   UNL     1       0.933   6.727  21.970  0.00  0.00    +0.000 HD
ENDROOT
BRANCH   6  10
ATOM     10  C   UNL     1       4.598   5.342  17.960  0.00  0.00    +0.000 A 
ATOM     11  C   UNL     1       5.825   5.972  18.224  0.00  0.00    +0.000 A 
ATOM     12  C   UNL     1       6.842   5.988  17.262  0.00  0.00    +0.000 A 
ATOM     13  C   UNL     1       6.629   5.388  16.025  0.00  0.00    +0.000 A 
ATOM     14  C   UNL     1       5.412   4.758  15.753  0.00  0.00    +0.000 A 
ATOM     15  C   UNL     1       4.395   4.746  16.707  0.00  0.00    +0.000 A 
ATOM     16  O   UNL     1       5.135   4.131  14.564  0.00  0.00    +0.000 OA
ATOM     17  C   UNL     1       6.327   3.885  13.817  0.00  0.00    +0.000 C 
ATOM     18  C   UNL     1       7.220   5.114  13.802  0.00  0.00    +0.000 C 
ATOM     19  O   UNL     1       7.662   5.443  15.124  0.00  0.00    +0.000 OA
ENDBRANCH   6  10
BRANCH   2  20
ATOM     20  C   UNL     1       1.590   8.858  19.420  0.00  0.00    +0.000 C 
BRANCH  20  21
ATOM     21  C   UNL     1       1.273  10.334  19.213  0.00  0.00    +0.000 C 
BRANCH  21  22
ATOM     22  N   UNL     1      -0.143  10.528  18.940  0.00  0.00    +0.000 N 
ATOM     23  C   UNL     1      -0.934  11.424  19.606  0.00  0.00    +0.000 C 
ATOM     24  O   UNL     1      -0.655  12.152  20.540  0.00  0.00    +0.000 OA
ATOM     25  C   UNL     1      -2.242  11.387  18.955  0.00  0.00    +0.000 A 
ATOM     26  C   UNL     1      -3.398  12.095  19.225  0.00  0.00    +0.000 A 
ATOM     27  C   UNL     1      -4.501  11.858  18.396  0.00  0.00    +0.000 A 
ATOM     28  C   UNL     1      -4.424  10.930  17.338  0.00  0.00    +0.000 A 
ATOM     29  C   UNL     1      -3.242  10.225  17.086  0.00  0.00    +0.000 A 
ATOM     30  C   UNL     1      -2.167  10.478  17.915  0.00  0.00    +0.000 A 
ATOM     31  C   UNL     1      -0.808   9.943  17.897  0.00  0.00    +0.000 C 
ATOM     32  O   UNL     1      -0.395   9.152  17.068  0.00  0.00    +0.000 OA
ENDBRANCH  21  22
ENDBRANCH  20  21
ENDBRANCH   2  20
TORSDOF 4
ENDMDL
MODEL 2
REMARK VINA RESULT:      -8.7      2.068      3.094
REMARK  Name = 
REMARK  4 active torsions:
REMARK  status: ('A' for Active; 'I' for Inactive)
REMARK    1  A    between atoms: C_2  and  C_3
REMARK    2  A    between atoms: C_3  and  C_4
REMARK    3  A    between atoms: C_4  and  N_5
REMARK    4  A    between atoms: C_19  and  C_20
REMARK                            x       y       z     vdW  Elec       q    Type
REMARK                         _______ _______ _______ _____ _____    ______ ____
ROOT
ATOM      1  O   UNL     1       0.691   8.583  21.696  0.00  0.00    +0.000 OA
ATOM      2  C   UNL     1       1.340   7.933  20.873  0.00  0.00    +0.000 C 
ATOM      3  N   UNL     1       1.579   6.611  21.125  0.00  0.00    +0.000 N 
ATOM      4  C   UNL     1       2.337   5.791  20.344  0.00  0.00    +0.000 A 
ATOM      5  N   UNL     1       3.196   6.128  19.419  0.00  0.00    +0.000 NA
ATOM      6  C   UNL     1       3.704   4.991  18.820  0.00  0.00    +0.000 A 
ATOM      7  C   UNL     1       3.176   3.803  19.296  0.00  0.00    +0.000 A 
ATOM      8  S   UNL     1       2.113   4.125  20.608  0.00  0.00    +0.000 S 
ATOM      9  H   UNL     1       1.114   6.211  21.927  0.00  0.00    +0.000 HD
ENDROOT
BRANCH   6  10
ATOM     10  C   UNL     1       4.730   5.088  17.793  0.00  0.00    +0.000 A 
ATOM     11  C   UNL     1       5.960   5.695  18.093  0.00  0.00    +0.000 A 
ATOM     12  C   UNL     1       6.973   5.769  17.130  0.00  0.00    +0.000 A 
ATOM     13  C   UNL     1       6.754   5.252  15.856  0.00  0.00    +0.000 A 
ATOM     14  C   UNL     1       5.533   4.646  15.549  0.00  0.00    +0.000 A 
ATOM     15  C   UNL     1       4.520   4.576  16.504  0.00  0.00    +0.000 A 
ATOM     16  O   UNL     1       5.249   4.099  14.322  0.00  0.00    +0.000 OA
ATOM     17  C   UNL     1       6.438   3.898  13.556  0.00  0.00    +0.000 C 
ATOM     18  C   UNL     1       7.336   5.123  13.619  0.00  0.00    +0.000 C 
ATOM     19  O   UNL     1       7.784   5.363  14.957  0.00  0.00    +0.000 OA
ENDBRANCH   6  10
BRANCH   2  20
ATOM     20  C   UNL     1       1.811   8.535  19.564  0.00  0.00    +0.000 C 
BRANCH  20  21
ATOM     21  C   UNL     1       0.738   9.395  18.907  0.00  0.00    +0.000 C 
BRANCH  21  22
ATOM     22  N   UNL     1       1.043  10.809  19.052  0.00  0.00    +0.000 N 
ATOM     23  C   UNL     1       1.976  11.471  18.301  0.00  0.00    +0.000 C 
ATOM     24  O   UNL     1       2.735  11.034  17.456  0.00  0.00    +0.000 OA
ATOM     25  C   UNL     1       1.889  12.880  18.678  0.00  0.00    +0.000 A 
ATOM     26  C   UNL     1       2.598  13.976  18.222  0.00  0.00    +0.000 A 
ATOM     27  C   UNL     1       2.265  15.223  18.762  0.00  0.00    +0.000 A 
ATOM     28  C   UNL     1       1.250  15.343  19.734  0.00  0.00    +0.000 A 
ATOM     29  C   UNL     1       0.548  14.218  20.180  0.00  0.00    +0.000 A 
ATOM     30  C   UNL     1       0.892  12.999  19.629  0.00  0.00    +0.000 A 
ATOM     31  C   UNL     1       0.337  11.666  19.852  0.00  0.00    +0.000 C 
ATOM     32  O   UNL     1      -0.597  11.430  20.597  0.00  0.00    +0.000 OA
ENDBRANCH  21  22
ENDBRANCH  20  21
ENDBRANCH   2  20
TORSDOF 4
ENDMDL
MODEL 3
REMARK VINA RESULT:      -8.7      0.403      1.616
REMARK  Name = 
REMARK  4 active torsions:
REMARK  status: ('A' for Active; 'I' for Inactive)
REMARK    1  A    between atoms: C_2  and  C_3
REMARK    2  A    between atoms: C_3  and  C_4
REMARK    3  A    between atoms: C_4  and  N_5
REMARK    4  A    between atoms: C_19  and  C_20
REMARK                            x       y       z     vdW  Elec       q    Type
REMARK                         _______ _______ _______ _____ _____    ______ ____
ROOT
ATOM      1  O   UNL     1       0.547   8.595  21.738  0.00  0.00    +0.000 OA
ATOM      2  C   UNL     1       1.220   7.934  20.943  0.00  0.00    +0.000 C 
ATOM      3  N   UNL     1       1.522   6.639  21.259  0.00  0.00    +0.000 N 
ATOM      4  C   UNL     1       2.312   5.816  20.514  0.00  0.00    +0.000 A 
ATOM      5  N   UNL     1       3.149   6.144  19.566  0.00  0.00    +0.000 NA
ATOM      6  C   UNL     1       3.706   5.003  19.021  0.00  0.00    +0.000 A 
ATOM      7  C   UNL     1       3.236   3.818  19.560  0.00  0.00    +0.000 A 
ATOM      8  S   UNL     1       2.167   4.157  20.863  0.00  0.00    +0.000 S 
ATOM      9  H   UNL     1       1.080   6.259  22.084  0.00  0.00    +0.000 HD
ENDROOT
BRANCH   6  10
ATOM     10  C   UNL     1       4.720   5.095  17.982  0.00  0.00    +0.000 A 
ATOM     11  C   UNL     1       5.963   5.679  18.272  0.00  0.00    +0.000 A 
ATOM     12  C   UNL     1       6.965   5.748  17.297  0.00  0.00    +0.000 A 
ATOM     13  C   UNL     1       6.722   5.248  16.022  0.00  0.00    +0.000 A 
ATOM     14  C   UNL     1       5.488   4.664  15.724  0.00  0.00    +0.000 A 
ATOM     15  C   UNL     1       4.486   4.599  16.690  0.00  0.00    +0.000 A 
ATOM     16  O   UNL     1       5.181   4.134  14.495  0.00  0.00    +0.000 OA
ATOM     17  C   UNL     1       6.357   3.923  13.712  0.00  0.00    +0.000 C 
ATOM     18  C   UNL     1       7.274   5.133  13.776  0.00  0.00    +0.000 C 
ATOM     19  O   UNL     1       7.742   5.351  15.111  0.00  0.00    +0.000 OA
ENDBRANCH   6  10
BRANCH   2  20
ATOM     20  C   UNL     1       1.657   8.490  19.602  0.00  0.00    +0.000 C 
BRANCH  20  21
ATOM     21  C   UNL     1       1.490  10.003  19.526  0.00  0.00    +0.000 C 
BRANCH  21  22
ATOM     22  N   UNL     1       0.184  10.357  18.992  0.00  0.00    +0.000 N 
ATOM     23  C   UNL     1      -0.349   9.817  17.853  0.00  0.00    +0.000 C 
ATOM     24  O   UNL     1       0.148   9.030  17.069  0.00  0.00    +0.000 OA
ATOM     25  C   UNL     1      -1.705  10.348  17.736  0.00  0.00    +0.000 A 
ATOM     26  C   UNL     1      -2.677  10.123  16.780  0.00  0.00    +0.000 A 
ATOM     27  C   UNL     1      -3.908  10.763  16.956  0.00  0.00    +0.000 A 
ATOM     28  C   UNL     1      -4.134  11.604  18.065  0.00  0.00    +0.000 A 
ATOM     29  C   UNL     1      -3.134  11.816  19.020  0.00  0.00    +0.000 A 
ATOM     30  C   UNL     1      -1.928  11.171  18.825  0.00  0.00    +0.000 A 
ATOM     31  C   UNL     1      -0.716  11.157  19.642  0.00  0.00    +0.000 C 
ATOM     32  O   UNL     1      -0.600  11.743  20.703  0.00  0.00    +0.000 OA
ENDBRANCH  21  22
ENDBRANCH  20  21
ENDBRANCH   2  20
TORSDOF 4
ENDMDL
MODEL 4
REMARK VINA RESULT:      -8.6      2.651      8.460
REMARK  Name = 
REMARK  4 active torsions:
REMARK  status: ('A' for Active; 'I' for Inactive)
REMARK    1  A    between atoms: C_2  and  C_3
REMARK    2  A    between atoms: C_3  and  C_4
REMARK    3  A    between atoms: C_4  and  N_5
REMARK    4  A    between atoms: C_19  and  C_20
REMARK                            x       y       z     vdW  Elec       q    Type
REMARK                         _______ _______ _______ _____ _____    ______ ____
ROOT
ATOM      1  O   UNL     1       2.945   1.421  17.358  0.00  0.00    +0.000 OA
ATOM      2  C   UNL     1       2.877   2.577  17.785  0.00  0.00    +0.000 C 
ATOM      3  N   UNL     1       2.543   2.773  19.095  0.00  0.00    +0.000 N 
ATOM      4  C   UNL     1       2.363   3.989  19.682  0.00  0.00    +0.000 A 
ATOM      5  N   UNL     1       2.176   5.144  19.102  0.00  0.00    +0.000 NA
ATOM      6  C   UNL     1       2.099   6.139  20.058  0.00  0.00    +0.000 A 
ATOM      7  C   UNL     1       2.272   5.702  21.360  0.00  0.00    +0.000 A 
ATOM      8  S   UNL     1       2.406   3.988  21.384  0.00  0.00    +0.000 S 
ATOM      9  H   UNL     1       2.476   1.948  19.674  0.00  0.00    +0.000 HD
ENDROOT
BRANCH   6  10
ATOM     10  C   UNL     1       1.833   7.518  19.676  0.00  0.00    +0.000 A 
ATOM     11  C   UNL     1       2.151   7.954  18.380  0.00  0.00    +0.000 A 
ATOM     12  C   UNL     1       1.873   9.267  17.981  0.00  0.00    +0.000 A 
ATOM     13  C   UNL     1       1.292  10.153  18.882  0.00  0.00    +0.000 A 
ATOM     14  C   UNL     1       0.971   9.727  20.173  0.00  0.00    +0.000 A 
ATOM     15  C   UNL     1       1.252   8.423  20.576  0.00  0.00    +0.000 A 
ATOM     16  O   UNL     1       0.381  10.538  21.111  0.00  0.00    +0.000 OA
ATOM     17  C   UNL     1      -0.184  11.703  20.508  0.00  0.00    +0.000 C 
ATOM     18  C   UNL     1       0.786  12.323  19.516  0.00  0.00    +0.000 C 
ATOM     19  O   UNL     1       1.052  11.426  18.431  0.00  0.00    +0.000 OA
ENDBRANCH   6  10
BRANCH   2  20
ATOM     20  C   UNL     1       3.225   3.774  16.922  0.00  0.00    +0.000 C 
BRANCH  20  21
ATOM     21  C   UNL     1       4.644   3.692  16.371  0.00  0.00    +0.000 C 
BRANCH  21  22
ATOM     22  N   UNL     1       5.486   4.728  16.948  0.00  0.00    +0.000 N 
ATOM     23  C   UNL     1       6.129   4.608  18.151  0.00  0.00    +0.000 C 
ATOM     24  O   UNL     1       6.085   3.702  18.961  0.00  0.00    +0.000 OA
ATOM     25  C   UNL     1       6.951   5.807  18.303  0.00  0.00    +0.000 A 
ATOM     26  C   UNL     1       7.800   6.188  19.325  0.00  0.00    +0.000 A 
ATOM     27  C   UNL     1       8.482   7.400  19.171  0.00  0.00    +0.000 A 
ATOM     28  C   UNL     1       8.300   8.192  18.019  0.00  0.00    +0.000 A 
ATOM     29  C   UNL     1       7.434   7.784  16.998  0.00  0.00    +0.000 A 
ATOM     30  C   UNL     1       6.774   6.583  17.172  0.00  0.00    +0.000 A 
ATOM     31  C   UNL     1       5.846   5.874  16.294  0.00  0.00    +0.000 C 
ATOM     32  O   UNL     1       5.517   6.265  15.188  0.00  0.00    +0.000 OA
ENDBRANCH  21  22
ENDBRANCH  20  21
ENDBRANCH   2  20
TORSDOF 4
ENDMDL
MODEL 5
REMARK VINA RESULT:      -8.5      2.047      2.813
REMARK  Name = 
REMARK  4 active torsions:
REMARK  status: ('A' for Active; 'I' for Inactive)
REMARK    1  A    between atoms: C_2  and  C_3
REMARK    2  A    between atoms: C_3  and  C_4
REMARK    3  A    between atoms: C_4  and  N_5
REMARK    4  A    between atoms: C_19  and  C_20
REMARK                            x       y       z     vdW  Elec       q    Type
REMARK                         _______ _______ _______ _____ _____    ______ ____
ROOT
ATOM      1  O   UNL     1       0.728   8.459  21.679  0.00  0.00    +0.000 OA
ATOM      2  C   UNL     1       1.366   7.840  20.823  0.00  0.00    +0.000 C 
ATOM      3  N   UNL     1       1.550   6.496  20.987  0.00  0.00    +0.000 N 
ATOM      4  C   UNL     1       2.289   5.702  20.162  0.00  0.00    +0.000 A 
ATOM      5  N   UNL     1       3.175   6.066  19.275  0.00  0.00    +0.000 NA
ATOM      6  C   UNL     1       3.650   4.953  18.607  0.00  0.00    +0.000 A 
ATOM      7  C   UNL     1       3.068   3.758  18.993  0.00  0.00    +0.000 A 
ATOM      8  S   UNL     1       1.996   4.032  20.309  0.00  0.00    +0.000 S 
ATOM      9  H   UNL     1       1.056   6.061  21.753  0.00  0.00    +0.000 HD
ENDROOT
BRANCH   6  10
ATOM     10  C   UNL     1       4.695   5.079  17.603  0.00  0.00    +0.000 A 
ATOM     11  C   UNL     1       5.889   5.747  17.922  0.00  0.00    +0.000 A 
ATOM     12  C   UNL     1       6.921   5.851  16.983  0.00  0.00    +0.000 A 
ATOM     13  C   UNL     1       6.758   5.301  15.715  0.00  0.00    +0.000 A 
ATOM     14  C   UNL     1       5.575   4.634  15.389  0.00  0.00    +0.000 A 
ATOM     15  C   UNL     1       4.542   4.534  16.320  0.00  0.00    +0.000 A 
ATOM     16  O   UNL     1       5.347   4.053  14.166  0.00  0.00    +0.000 OA
ATOM     17  C   UNL     1       6.563   3.893  13.434  0.00  0.00    +0.000 C 
ATOM     18  C   UNL     1       7.402   5.159  13.495  0.00  0.00    +0.000 C 
ATOM     19  O   UNL     1       7.804   5.443  14.839  0.00  0.00    +0.000 OA
ENDBRANCH   6  10
BRANCH   2  20
ATOM     20  C   UNL     1       1.882   8.511  19.564  0.00  0.00    +0.000 C 
BRANCH  20  21
ATOM     21  C   UNL     1       0.777   9.234  18.804  0.00  0.00    +0.000 C 
BRANCH  21  22
ATOM     22  N   UNL     1       0.959  10.676  18.870  0.00  0.00    +0.000 N 
ATOM     23  C   UNL     1       0.239  11.500  19.692  0.00  0.00    +0.000 C 
ATOM     24  O   UNL     1      -0.680  11.229  20.441  0.00  0.00    +0.000 OA
ATOM     25  C   UNL     1       0.805  12.839  19.537  0.00  0.00    +0.000 A 
ATOM     26  C   UNL     1       0.459  14.034  20.138  0.00  0.00    +0.000 A 
ATOM     27  C   UNL     1       1.217  15.162  19.803  0.00  0.00    +0.000 A 
ATOM     28  C   UNL     1       2.283  15.070  18.885  0.00  0.00    +0.000 A 
ATOM     29  C   UNL     1       2.613  13.848  18.289  0.00  0.00    +0.000 A 
ATOM     30  C   UNL     1       1.853  12.749  18.638  0.00  0.00    +0.000 A 
ATOM     31  C   UNL     1       1.961  11.351  18.227  0.00  0.00    +0.000 C 
ATOM     32  O   UNL     1       2.819  10.923  17.477  0.00  0.00    +0.000 OA
ENDBRANCH  21  22
ENDBRANCH  20  21
ENDBRANCH   2  20
TORSDOF 4
ENDMDL
MODEL 6
REMARK VINA RESULT:      -8.5      2.665      8.493
REMARK  Name = 
REMARK  4 active torsions:
REMARK  status: ('A' for Active; 'I' for Inactive)
REMARK    1  A    between atoms: C_2  and  C_3
REMARK    2  A    between atoms: C_3  and  C_4
REMARK    3  A    between atoms: C_4  and  N_5
REMARK    4  A    between atoms: C_19  and  C_20
REMARK                            x       y       z     vdW  Elec       q    Type
REMARK                         _______ _______ _______ _____ _____    ______ ____
ROOT
ATOM      1  O   UNL     1       3.170   1.807  17.192  0.00  0.00    +0.000 OA
ATOM      2  C   UNL     1       3.049   2.944  17.655  0.00  0.00    +0.000 C 
ATOM      3  N   UNL     1       2.584   3.084  18.933  0.00  0.00    +0.000 N 
ATOM      4  C   UNL     1       2.334   4.275  19.546  0.00  0.00    +0.000 A 
ATOM      5  N   UNL     1       2.194   5.451  18.996  0.00  0.00    +0.000 NA
ATOM      6  C   UNL     1       2.013   6.406  19.979  0.00  0.00    +0.000 A 
ATOM      7  C   UNL     1       2.059   5.918  21.273  0.00  0.00    +0.000 A 
ATOM      8  S   UNL     1       2.206   4.205  21.242  0.00  0.00    +0.000 S 
ATOM      9  H   UNL     1       2.467   2.236  19.469  0.00  0.00    +0.000 HD
ENDROOT
BRANCH   6  10
ATOM     10  C   UNL     1       1.773   7.798  19.627  0.00  0.00    +0.000 A 
ATOM     11  C   UNL     1       2.148   8.269  18.359  0.00  0.00    +0.000 A 
ATOM     12  C   UNL     1       1.896   9.596  17.988  0.00  0.00    +0.000 A 
ATOM     13  C   UNL     1       1.284  10.460  18.890  0.00  0.00    +0.000 A 
ATOM     14  C   UNL     1       0.907   9.999  20.154  0.00  0.00    +0.000 A 
ATOM     15  C   UNL     1       1.162   8.681  20.529  0.00  0.00    +0.000 A 
ATOM     16  O   UNL     1       0.285  10.787  21.090  0.00  0.00    +0.000 OA
ATOM     17  C   UNL     1      -0.246  11.974  20.499  0.00  0.00    +0.000 C 
ATOM     18  C   UNL     1       0.768  12.614  19.566  0.00  0.00    +0.000 C 
ATOM     19  O   UNL     1       1.072  11.747  18.467  0.00  0.00    +0.000 OA
ENDBRANCH   6  10
BRANCH   2  20
ATOM     20  C   UNL     1       3.470   4.177  16.880  0.00  0.00    +0.000 C 
BRANCH  20  21
ATOM     21  C   UNL     1       4.849   4.017  16.252  0.00  0.00    +0.000 C 
BRANCH  21  22
ATOM     22  N   UNL     1       5.769   5.025  16.754  0.00  0.00    +0.000 N 
ATOM     23  C   UNL     1       5.836   6.306  16.277  0.00  0.00    +0.000 C 
ATOM     24  O   UNL     1       5.226   6.818  15.357  0.00  0.00    +0.000 OA
ATOM     25  C   UNL     1       6.796   7.015  17.121  0.00  0.00    +0.000 A 
ATOM     26  C   UNL     1       7.228   8.327  17.080  0.00  0.00    +0.000 A 
ATOM     27  C   UNL     1       8.150   8.727  18.055  0.00  0.00    +0.000 A 
ATOM     28  C   UNL     1       8.612   7.819  19.029  0.00  0.00    +0.000 A 
ATOM     29  C   UNL     1       8.159   6.495  19.048  0.00  0.00    +0.000 A 
ATOM     30  C   UNL     1       7.248   6.125  18.078  0.00  0.00    +0.000 A 
ATOM     31  C   UNL     1       6.570   4.851  17.851  0.00  0.00    +0.000 C 
ATOM     32  O   UNL     1       6.708   3.867  18.555  0.00  0.00    +0.000 OA
ENDBRANCH  21  22
ENDBRANCH  20  21
ENDBRANCH   2  20
TORSDOF 4
ENDMDL
MODEL 7
REMARK VINA RESULT:      -8.4      0.828      1.051
REMARK  Name = 
REMARK  4 active torsions:
REMARK  status: ('A' for Active; 'I' for Inactive)
REMARK    1  A    between atoms: C_2  and  C_3
REMARK    2  A    between atoms: C_3  and  C_4
REMARK    3  A    between atoms: C_4  and  N_5
REMARK    4  A    between atoms: C_19  and  C_20
REMARK                            x       y       z     vdW  Elec       q    Type
REMARK                         _______ _______ _______ _____ _____    ______ ____
ROOT
ATOM      1  O   UNL     1       0.665   8.325  21.546  0.00  0.00    +0.000 OA
ATOM      2  C   UNL     1       1.345   7.689  20.737  0.00  0.00    +0.000 C 
ATOM      3  N   UNL     1       1.711   6.410  21.052  0.00  0.00    +0.000 N 
ATOM      4  C   UNL     1       2.516   5.618  20.290  0.00  0.00    +0.000 A 
ATOM      5  N   UNL     1       3.313   5.976  19.319  0.00  0.00    +0.000 NA
ATOM      6  C   UNL     1       3.904   4.857  18.765  0.00  0.00    +0.000 A 
ATOM      7  C   UNL     1       3.501   3.656  19.323  0.00  0.00    +0.000 A 
ATOM      8  S   UNL     1       2.453   3.956  20.652  0.00  0.00    +0.000 S 
ATOM      9  H   UNL     1       1.308   6.017  21.891  0.00  0.00    +0.000 HD
ENDROOT
BRANCH   6  10
ATOM     10  C   UNL     1       4.886   4.985  17.699  0.00  0.00    +0.000 A 
ATOM     11  C   UNL     1       6.116   5.612  17.957  0.00  0.00    +0.000 A 
ATOM     12  C   UNL     1       7.088   5.717  16.955  0.00  0.00    +0.000 A 
ATOM     13  C   UNL     1       6.827   5.212  15.686  0.00  0.00    +0.000 A 
ATOM     14  C   UNL     1       5.606   4.586  15.420  0.00  0.00    +0.000 A 
ATOM     15  C   UNL     1       4.634   4.485  16.413  0.00  0.00    +0.000 A 
ATOM     16  O   UNL     1       5.283   4.049  14.198  0.00  0.00    +0.000 OA
ATOM     17  C   UNL     1       6.444   3.880  13.382  0.00  0.00    +0.000 C 
ATOM     18  C   UNL     1       7.320   5.121  13.425  0.00  0.00    +0.000 C 
ATOM     19  O   UNL     1       7.817   5.353  14.748  0.00  0.00    +0.000 OA
ENDBRANCH   6  10
BRANCH   2  20
ATOM     20  C   UNL     1       1.721   8.255  19.382  0.00  0.00    +0.000 C 
BRANCH  20  21
ATOM     21  C   UNL     1       1.785   9.777  19.393  0.00  0.00    +0.000 C 
BRANCH  21  22
ATOM     22  N   UNL     1       0.454  10.354  19.488  0.00  0.00    +0.000 N 
ATOM     23  C   UNL     1       0.060  11.212  20.479  0.00  0.00    +0.000 C 
ATOM     24  O   UNL     1       0.678  11.597  21.454  0.00  0.00    +0.000 OA
ATOM     25  C   UNL     1      -1.296  11.641  20.143  0.00  0.00    +0.000 A 
ATOM     26  C   UNL     1      -2.152  12.505  20.800  0.00  0.00    +0.000 A 
ATOM     27  C   UNL     1      -3.397  12.744  20.209  0.00  0.00    +0.000 A 
ATOM     28  C   UNL     1      -3.754  12.119  18.997  0.00  0.00    +0.000 A 
ATOM     29  C   UNL     1      -2.870  11.248  18.351  0.00  0.00    +0.000 A 
ATOM     30  C   UNL     1      -1.645  11.030  18.953  0.00  0.00    +0.000 A 
ATOM     31  C   UNL     1      -0.508  10.219  18.524  0.00  0.00    +0.000 C 
ATOM     32  O   UNL     1      -0.472   9.589  17.482  0.00  0.00    +0.000 OA
ENDBRANCH  21  22
ENDBRANCH  20  21
ENDBRANCH   2  20
TORSDOF 4
ENDMDL
MODEL 8
REMARK VINA RESULT:      -8.2      2.003      2.742
REMARK  Name = 
REMARK  4 active torsions:
REMARK  status: ('A' for Active; 'I' for Inactive)
REMARK    1  A    between atoms: C_2  and  C_3
REMARK    2  A    between atoms: C_3  and  C_4
REMARK    3  A    between atoms: C_4  and  N_5
REMARK    4  A    between atoms: C_19  and  C_20
REMARK                            x       y       z     vdW  Elec       q    Type
REMARK                         _______ _______ _______ _____ _____    ______ ____
ROOT
ATOM      1  O   UNL     1       1.086   5.673  21.210  0.00  0.00    +0.000 OA
ATOM      2  C   UNL     1       1.752   5.371  20.216  0.00  0.00    +0.000 C 
ATOM      3  N   UNL     1       2.147   4.072  20.063  0.00  0.00    +0.000 N 
ATOM      4  C   UNL     1       2.941   3.610  19.056  0.00  0.00    +0.000 A 
ATOM      5  N   UNL     1       3.702   4.301  18.250  0.00  0.00    +0.000 NA
ATOM      6  C   UNL     1       4.295   3.455  17.331  0.00  0.00    +0.000 A 
ATOM      7  C   UNL     1       3.927   2.126  17.449  0.00  0.00    +0.000 A 
ATOM      8  S   UNL     1       2.914   1.924  18.824  0.00  0.00    +0.000 S 
ATOM      9  H   UNL     1       1.776   3.404  20.723  0.00  0.00    +0.000 HD
ENDROOT
BRANCH   6  10
ATOM     10  C   UNL     1       5.241   3.968  16.352  0.00  0.00    +0.000 A 
ATOM     11  C   UNL     1       6.258   4.845  16.761  0.00  0.00    +0.000 A 
ATOM     12  C   UNL     1       7.200   5.324  15.843  0.00  0.00    +0.000 A 
ATOM     13  C   UNL     1       7.118   4.941  14.508  0.00  0.00    +0.000 A 
ATOM     14  C   UNL     1       6.110   4.068  14.092  0.00  0.00    +0.000 A 
ATOM     15  C   UNL     1       5.167   3.594  15.002  0.00  0.00    +0.000 A 
ATOM     16  O   UNL     1       5.975   3.632  12.797  0.00  0.00    +0.000 OA
ATOM     17  C   UNL     1       7.164   3.871  12.042  0.00  0.00    +0.000 C 
ATOM     18  C   UNL     1       7.687   5.277  12.288  0.00  0.00    +0.000 C 
ATOM     19  O   UNL     1       8.066   5.450  13.658  0.00  0.00    +0.000 OA
ENDBRANCH   6  10
BRANCH   2  20
ATOM     20  C   UNL     1       2.078   6.378  19.131  0.00  0.00    +0.000 C 
BRANCH  20  21
ATOM     21  C   UNL     1       2.590   7.694  19.704  0.00  0.00    +0.000 C 
BRANCH  21  22
ATOM     22  N   UNL     1       1.537   8.698  19.722  0.00  0.00    +0.000 N 
ATOM     23  C   UNL     1       0.922   9.140  20.861  0.00  0.00    +0.000 C 
ATOM     24  O   UNL     1       1.072   8.770  22.011  0.00  0.00    +0.000 OA
ATOM     25  C   UNL     1       0.020  10.216  20.456  0.00  0.00    +0.000 A 
ATOM     26  C   UNL     1      -0.829  11.006  21.208  0.00  0.00    +0.000 A 
ATOM     27  C   UNL     1      -1.558  11.989  20.528  0.00  0.00    +0.000 A 
ATOM     28  C   UNL     1      -1.426  12.153  19.134  0.00  0.00    +0.000 A 
ATOM     29  C   UNL     1      -0.560  11.340  18.395  0.00  0.00    +0.000 A 
ATOM     30  C   UNL     1       0.151  10.379  19.089  0.00  0.00    +0.000 A 
ATOM     31  C   UNL     1       1.144   9.413  18.624  0.00  0.00    +0.000 C 
ATOM     32  O   UNL     1       1.529   9.330  17.472  0.00  0.00    +0.000 OA
ENDBRANCH  21  22
ENDBRANCH  20  21
ENDBRANCH   2  20
TORSDOF 4
ENDMDL
MODEL 9
REMARK VINA RESULT:      -8.1      2.050      3.148
REMARK  Name = 
REMARK  4 active torsions:
REMARK  status: ('A' for Active; 'I' for Inactive)
REMARK    1  A    between atoms: C_2  and  C_3
REMARK    2  A    between atoms: C_3  and  C_4
REMARK    3  A    between atoms: C_4  and  N_5
REMARK    4  A    between atoms: C_19  and  C_20
REMARK                            x       y       z     vdW  Elec       q    Type
REMARK                         _______ _______ _______ _____ _____    ______ ____
ROOT
ATOM      1  O   UNL     1       1.001   5.469  21.102  0.00  0.00    +0.000 OA
ATOM      2  C   UNL     1       1.695   5.189  20.121  0.00  0.00    +0.000 C 
ATOM      3  N   UNL     1       2.165   3.912  19.995  0.00  0.00    +0.000 N 
ATOM      4  C   UNL     1       2.997   3.479  19.006  0.00  0.00    +0.000 A 
ATOM      5  N   UNL     1       3.728   4.198  18.197  0.00  0.00    +0.000 NA
ATOM      6  C   UNL     1       4.378   3.372  17.300  0.00  0.00    +0.000 A 
ATOM      7  C   UNL     1       4.084   2.026  17.437  0.00  0.00    +0.000 A 
ATOM      8  S   UNL     1       3.068   1.791  18.804  0.00  0.00    +0.000 S 
ATOM      9  H   UNL     1       1.824   3.235  20.663  0.00  0.00    +0.000 HD
ENDROOT
BRANCH   6  10
ATOM     10  C   UNL     1       5.307   3.921  16.323  0.00  0.00    +0.000 A 
ATOM     11  C   UNL     1       6.307   4.813  16.740  0.00  0.00    +0.000 A 
ATOM     12  C   UNL     1       7.232   5.328  15.823  0.00  0.00    +0.000 A 
ATOM     13  C   UNL     1       7.149   4.964  14.483  0.00  0.00    +0.000 A 
ATOM     14  C   UNL     1       6.157   4.076  14.059  0.00  0.00    +0.000 A 
ATOM     15  C   UNL     1       5.231   3.567  14.968  0.00  0.00    +0.000 A 
ATOM     16  O   UNL     1       6.023   3.659  12.758  0.00  0.00    +0.000 OA
ATOM     17  C   UNL     1       7.201   3.936  12.000  0.00  0.00    +0.000 C 
ATOM     18  C   UNL     1       7.695   5.348  12.265  0.00  0.00    +0.000 C 
ATOM     19  O   UNL     1       8.080   5.508  13.635  0.00  0.00    +0.000 OA
ENDBRANCH   6  10
BRANCH   2  20
ATOM     20  C   UNL     1       1.977   6.194  19.022  0.00  0.00    +0.000 C 
BRANCH  20  21
ATOM     21  C   UNL     1       2.683   7.438  19.549  0.00  0.00    +0.000 C 
BRANCH  21  22
ATOM     22  N   UNL     1       1.761   8.558  19.645  0.00  0.00    +0.000 N 
ATOM     23  C   UNL     1       1.293   9.258  18.566  0.00  0.00    +0.000 C 
ATOM     24  O   UNL     1       1.576   9.138  17.389  0.00  0.00    +0.000 OA
ATOM     25  C   UNL     1       0.314  10.213  19.082  0.00  0.00    +0.000 A 
ATOM     26  C   UNL     1      -0.457  11.151  18.424  0.00  0.00    +0.000 A 
ATOM     27  C   UNL     1      -1.338  11.914  19.199  0.00  0.00    +0.000 A 
ATOM     28  C   UNL     1      -1.421  11.726  20.594  0.00  0.00    +0.000 A 
ATOM     29  C   UNL     1      -0.629  10.769  21.238  0.00  0.00    +0.000 A 
ATOM     30  C   UNL     1       0.230  10.027  20.450  0.00  0.00    +0.000 A 
ATOM     31  C   UNL     1       1.149   8.947  20.805  0.00  0.00    +0.000 C 
ATOM     32  O   UNL     1       1.277   8.502  21.931  0.00  0.00    +0.000 OA
ENDBRANCH  21  22
ENDBRANCH  20  21
ENDBRANCH   2  20
TORSDOF 4
ENDMDL
