MODEL 1
REMARK VINA RESULT:      -7.3      0.000      0.000
REMARK  Name = 
REMARK  4 active torsions:
REMARK  status: ('A' for Active; 'I' for Inactive)
REMARK    1  A    between atoms: C_1  and  N_2
REMARK    2  A    between atoms: C_4  and  C_5
REMARK    3  A    between atoms: N_7  and  C_8
REMARK    4  A    between atoms: N_7  and  C_11
REMARK                            x       y       z     vdW  Elec       q    Type
REMARK                         _______ _______ _______ _____ _____    ______ ____
ROOT
ATOM      1  C   UNL     1      -0.340  13.492  19.381  0.00  0.00    +0.000 C 
ATOM      2  O   UNL     1      -0.088  14.277  18.467  0.00  0.00    +0.000 OA
ATOM      3  N   UNL     1       0.649  13.058  20.316  0.00  0.00    +0.000 N 
ENDROOT
BRANCH   1   7
ATOM      4  C   UNL     1      -4.653  13.827  21.505  0.00  0.00    +0.000 C 
ATOM      5  N   UNL     1      -3.878  13.187  20.464  0.00  0.00    +0.000 N 
ATOM      6  N   UNL     1      -2.558  13.563  20.358  0.00  0.00    +0.000 NA
ATOM      7  C   UNL     1      -1.807  13.013  19.447  0.00  0.00    +0.000 A 
ATOM      8  C   UNL     1      -2.307  11.915  18.566  0.00  0.00    +0.000 A 
ATOM      9  C   UNL     1      -1.514  11.175  17.677  0.00  0.00    +0.000 A 
ATOM     10  C   UNL     1      -2.055  10.093  16.957  0.00  0.00    +0.000 A 
ATOM     11  C   UNL     1      -3.400   9.752  17.095  0.00  0.00    +0.000 A 
ATOM     12  C   UNL     1      -4.199  10.484  17.960  0.00  0.00    +0.000 A 
ATOM     13  C   UNL     1      -3.646  11.552  18.695  0.00  0.00    +0.000 A 
ATOM     14  C   UNL     1      -4.502  12.242  19.676  0.00  0.00    +0.000 A 
ATOM     15  O   UNL     1      -5.688  11.935  19.770  0.00  0.00    +0.000 OA
ENDBRANCH   1   7
BRANCH   3  16
ATOM     16  C   UNL     1       0.460  11.915  21.271  0.00  0.00    +0.000 C 
ATOM     17  C   UNL     1      -0.782  11.980  22.204  0.00  0.00    +0.000 C 
ATOM     18  C   UNL     1      -1.028  10.732  23.075  0.00  0.00    +0.000 C 
ATOM     19  C   UNL     1      -0.143   9.507  22.847  0.00  0.00    +0.000 C 
ATOM     20  C   UNL     1       0.511   9.417  21.497  0.00  0.00    +0.000 A 
ATOM     21  C   UNL     1       1.100   8.205  21.110  0.00  0.00    +0.000 A 
ATOM     22  C   UNL     1       1.696   8.077  19.860  0.00  0.00    +0.000 A 
ATOM     23  C   UNL     1       1.618   9.126  18.951  0.00  0.00    +0.000 A 
ATOM     24  C   UNL     1       1.051  10.340  19.334  0.00  0.00    +0.000 A 
ATOM     25  C   UNL     1       0.605  10.536  20.652  0.00  0.00    +0.000 A 
ENDBRANCH   3  16
BRANCH   3  26
ATOM     26  C   UNL     1       2.014  13.537  20.089  0.00  0.00    +0.000 C 
ATOM     27  C   UNL     1       3.041  13.639  21.191  0.00  0.00    +0.000 C 
ATOM     28  C   UNL     1       2.487  14.887  20.587  0.00  0.00    +0.000 C 
ENDBRANCH   3  26
TORSDOF 3
ENDMDL
MODEL 2
REMARK VINA RESULT:      -7.0      2.483      4.899
REMARK  Name = 
REMARK  4 active torsions:
REMARK  status: ('A' for Active; 'I' for Inactive)
REMARK    1  A    between atoms: C_1  and  N_2
REMARK    2  A    between atoms: C_4  and  C_5
REMARK    3  A    between atoms: N_7  and  C_8
REMARK    4  A    between atoms: N_7  and  C_11
REMARK                            x       y       z     vdW  Elec       q    Type
REMARK                         _______ _______ _______ _____ _____    ______ ____
ROOT
ATOM      1  C   UNL     1      -2.485  12.940  21.322  0.00  0.00    +0.000 C 
ATOM      2  O   UNL     1      -3.075  12.350  22.228  0.00  0.00    +0.000 OA
ATOM      3  N   UNL     1      -1.921  14.241  21.492  0.00  0.00    +0.000 N 
ENDROOT
BRANCH   1   7
ATOM      4  C   UNL     1      -4.634  11.623  17.215  0.00  0.00    +0.000 C 
ATOM      5  N   UNL     1      -3.429  11.550  18.012  0.00  0.00    +0.000 N 
ATOM      6  N   UNL     1      -3.447  12.209  19.221  0.00  0.00    +0.000 NA
ATOM      7  C   UNL     1      -2.395  12.168  19.988  0.00  0.00    +0.000 A 
ATOM      8  C   UNL     1      -1.193  11.352  19.640  0.00  0.00    +0.000 A 
ATOM      9  C   UNL     1      -0.096  11.139  20.486  0.00  0.00    +0.000 A 
ATOM     10  C   UNL     1       0.949  10.274  20.109  0.00  0.00    +0.000 A 
ATOM     11  C   UNL     1       0.925   9.631  18.873  0.00  0.00    +0.000 A 
ATOM     12  C   UNL     1      -0.148   9.843  18.019  0.00  0.00    +0.000 A 
ATOM     13  C   UNL     1      -1.201  10.693  18.412  0.00  0.00    +0.000 A 
ATOM     14  C   UNL     1      -2.368  10.816  17.521  0.00  0.00    +0.000 A 
ATOM     15  O   UNL     1      -2.362  10.252  16.430  0.00  0.00    +0.000 OA
ENDBRANCH   1   7
BRANCH   3  16
ATOM     16  C   UNL     1      -1.434  15.101  20.363  0.00  0.00    +0.000 C 
ATOM     17  C   UNL     1      -2.058  16.519  20.241  0.00  0.00    +0.000 C 
ATOM     18  C   UNL     1      -1.443  17.431  19.161  0.00  0.00    +0.000 C 
ATOM     19  C   UNL     1      -0.203  16.932  18.418  0.00  0.00    +0.000 C 
ATOM     20  C   UNL     1       0.606  15.885  19.130  0.00  0.00    +0.000 A 
ATOM     21  C   UNL     1       1.891  15.585  18.655  0.00  0.00    +0.000 A 
ATOM     22  C   UNL     1       2.678  14.636  19.300  0.00  0.00    +0.000 A 
ATOM     23  C   UNL     1       2.227  14.055  20.480  0.00  0.00    +0.000 A 
ATOM     24  C   UNL     1       0.944  14.334  20.948  0.00  0.00    +0.000 A 
ATOM     25  C   UNL     1       0.077  15.156  20.208  0.00  0.00    +0.000 A 
ENDBRANCH   3  16
BRANCH   3  26
ATOM     26  C   UNL     1      -2.145  14.883  22.789  0.00  0.00    +0.000 C 
ATOM     27  C   UNL     1      -1.236  15.955  23.342  0.00  0.00    +0.000 C 
ATOM     28  C   UNL     1      -1.259  14.609  23.987  0.00  0.00    +0.000 C 
ENDBRANCH   3  26
TORSDOF 3
ENDMDL
MODEL 3
REMARK VINA RESULT:      -7.0      6.405      9.647
REMARK  Name = 
REMARK  4 active torsions:
REMARK  status: ('A' for Active; 'I' for Inactive)
REMARK    1  A    between atoms: C_1  and  N_2
REMARK    2  A    between atoms: C_4  and  C_5
REMARK    3  A    between atoms: N_7  and  C_8
REMARK    4  A    between atoms: N_7  and  C_11
REMARK                            x       y       z     vdW  Elec       q    Type
REMARK                         _______ _______ _______ _____ _____    ______ ____
ROOT
ATOM      1  C   UNL     1       3.952   7.163  17.510  0.00  0.00    +0.000 C 
ATOM      2  O   UNL     1       4.026   8.187  16.830  0.00  0.00    +0.000 OA
ATOM      3  N   UNL     1       2.782   6.817  18.251  0.00  0.00    +0.000 N 
ENDROOT
BRANCH   1   7
ATOM      4  C   UNL     1       7.956   5.736  19.780  0.00  0.00    +0.000 C 
ATOM      5  N   UNL     1       7.131   5.588  18.601  0.00  0.00    +0.000 N 
ATOM      6  N   UNL     1       5.992   6.359  18.543  0.00  0.00    +0.000 NA
ATOM      7  C   UNL     1       5.217   6.277  17.500  0.00  0.00    +0.000 A 
ATOM      8  C   UNL     1       5.568   5.437  16.315  0.00  0.00    +0.000 A 
ATOM      9  C   UNL     1       4.864   5.423  15.103  0.00  0.00    +0.000 A 
ATOM     10  C   UNL     1       5.327   4.670  14.008  0.00  0.00    +0.000 A 
ATOM     11  C   UNL     1       6.485   3.902  14.115  0.00  0.00    +0.000 A 
ATOM     12  C   UNL     1       7.185   3.895  15.313  0.00  0.00    +0.000 A 
ATOM     13  C   UNL     1       6.728   4.668  16.399  0.00  0.00    +0.000 A 
ATOM     14  C   UNL     1       7.551   4.712  17.620  0.00  0.00    +0.000 A 
ATOM     15  O   UNL     1       8.559   4.015  17.699  0.00  0.00    +0.000 OA
ENDBRANCH   1   7
BRANCH   3  16
ATOM     16  C   UNL     1       2.734   5.735  19.291  0.00  0.00    +0.000 C 
ATOM     17  C   UNL     1       1.860   6.007  20.547  0.00  0.00    +0.000 C 
ATOM     18  C   UNL     1       1.717   4.830  21.531  0.00  0.00    +0.000 C 
ATOM     19  C   UNL     1       2.309   3.479  21.128  0.00  0.00    +0.000 C 
ATOM     20  C   UNL     1       2.499   3.263  19.654  0.00  0.00    +0.000 A 
ATOM     21  C   UNL     1       2.765   1.968  19.187  0.00  0.00    +0.000 A 
ATOM     22  C   UNL     1       2.927   1.726  17.827  0.00  0.00    +0.000 A 
ATOM     23  C   UNL     1       2.723   2.757  16.917  0.00  0.00    +0.000 A 
ATOM     24  C   UNL     1       2.478   4.051  17.373  0.00  0.00    +0.000 A 
ATOM     25  C   UNL     1       2.487   4.338  18.748  0.00  0.00    +0.000 A 
ENDBRANCH   3  16
BRANCH   3  26
ATOM     26  C   UNL     1       1.685   7.786  18.227  0.00  0.00    +0.000 C 
ATOM     27  C   UNL     1       1.874   9.230  17.827  0.00  0.00    +0.000 C 
ATOM     28  C   UNL     1       1.569   8.897  19.250  0.00  0.00    +0.000 C 
ENDBRANCH   3  26
TORSDOF 3
ENDMDL
MODEL 4
REMARK VINA RESULT:      -6.9      2.405      5.638
REMARK  Name = 
REMARK  4 active torsions:
REMARK  status: ('A' for Active; 'I' for Inactive)
REMARK    1  A    between atoms: C_1  and  N_2
REMARK    2  A    between atoms: C_4  and  C_5
REMARK    3  A    between atoms: N_7  and  C_8
REMARK    4  A    between atoms: N_7  and  C_11
REMARK                            x       y       z     vdW  Elec       q    Type
REMARK                         _______ _______ _______ _____ _____    ______ ____
ROOT
ATOM      1  C   UNL     1      -0.507  14.489  22.686  0.00  0.00    +0.000 C 
ATOM      2  O   UNL     1      -0.841  15.452  23.377  0.00  0.00    +0.000 OA
ATOM      3  N   UNL     1      -1.162  13.222  22.766  0.00  0.00    +0.000 N 
ENDROOT
BRANCH   1   7
ATOM      4  C   UNL     1       4.222  14.146  21.826  0.00  0.00    +0.000 C 
ATOM      5  N   UNL     1       2.939  14.572  21.309  0.00  0.00    +0.000 N 
ATOM      6  N   UNL     1       1.849  14.376  22.126  0.00  0.00    +0.000 NA
ATOM      7  C   UNL     1       0.669  14.751  21.721  0.00  0.00    +0.000 A 
ATOM      8  C   UNL     1       0.469  15.474  20.428  0.00  0.00    +0.000 A 
ATOM      9  C   UNL     1      -0.741  16.041  20.005  0.00  0.00    +0.000 A 
ATOM     10  C   UNL     1      -0.810  16.788  18.814  0.00  0.00    +0.000 A 
ATOM     11  C   UNL     1       0.321  16.957  18.017  0.00  0.00    +0.000 A 
ATOM     12  C   UNL     1       1.523  16.389  18.416  0.00  0.00    +0.000 A 
ATOM     13  C   UNL     1       1.590  15.662  19.621  0.00  0.00    +0.000 A 
ATOM     14  C   UNL     1       2.903  15.159  20.061  0.00  0.00    +0.000 A 
ATOM     15  O   UNL     1       3.884  15.306  19.336  0.00  0.00    +0.000 OA
ENDBRANCH   1   7
BRANCH   3  16
ATOM     16  C   UNL     1      -0.632  11.961  22.150  0.00  0.00    +0.000 C 
ATOM     17  C   UNL     1      -0.612  10.694  23.052  0.00  0.00    +0.000 C 
ATOM     18  C   UNL     1      -0.194   9.384  22.355  0.00  0.00    +0.000 C 
ATOM     19  C   UNL     1       0.017   9.408  20.841  0.00  0.00    +0.000 C 
ATOM     20  C   UNL     1      -0.686  10.511  20.102  0.00  0.00    +0.000 A 
ATOM     21  C   UNL     1      -0.777  10.440  18.705  0.00  0.00    +0.000 A 
ATOM     22  C   UNL     1      -1.438  11.431  17.988  0.00  0.00    +0.000 A 
ATOM     23  C   UNL     1      -2.100  12.447  18.670  0.00  0.00    +0.000 A 
ATOM     24  C   UNL     1      -1.999  12.536  20.056  0.00  0.00    +0.000 A 
ATOM     25  C   UNL     1      -1.188  11.640  20.773  0.00  0.00    +0.000 A 
ENDBRANCH   3  16
BRANCH   3  26
ATOM     26  C   UNL     1      -2.214  13.096  23.777  0.00  0.00    +0.000 C 
ATOM     27  C   UNL     1      -3.432  12.224  23.588  0.00  0.00    +0.000 C 
ATOM     28  C   UNL     1      -3.587  13.708  23.591  0.00  0.00    +0.000 C 
ENDBRANCH   3  26
TORSDOF 3
ENDMDL
MODEL 5
REMARK VINA RESULT:      -6.9      1.246      2.622
REMARK  Name = 
REMARK  4 active torsions:
REMARK  status: ('A' for Active; 'I' for Inactive)
REMARK    1  A    between atoms: C_1  and  N_2
REMARK    2  A    between atoms: C_4  and  C_5
REMARK    3  A    between atoms: N_7  and  C_8
REMARK    4  A    between atoms: N_7  and  C_11
REMARK                            x       y       z     vdW  Elec       q    Type
REMARK                         _______ _______ _______ _____ _____    ______ ____
ROOT
ATOM      1  C   UNL     1      -0.204  13.383  19.078  0.00  0.00    +0.000 C 
ATOM      2  O   UNL     1      -0.036  14.358  18.344  0.00  0.00    +0.000 OA
ATOM      3  N   UNL     1       0.782  12.949  20.016  0.00  0.00    +0.000 N 
ENDROOT
BRANCH   1   7
ATOM      4  C   UNL     1      -2.919  10.324  16.530  0.00  0.00    +0.000 C 
ATOM      5  N   UNL     1      -2.854  11.185  17.691  0.00  0.00    +0.000 N 
ATOM      6  N   UNL     1      -1.673  11.864  17.891  0.00  0.00    +0.000 NA
ATOM      7  C   UNL     1      -1.560  12.664  18.912  0.00  0.00    +0.000 A 
ATOM      8  C   UNL     1      -2.705  12.941  19.832  0.00  0.00    +0.000 A 
ATOM      9  C   UNL     1      -2.700  13.902  20.852  0.00  0.00    +0.000 A 
ATOM     10  C   UNL     1      -3.860  14.160  21.606  0.00  0.00    +0.000 A 
ATOM     11  C   UNL     1      -5.032  13.444  21.370  0.00  0.00    +0.000 A 
ATOM     12  C   UNL     1      -5.048  12.479  20.373  0.00  0.00    +0.000 A 
ATOM     13  C   UNL     1      -3.889  12.242  19.607  0.00  0.00    +0.000 A 
ATOM     14  C   UNL     1      -3.973  11.280  18.493  0.00  0.00    +0.000 A 
ATOM     15  O   UNL     1      -5.011  10.649  18.312  0.00  0.00    +0.000 OA
ENDBRANCH   1   7
BRANCH   3  16
ATOM     16  C   UNL     1       0.739  11.631  20.733  0.00  0.00    +0.000 C 
ATOM     17  C   UNL     1      -0.445  11.405  21.715  0.00  0.00    +0.000 C 
ATOM     18  C   UNL     1      -0.543   9.996  22.331  0.00  0.00    +0.000 C 
ATOM     19  C   UNL     1       0.418   8.920  21.825  0.00  0.00    +0.000 C 
ATOM     20  C   UNL     1       0.993   9.150  20.457  0.00  0.00    +0.000 A 
ATOM     21  C   UNL     1       1.649   8.092  19.811  0.00  0.00    +0.000 A 
ATOM     22  C   UNL     1       2.176   8.261  18.535  0.00  0.00    +0.000 A 
ATOM     23  C   UNL     1       1.963   9.456  17.856  0.00  0.00    +0.000 A 
ATOM     24  C   UNL     1       1.330  10.519  18.497  0.00  0.00    +0.000 A 
ATOM     25  C   UNL     1       0.951  10.416  19.847  0.00  0.00    +0.000 A 
ENDBRANCH   3  16
BRANCH   3  26
ATOM     26  C   UNL     1       2.050  13.682  20.014  0.00  0.00    +0.000 C 
ATOM     27  C   UNL     1       3.031  13.627  21.161  0.00  0.00    +0.000 C 
ATOM     28  C   UNL     1       2.283  14.891  20.895  0.00  0.00    +0.000 C 
ENDBRANCH   3  26
TORSDOF 3
ENDMDL
MODEL 6
REMARK VINA RESULT:      -6.8      2.416      5.681
REMARK  Name = 
REMARK  4 active torsions:
REMARK  status: ('A' for Active; 'I' for Inactive)
REMARK    1  A    between atoms: C_1  and  N_2
REMARK    2  A    between atoms: C_4  and  C_5
REMARK    3  A    between atoms: N_7  and  C_8
REMARK    4  A    between atoms: N_7  and  C_11
REMARK                            x       y       z     vdW  Elec       q    Type
REMARK                         _______ _______ _______ _____ _____    ______ ____
ROOT
ATOM      1  C   UNL     1       0.127  14.116  21.834  0.00  0.00    +0.000 C 
ATOM      2  O   UNL     1       0.034  14.797  22.856  0.00  0.00    +0.000 OA
ATOM      3  N   UNL     1      -0.341  12.769  21.763  0.00  0.00    +0.000 N 
ENDROOT
BRANCH   1   7
ATOM      4  C   UNL     1       4.092  14.851  19.195  0.00  0.00    +0.000 C 
ATOM      5  N   UNL     1       2.690  15.166  19.362  0.00  0.00    +0.000 N 
ATOM      6  N   UNL     1       2.045  14.572  20.424  0.00  0.00    +0.000 NA
ATOM      7  C   UNL     1       0.785  14.827  20.632  0.00  0.00    +0.000 A 
ATOM      8  C   UNL     1       0.031  15.819  19.807  0.00  0.00    +0.000 A 
ATOM      9  C   UNL     1      -1.274  16.255  20.071  0.00  0.00    +0.000 A 
ATOM     10  C   UNL     1      -1.868  17.266  19.292  0.00  0.00    +0.000 A 
ATOM     11  C   UNL     1      -1.178  17.836  18.224  0.00  0.00    +0.000 A 
ATOM     12  C   UNL     1       0.110  17.404  17.942  0.00  0.00    +0.000 A 
ATOM     13  C   UNL     1       0.707  16.407  18.739  0.00  0.00    +0.000 A 
ATOM     14  C   UNL     1       2.110  16.045  18.470  0.00  0.00    +0.000 A 
ATOM     15  O   UNL     1       2.696  16.549  17.515  0.00  0.00    +0.000 OA
ENDBRANCH   1   7
BRANCH   3  16
ATOM     16  C   UNL     1      -0.015  11.823  20.645  0.00  0.00    +0.000 C 
ATOM     17  C   UNL     1       0.798  10.551  21.016  0.00  0.00    +0.000 C 
ATOM     18  C   UNL     1       0.999   9.531  19.878  0.00  0.00    +0.000 C 
ATOM     19  C   UNL     1       0.275   9.775  18.554  0.00  0.00    +0.000 C 
ATOM     20  C   UNL     1      -0.943  10.651  18.629  0.00  0.00    +0.000 A 
ATOM     21  C   UNL     1      -1.815  10.695  17.532  0.00  0.00    +0.000 A 
ATOM     22  C   UNL     1      -2.963  11.478  17.572  0.00  0.00    +0.000 A 
ATOM     23  C   UNL     1      -3.301  12.143  18.746  0.00  0.00    +0.000 A 
ATOM     24  C   UNL     1      -2.432  12.120  19.834  0.00  0.00    +0.000 A 
ATOM     25  C   UNL     1      -1.186  11.476  19.741  0.00  0.00    +0.000 A 
ENDBRANCH   3  16
BRANCH   3  26
ATOM     26  C   UNL     1      -0.877  12.200  23.001  0.00  0.00    +0.000 C 
ATOM     27  C   UNL     1      -1.499  10.825  23.071  0.00  0.00    +0.000 C 
ATOM     28  C   UNL     1      -2.364  12.031  23.232  0.00  0.00    +0.000 C 
ENDBRANCH   3  26
TORSDOF 3
ENDMDL
MODEL 7
REMARK VINA RESULT:      -6.8      1.987      3.936
REMARK  Name = 
REMARK  4 active torsions:
REMARK  status: ('A' for Active; 'I' for Inactive)
REMARK    1  A    between atoms: C_1  and  N_2
REMARK    2  A    between atoms: C_4  and  C_5
REMARK    3  A    between atoms: N_7  and  C_8
REMARK    4  A    between atoms: N_7  and  C_11
REMARK                            x       y       z     vdW  Elec       q    Type
REMARK                         _______ _______ _______ _____ _____    ______ ____
ROOT
ATOM      1  C   UNL     1      -3.033  13.960  20.694  0.00  0.00    +0.000 C 
ATOM      2  O   UNL     1      -3.448  15.067  21.036  0.00  0.00    +0.000 OA
ATOM      3  N   UNL     1      -1.656  13.593  20.788  0.00  0.00    +0.000 N 
ENDROOT
BRANCH   1   7
ATOM      4  C   UNL     1      -4.679  11.307  17.023  0.00  0.00    +0.000 C 
ATOM      5  N   UNL     1      -4.889  11.711  18.397  0.00  0.00    +0.000 N 
ATOM      6  N   UNL     1      -3.968  12.583  18.932  0.00  0.00    +0.000 NA
ATOM      7  C   UNL     1      -4.111  12.992  20.160  0.00  0.00    +0.000 A 
ATOM      8  C   UNL     1      -5.298  12.616  20.986  0.00  0.00    +0.000 A 
ATOM      9  C   UNL     1      -5.593  13.141  22.252  0.00  0.00    +0.000 A 
ATOM     10  C   UNL     1      -6.787  12.799  22.914  0.00  0.00    +0.000 A 
ATOM     11  C   UNL     1      -7.689  11.909  22.334  0.00  0.00    +0.000 A 
ATOM     12  C   UNL     1      -7.403  11.370  21.088  0.00  0.00    +0.000 A 
ATOM     13  C   UNL     1      -6.217  11.734  20.420  0.00  0.00    +0.000 A 
ATOM     14  C   UNL     1      -5.996  11.218  19.058  0.00  0.00    +0.000 A 
ATOM     15  O   UNL     1      -6.796  10.424  18.571  0.00  0.00    +0.000 OA
ENDBRANCH   1   7
BRANCH   3  16
ATOM     16  C   UNL     1      -1.065  12.372  20.146  0.00  0.00    +0.000 C 
ATOM     17  C   UNL     1      -0.003  12.608  19.035  0.00  0.00    +0.000 C 
ATOM     18  C   UNL     1       0.688  11.342  18.491  0.00  0.00    +0.000 C 
ATOM     19  C   UNL     1       0.389  10.007  19.175  0.00  0.00    +0.000 C 
ATOM     20  C   UNL     1      -0.106  10.096  20.590  0.00  0.00    +0.000 A 
ATOM     21  C   UNL     1      -0.133   8.933  21.372  0.00  0.00    +0.000 A 
ATOM     22  C   UNL     1      -0.565   8.979  22.694  0.00  0.00    +0.000 A 
ATOM     23  C   UNL     1      -0.876  10.205  23.272  0.00  0.00    +0.000 A 
ATOM     24  C   UNL     1      -0.871  11.363  22.497  0.00  0.00    +0.000 A 
ATOM     25  C   UNL     1      -0.606  11.299  21.118  0.00  0.00    +0.000 A 
ENDBRANCH   3  16
BRANCH   3  26
ATOM     26  C   UNL     1      -0.734  14.636  21.245  0.00  0.00    +0.000 C 
ATOM     27  C   UNL     1       0.624  14.331  21.829  0.00  0.00    +0.000 C 
ATOM     28  C   UNL     1      -0.450  14.871  22.714  0.00  0.00    +0.000 C 
ENDBRANCH   3  26
TORSDOF 3
ENDMDL
MODEL 8
REMARK VINA RESULT:      -6.7      2.314      5.662
REMARK  Name = 
REMARK  4 active torsions:
REMARK  status: ('A' for Active; 'I' for Inactive)
REMARK    1  A    between atoms: C_1  and  N_2
REMARK    2  A    between atoms: C_4  and  C_5
REMARK    3  A    between atoms: N_7  and  C_8
REMARK    4  A    between atoms: N_7  and  C_11
REMARK                            x       y       z     vdW  Elec       q    Type
REMARK                         _______ _______ _______ _____ _____    ______ ____
ROOT
ATOM      1  C   UNL     1       1.065  13.000  20.572  0.00  0.00    +0.000 C 
ATOM      2  O   UNL     1       2.112  12.953  21.218  0.00  0.00    +0.000 OA
ATOM      3  N   UNL     1       0.264  11.845  20.321  0.00  0.00    +0.000 N 
ENDROOT
BRANCH   1   7
ATOM      4  C   UNL     1      -2.194  16.548  20.441  0.00  0.00    +0.000 C 
ATOM      5  N   UNL     1      -0.886  16.107  20.005  0.00  0.00    +0.000 N 
ATOM      6  N   UNL     1      -0.484  14.858  20.424  0.00  0.00    +0.000 NA
ATOM      7  C   UNL     1       0.678  14.402  20.054  0.00  0.00    +0.000 A 
ATOM      8  C   UNL     1       1.559  15.153  19.109  0.00  0.00    +0.000 A 
ATOM      9  C   UNL     1       2.744  14.656  18.549  0.00  0.00    +0.000 A 
ATOM     10  C   UNL     1       3.458  15.401  17.592  0.00  0.00    +0.000 A 
ATOM     11  C   UNL     1       3.013  16.663  17.200  0.00  0.00    +0.000 A 
ATOM     12  C   UNL     1       1.850  17.174  17.757  0.00  0.00    +0.000 A 
ATOM     13  C   UNL     1       1.127  16.413  18.698  0.00  0.00    +0.000 A 
ATOM     14  C   UNL     1      -0.154  16.948  19.192  0.00  0.00    +0.000 A 
ATOM     15  O   UNL     1      -0.520  18.068  18.845  0.00  0.00    +0.000 OA
ENDBRANCH   1   7
BRANCH   3  16
ATOM     16  C   UNL     1      -0.862  11.800  19.330  0.00  0.00    +0.000 C 
ATOM     17  C   UNL     1      -0.817  10.666  18.268  0.00  0.00    +0.000 C 
ATOM     18  C   UNL     1      -2.052  10.558  17.352  0.00  0.00    +0.000 C 
ATOM     19  C   UNL     1      -3.253  11.456  17.652  0.00  0.00    +0.000 C 
ATOM     20  C   UNL     1      -3.352  11.962  19.064  0.00  0.00    +0.000 A 
ATOM     21  C   UNL     1      -4.552  12.548  19.490  0.00  0.00    +0.000 A 
ATOM     22  C   UNL     1      -4.689  13.009  20.795  0.00  0.00    +0.000 A 
ATOM     23  C   UNL     1      -3.663  12.797  21.710  0.00  0.00    +0.000 A 
ATOM     24  C   UNL     1      -2.461  12.233  21.290  0.00  0.00    +0.000 A 
ATOM     25  C   UNL     1      -2.250  11.925  19.935  0.00  0.00    +0.000 A 
ENDBRANCH   3  16
BRANCH   3  26
ATOM     26  C   UNL     1       0.791  10.569  20.811  0.00  0.00    +0.000 C 
ATOM     27  C   UNL     1      -0.063   9.332  20.960  0.00  0.00    +0.000 C 
ATOM     28  C   UNL     1       0.442  10.027  22.181  0.00  0.00    +0.000 C 
ENDBRANCH   3  26
TORSDOF 3
ENDMDL
MODEL 9
REMARK VINA RESULT:      -6.6      1.407      3.294
REMARK  Name = 
REMARK  4 active torsions:
REMARK  status: ('A' for Active; 'I' for Inactive)
REMARK    1  A    between atoms: C_1  and  N_2
REMARK    2  A    between atoms: C_4  and  C_5
REMARK    3  A    between atoms: N_7  and  C_8
REMARK    4  A    between atoms: N_7  and  C_11
REMARK                            x       y       z     vdW  Elec       q    Type
REMARK                         _______ _______ _______ _____ _____    ______ ____
ROOT
ATOM      1  C   UNL     1      -0.461  13.336  18.671  0.00  0.00    +0.000 C 
ATOM      2  O   UNL     1      -0.483  14.546  18.446  0.00  0.00    +0.000 OA
ATOM      3  N   UNL     1       0.737  12.641  19.018  0.00  0.00    +0.000 N 
ENDROOT
BRANCH   1   7
ATOM      4  C   UNL     1      -3.461  10.677  15.997  0.00  0.00    +0.000 C 
ATOM      5  N   UNL     1      -3.256  11.336  17.269  0.00  0.00    +0.000 N 
ATOM      6  N   UNL     1      -2.062  12.000  17.435  0.00  0.00    +0.000 NA
ATOM      7  C   UNL     1      -1.825  12.623  18.554  0.00  0.00    +0.000 A 
ATOM      8  C   UNL     1      -2.849  12.718  19.639  0.00  0.00    +0.000 A 
ATOM      9  C   UNL     1      -2.721  13.497  20.796  0.00  0.00    +0.000 A 
ATOM     10  C   UNL     1      -3.780  13.600  21.717  0.00  0.00    +0.000 A 
ATOM     11  C   UNL     1      -4.971  12.906  21.509  0.00  0.00    +0.000 A 
ATOM     12  C   UNL     1      -5.106  12.119  20.374  0.00  0.00    +0.000 A 
ATOM     13  C   UNL     1      -4.050  12.038  19.445  0.00  0.00    +0.000 A 
ATOM     14  C   UNL     1      -4.268  11.272  18.205  0.00  0.00    +0.000 A 
ATOM     15  O   UNL     1      -5.319  10.655  18.049  0.00  0.00    +0.000 OA
ENDBRANCH   1   7
BRANCH   3  16
ATOM     16  C   UNL     1       0.866  11.146  19.041  0.00  0.00    +0.000 C 
ATOM     17  C   UNL     1       2.090  10.536  18.301  0.00  0.00    +0.000 C 
ATOM     18  C   UNL     1       2.275   9.014  18.456  0.00  0.00    +0.000 C 
ATOM     19  C   UNL     1       1.351   8.270  19.420  0.00  0.00    +0.000 C 
ATOM     20  C   UNL     1       0.722   9.107  20.497  0.00  0.00    +0.000 A 
ATOM     21  C   UNL     1       0.097   8.465  21.576  0.00  0.00    +0.000 A 
ATOM     22  C   UNL     1      -0.478   9.207  22.602  0.00  0.00    +0.000 A 
ATOM     23  C   UNL     1      -0.344  10.591  22.609  0.00  0.00    +0.000 A 
ATOM     24  C   UNL     1       0.258  11.238  21.532  0.00  0.00    +0.000 A 
ATOM     25  C   UNL     1       0.685  10.509  20.408  0.00  0.00    +0.000 A 
ENDBRANCH   3  16
BRANCH   3  26
ATOM     26  C   UNL     1       1.970  13.430  19.022  0.00  0.00    +0.000 C 
ATOM     27  C   UNL     1       2.884  13.520  20.221  0.00  0.00    +0.000 C 
ATOM     28  C   UNL     1       2.099  14.720  19.806  0.00  0.00    +0.000 C 
ENDBRANCH   3  26
TORSDOF 3
ENDMDL
