MODEL 1
REMARK VINA RESULT:      -9.0      0.000      0.000
REMARK  Name = 
REMARK  7 active torsions:
REMARK  status: ('A' for Active; 'I' for Inactive)
REMARK    1  A    between atoms: C_1  and  C_2
REMARK    2  A    between atoms: C_4  and  C_5
REMARK    3  A    between atoms: C_7  and  C_8
REMARK    4  A    between atoms: C_8  and  N_9
REMARK    5  A    between atoms: C_13  and  C_14
REMARK    6  A    between atoms: C_13  and  C_15
REMARK    7  A    between atoms: C_19  and  N_20
REMARK                            x       y       z     vdW  Elec       q    Type
REMARK                         _______ _______ _______ _____ _____    ______ ____
ROOT
ATOM      1  N   UNL     1       3.583   2.645  18.522  0.00  0.00    +0.000 N 
ATOM      2  C   UNL     1       3.995   2.698  19.816  0.00  0.00    +0.000 C 
ATOM      3  O   UNL     1       5.100   2.427  20.263  0.00  0.00    +0.000 OA
ATOM      4  N   UNL     1       2.962   3.174  20.590  0.00  0.00    +0.000 N 
ATOM      5  C   UNL     1       1.934   3.774  19.766  0.00  0.00    +0.000 C 
ATOM      6  C   UNL     1       0.543   3.390  20.272  0.00  0.00    +0.000 C 
ATOM      7  C   UNL     1       2.304   3.121  18.415  0.00  0.00    +0.000 C 
ATOM      8  O   UNL     1       1.624   3.152  17.396  0.00  0.00    +0.000 OA
ATOM      9  H   UNL     1       3.133   3.405  21.558  0.00  0.00    +0.000 HD
ENDROOT
BRANCH   5  10
ATOM     10  C   UNL     1       2.081   5.299  19.655  0.00  0.00    +0.000 A 
ATOM     11  C   UNL     1       2.715   5.866  18.535  0.00  0.00    +0.000 A 
ATOM     12  C   UNL     1       2.805   7.250  18.380  0.00  0.00    +0.000 A 
ATOM     13  C   UNL     1       2.251   8.103  19.332  0.00  0.00    +0.000 A 
ATOM     14  C   UNL     1       1.635   7.566  20.467  0.00  0.00    +0.000 A 
ATOM     15  C   UNL     1       1.588   6.173  20.641  0.00  0.00    +0.000 A 
BRANCH  14  16
ATOM     16  N   UNL     1       1.009   8.399  21.424  0.00  0.00    +0.000 N 
ATOM     17  C   UNL     1      -0.321   8.525  21.734  0.00  0.00    +0.000 A 
ATOM     18  N   UNL     1      -0.456   9.360  22.738  0.00  0.00    +0.000 NA
ATOM     19  N   UNL     1       0.812   9.769  23.056  0.00  0.00    +0.000 NA
ATOM     20  N   UNL     1       1.707   9.191  22.270  0.00  0.00    +0.000 NA
ENDBRANCH  14  16
ENDBRANCH   5  10
BRANCH   1  21
ATOM     21  C   UNL     1       4.441   2.346  17.405  0.00  0.00    +0.000 C 
BRANCH  21  28
ATOM     22  C   UNL     1       6.791   4.963  13.810  0.00  0.00    +0.000 C 
ATOM     23  C   UNL     1       6.470   4.762  15.261  0.00  0.00    +0.000 A 
ATOM     24  C   UNL     1       7.007   5.602  16.245  0.00  0.00    +0.000 A 
ATOM     25  C   UNL     1       6.704   5.406  17.598  0.00  0.00    +0.000 A 
ATOM     26  C   UNL     1       7.260   6.312  18.656  0.00  0.00    +0.000 C 
ATOM     27  C   UNL     1       5.862   4.350  17.966  0.00  0.00    +0.000 A 
ATOM     28  C   UNL     1       5.321   3.495  16.998  0.00  0.00    +0.000 A 
ATOM     29  C   UNL     1       5.620   3.718  15.647  0.00  0.00    +0.000 A 
ENDBRANCH  21  28
ENDBRANCH   1  21
TORSDOF 4
ENDMDL
MODEL 2
REMARK VINA RESULT:      -9.0      2.687      6.898
REMARK  Name = 
REMARK  7 active torsions:
REMARK  status: ('A' for Active; 'I' for Inactive)
REMARK    1  A    between atoms: C_1  and  C_2
REMARK    2  A    between atoms: C_4  and  C_5
REMARK    3  A    between atoms: C_7  and  C_8
REMARK    4  A    between atoms: C_8  and  N_9
REMARK    5  A    between atoms: C_13  and  C_14
REMARK    6  A    between atoms: C_13  and  C_15
REMARK    7  A    between atoms: C_19  and  N_20
REMARK                            x       y       z     vdW  Elec       q    Type
REMARK                         _______ _______ _______ _____ _____    ______ ____
ROOT
ATOM      1  N   UNL     1       1.852   3.453  19.523  0.00  0.00    +0.000 N 
ATOM      2  C   UNL     1       1.507   3.293  18.218  0.00  0.00    +0.000 C 
ATOM      3  O   UNL     1       0.535   3.755  17.637  0.00  0.00    +0.000 OA
ATOM      4  N   UNL     1       2.478   2.547  17.592  0.00  0.00    +0.000 N 
ATOM      5  C   UNL     1       3.677   2.475  18.400  0.00  0.00    +0.000 C 
ATOM      6  C   UNL     1       4.267   1.065  18.370  0.00  0.00    +0.000 C 
ATOM      7  C   UNL     1       3.063   2.861  19.765  0.00  0.00    +0.000 C 
ATOM      8  O   UNL     1       3.624   2.775  20.851  0.00  0.00    +0.000 OA
ATOM      9  H   UNL     1       2.453   2.441  16.588  0.00  0.00    +0.000 HD
ENDROOT
BRANCH   5  10
ATOM     10  C   UNL     1       4.725   3.523  17.996  0.00  0.00    +0.000 A 
ATOM     11  C   UNL     1       5.315   4.343  18.975  0.00  0.00    +0.000 A 
ATOM     12  C   UNL     1       6.316   5.257  18.643  0.00  0.00    +0.000 A 
ATOM     13  C   UNL     1       6.761   5.367  17.327  0.00  0.00    +0.000 A 
ATOM     14  C   UNL     1       6.174   4.581  16.331  0.00  0.00    +0.000 A 
ATOM     15  C   UNL     1       5.137   3.695  16.662  0.00  0.00    +0.000 A 
BRANCH  14  16
ATOM     16  N   UNL     1       6.642   4.622  14.995  0.00  0.00    +0.000 N 
ATOM     17  C   UNL     1       6.221   3.909  13.902  0.00  0.00    +0.000 A 
ATOM     18  N   UNL     1       6.879   4.312  12.840  0.00  0.00    +0.000 NA
ATOM     19  N   UNL     1       7.731   5.291  13.280  0.00  0.00    +0.000 NA
ATOM     20  N   UNL     1       7.593   5.490  14.581  0.00  0.00    +0.000 NA
ENDBRANCH  14  16
ENDBRANCH   5  10
BRANCH   1  21
ATOM     21  C   UNL     1       1.159   4.308  20.451  0.00  0.00    +0.000 C 
BRANCH  21  28
ATOM     22  C   UNL     1       0.739   9.073  22.002  0.00  0.00    +0.000 C 
ATOM     23  C   UNL     1       1.238   8.083  20.993  0.00  0.00    +0.000 A 
ATOM     24  C   UNL     1       1.932   8.500  19.850  0.00  0.00    +0.000 A 
ATOM     25  C   UNL     1       2.392   7.569  18.911  0.00  0.00    +0.000 A 
ATOM     26  C   UNL     1       3.151   8.006  17.693  0.00  0.00    +0.000 C 
ATOM     27  C   UNL     1       2.144   6.207  19.118  0.00  0.00    +0.000 A 
ATOM     28  C   UNL     1       1.446   5.771  20.251  0.00  0.00    +0.000 A 
ATOM     29  C   UNL     1       1.009   6.715  21.190  0.00  0.00    +0.000 A 
ENDBRANCH  21  28
ENDBRANCH   1  21
TORSDOF 4
ENDMDL
MODEL 3
REMARK VINA RESULT:      -9.0      0.911      1.830
REMARK  Name = 
REMARK  7 active torsions:
REMARK  status: ('A' for Active; 'I' for Inactive)
REMARK    1  A    between atoms: C_1  and  C_2
REMARK    2  A    between atoms: C_4  and  C_5
REMARK    3  A    between atoms: C_7  and  C_8
REMARK    4  A    between atoms: C_8  and  N_9
REMARK    5  A    between atoms: C_13  and  C_14
REMARK    6  A    between atoms: C_13  and  C_15
REMARK    7  A    between atoms: C_19  and  N_20
REMARK                            x       y       z     vdW  Elec       q    Type
REMARK                         _______ _______ _______ _____ _____    ______ ____
ROOT
ATOM      1  N   UNL     1       3.509   3.073  18.398  0.00  0.00    +0.000 N 
ATOM      2  C   UNL     1       4.117   3.289  19.594  0.00  0.00    +0.000 C 
ATOM      3  O   UNL     1       5.288   3.094  19.886  0.00  0.00    +0.000 OA
ATOM      4  N   UNL     1       3.202   3.836  20.464  0.00  0.00    +0.000 N 
ATOM      5  C   UNL     1       2.035   4.313  19.753  0.00  0.00    +0.000 C 
ATOM      6  C   UNL     1       0.757   3.967  20.518  0.00  0.00    +0.000 C 
ATOM      7  C   UNL     1       2.212   3.510  18.445  0.00  0.00    +0.000 C 
ATOM      8  O   UNL     1       1.378   3.405  17.552  0.00  0.00    +0.000 OA
ATOM      9  H   UNL     1       3.515   4.184  21.359  0.00  0.00    +0.000 HD
ENDROOT
BRANCH   5  10
ATOM     10  C   UNL     1       2.106   5.817  19.444  0.00  0.00    +0.000 A 
ATOM     11  C   UNL     1       2.499   6.255  18.166  0.00  0.00    +0.000 A 
ATOM     12  C   UNL     1       2.509   7.612  17.841  0.00  0.00    +0.000 A 
ATOM     13  C   UNL     1       2.114   8.565  18.779  0.00  0.00    +0.000 A 
ATOM     14  C   UNL     1       1.742   8.157  20.064  0.00  0.00    +0.000 A 
ATOM     15  C   UNL     1       1.777   6.794  20.400  0.00  0.00    +0.000 A 
BRANCH  14  16
ATOM     16  N   UNL     1       1.278   9.090  21.022  0.00  0.00    +0.000 N 
ATOM     17  C   UNL     1       0.766  10.348  20.837  0.00  0.00    +0.000 A 
ATOM     18  N   UNL     1       0.390  10.839  21.995  0.00  0.00    +0.000 NA
ATOM     19  N   UNL     1       0.678   9.872  22.921  0.00  0.00    +0.000 NA
ATOM     20  N   UNL     1       1.213   8.807  22.343  0.00  0.00    +0.000 NA
ENDBRANCH  14  16
ENDBRANCH   5  10
BRANCH   1  21
ATOM     21  C   UNL     1       4.189   2.658  17.200  0.00  0.00    +0.000 C 
BRANCH  21  28
ATOM     22  C   UNL     1       6.238   7.245  17.415  0.00  0.00    +0.000 C 
ATOM     23  C   UNL     1       5.995   5.974  16.659  0.00  0.00    +0.000 A 
ATOM     24  C   UNL     1       6.484   5.800  15.358  0.00  0.00    +0.000 A 
ATOM     25  C   UNL     1       6.249   4.611  14.657  0.00  0.00    +0.000 A 
ATOM     26  C   UNL     1       6.784   4.410  13.270  0.00  0.00    +0.000 C 
ATOM     27  C   UNL     1       5.510   3.590  15.266  0.00  0.00    +0.000 A 
ATOM     28  C   UNL     1       5.007   3.748  16.564  0.00  0.00    +0.000 A 
ATOM     29  C   UNL     1       5.267   4.938  17.257  0.00  0.00    +0.000 A 
ENDBRANCH  21  28
ENDBRANCH   1  21
TORSDOF 4
ENDMDL
MODEL 4
REMARK VINA RESULT:      -8.9      2.686      6.729
REMARK  Name = 
REMARK  7 active torsions:
REMARK  status: ('A' for Active; 'I' for Inactive)
REMARK    1  A    between atoms: C_1  and  C_2
REMARK    2  A    between atoms: C_4  and  C_5
REMARK    3  A    between atoms: C_7  and  C_8
REMARK    4  A    between atoms: C_8  and  N_9
REMARK    5  A    between atoms: C_13  and  C_14
REMARK    6  A    between atoms: C_13  and  C_15
REMARK    7  A    between atoms: C_19  and  N_20
REMARK                            x       y       z     vdW  Elec       q    Type
REMARK                         _______ _______ _______ _____ _____    ______ ____
ROOT
ATOM      1  N   UNL     1       1.857   3.447  19.543  0.00  0.00    +0.000 N 
ATOM      2  C   UNL     1       1.514   3.277  18.239  0.00  0.00    +0.000 C 
ATOM      3  O   UNL     1       0.539   3.727  17.655  0.00  0.00    +0.000 OA
ATOM      4  N   UNL     1       2.491   2.534  17.618  0.00  0.00    +0.000 N 
ATOM      5  C   UNL     1       3.690   2.477  18.428  0.00  0.00    +0.000 C 
ATOM      6  C   UNL     1       4.291   1.072  18.406  0.00  0.00    +0.000 C 
ATOM      7  C   UNL     1       3.072   2.866  19.790  0.00  0.00    +0.000 C 
ATOM      8  O   UNL     1       3.633   2.792  20.877  0.00  0.00    +0.000 OA
ATOM      9  H   UNL     1       2.468   2.423  16.615  0.00  0.00    +0.000 HD
ENDROOT
BRANCH   5  10
ATOM     10  C   UNL     1       4.730   3.531  18.018  0.00  0.00    +0.000 A 
ATOM     11  C   UNL     1       5.315   4.359  18.993  0.00  0.00    +0.000 A 
ATOM     12  C   UNL     1       6.308   5.280  18.656  0.00  0.00    +0.000 A 
ATOM     13  C   UNL     1       6.753   5.387  17.339  0.00  0.00    +0.000 A 
ATOM     14  C   UNL     1       6.171   4.592  16.347  0.00  0.00    +0.000 A 
ATOM     15  C   UNL     1       5.140   3.699  16.683  0.00  0.00    +0.000 A 
BRANCH  14  16
ATOM     16  N   UNL     1       6.637   4.630  15.011  0.00  0.00    +0.000 N 
ATOM     17  C   UNL     1       6.212   3.918  13.918  0.00  0.00    +0.000 A 
ATOM     18  N   UNL     1       6.871   4.318  12.856  0.00  0.00    +0.000 NA
ATOM     19  N   UNL     1       7.729   5.292  13.294  0.00  0.00    +0.000 NA
ATOM     20  N   UNL     1       7.593   5.492  14.596  0.00  0.00    +0.000 NA
ENDBRANCH  14  16
ENDBRANCH   5  10
BRANCH   1  21
ATOM     21  C   UNL     1       1.157   4.302  20.466  0.00  0.00    +0.000 C 
BRANCH  21  28
ATOM     22  C   UNL     1       3.161   7.995  17.703  0.00  0.00    +0.000 C 
ATOM     23  C   UNL     1       2.396   7.560  18.916  0.00  0.00    +0.000 A 
ATOM     24  C   UNL     1       1.956   8.490  19.867  0.00  0.00    +0.000 A 
ATOM     25  C   UNL     1       1.244   8.075  21.000  0.00  0.00    +0.000 A 
ATOM     26  C   UNL     1       0.755   9.066  22.013  0.00  0.00    +0.000 C 
ATOM     27  C   UNL     1       0.981   6.712  21.183  0.00  0.00    +0.000 A 
ATOM     28  C   UNL     1       1.419   5.767  20.246  0.00  0.00    +0.000 A 
ATOM     29  C   UNL     1       2.113   6.202  19.110  0.00  0.00    +0.000 A 
ENDBRANCH  21  28
ENDBRANCH   1  21
TORSDOF 4
ENDMDL
MODEL 5
REMARK VINA RESULT:      -8.5      0.963      1.042
REMARK  Name = 
REMARK  7 active torsions:
REMARK  status: ('A' for Active; 'I' for Inactive)
REMARK    1  A    between atoms: C_1  and  C_2
REMARK    2  A    between atoms: C_4  and  C_5
REMARK    3  A    between atoms: C_7  and  C_8
REMARK    4  A    between atoms: C_8  and  N_9
REMARK    5  A    between atoms: C_13  and  C_14
REMARK    6  A    between atoms: C_13  and  C_15
REMARK    7  A    between atoms: C_19  and  N_20
REMARK                            x       y       z     vdW  Elec       q    Type
REMARK                         _______ _______ _______ _____ _____    ______ ____
ROOT
ATOM      1  N   UNL     1       3.545   3.203  18.315  0.00  0.00    +0.000 N 
ATOM      2  C   UNL     1       4.194   3.413  19.491  0.00  0.00    +0.000 C 
ATOM      3  O   UNL     1       5.377   3.232  19.737  0.00  0.00    +0.000 OA
ATOM      4  N   UNL     1       3.303   3.934  20.401  0.00  0.00    +0.000 N 
ATOM      5  C   UNL     1       2.104   4.403  19.739  0.00  0.00    +0.000 C 
ATOM      6  C   UNL     1       0.860   4.028  20.545  0.00  0.00    +0.000 C 
ATOM      7  C   UNL     1       2.244   3.620  18.414  0.00  0.00    +0.000 C 
ATOM      8  O   UNL     1       1.381   3.514  17.551  0.00  0.00    +0.000 OA
ATOM      9  H   UNL     1       3.643   4.275  21.288  0.00  0.00    +0.000 HD
ENDROOT
BRANCH   5  10
ATOM     10  C   UNL     1       2.141   5.911  19.448  0.00  0.00    +0.000 A 
ATOM     11  C   UNL     1       2.698   6.383  18.246  0.00  0.00    +0.000 A 
ATOM     12  C   UNL     1       2.686   7.742  17.930  0.00  0.00    +0.000 A 
ATOM     13  C   UNL     1       2.105   8.663  18.800  0.00  0.00    +0.000 A 
ATOM     14  C   UNL     1       1.566   8.223  20.013  0.00  0.00    +0.000 A 
ATOM     15  C   UNL     1       1.621   6.861  20.347  0.00  0.00    +0.000 A 
BRANCH  14  16
ATOM     16  N   UNL     1       0.915   9.120  20.893  0.00  0.00    +0.000 N 
ATOM     17  C   UNL     1       1.057  10.479  21.015  0.00  0.00    +0.000 A 
ATOM     18  N   UNL     1       0.205  10.926  21.908  0.00  0.00    +0.000 NA
ATOM     19  N   UNL     1      -0.477   9.826  22.357  0.00  0.00    +0.000 NA
ATOM     20  N   UNL     1      -0.059   8.728  21.746  0.00  0.00    +0.000 NA
ENDBRANCH  14  16
ENDBRANCH   5  10
BRANCH   1  21
ATOM     21  C   UNL     1       4.188   2.814  17.087  0.00  0.00    +0.000 C 
BRANCH  21  28
ATOM     22  C   UNL     1       7.012   4.551  13.306  0.00  0.00    +0.000 C 
ATOM     23  C   UNL     1       6.469   4.716  14.694  0.00  0.00    +0.000 A 
ATOM     24  C   UNL     1       6.821   5.818  15.482  0.00  0.00    +0.000 A 
ATOM     25  C   UNL     1       6.312   5.963  16.779  0.00  0.00    +0.000 A 
ATOM     26  C   UNL     1       6.670   7.150  17.624  0.00  0.00    +0.000 C 
ATOM     27  C   UNL     1       5.450   4.986  17.290  0.00  0.00    +0.000 A 
ATOM     28  C   UNL     1       5.092   3.873  16.519  0.00  0.00    +0.000 A 
ATOM     29  C   UNL     1       5.596   3.754  15.217  0.00  0.00    +0.000 A 
ENDBRANCH  21  28
ENDBRANCH   1  21
TORSDOF 4
ENDMDL
MODEL 6
REMARK VINA RESULT:      -8.3      2.768      5.955
REMARK  Name = 
REMARK  7 active torsions:
REMARK  status: ('A' for Active; 'I' for Inactive)
REMARK    1  A    between atoms: C_1  and  C_2
REMARK    2  A    between atoms: C_4  and  C_5
REMARK    3  A    between atoms: C_7  and  C_8
REMARK    4  A    between atoms: C_8  and  N_9
REMARK    5  A    between atoms: C_13  and  C_14
REMARK    6  A    between atoms: C_13  and  C_15
REMARK    7  A    between atoms: C_19  and  N_20
REMARK                            x       y       z     vdW  Elec       q    Type
REMARK                         _______ _______ _______ _____ _____    ______ ____
ROOT
ATOM      1  N   UNL     1       1.987   3.165  19.862  0.00  0.00    +0.000 N 
ATOM      2  C   UNL     1       1.343   2.655  18.779  0.00  0.00    +0.000 C 
ATOM      3  O   UNL     1       0.185   2.842  18.437  0.00  0.00    +0.000 OA
ATOM      4  N   UNL     1       2.235   1.901  18.050  0.00  0.00    +0.000 N 
ATOM      5  C   UNL     1       3.597   2.172  18.459  0.00  0.00    +0.000 C 
ATOM      6  C   UNL     1       4.407   0.877  18.532  0.00  0.00    +0.000 C 
ATOM      7  C   UNL     1       3.306   2.799  19.842  0.00  0.00    +0.000 C 
ATOM      8  O   UNL     1       4.141   3.047  20.704  0.00  0.00    +0.000 OA
ATOM      9  H   UNL     1       1.964   1.554  17.141  0.00  0.00    +0.000 HD
ENDROOT
BRANCH   5  10
ATOM     10  C   UNL     1       4.288   3.209  17.562  0.00  0.00    +0.000 A 
ATOM     11  C   UNL     1       3.903   3.344  16.215  0.00  0.00    +0.000 A 
ATOM     12  C   UNL     1       4.471   4.321  15.397  0.00  0.00    +0.000 A 
ATOM     13  C   UNL     1       5.427   5.198  15.906  0.00  0.00    +0.000 A 
ATOM     14  C   UNL     1       5.844   5.071  17.235  0.00  0.00    +0.000 A 
ATOM     15  C   UNL     1       5.304   4.056  18.041  0.00  0.00    +0.000 A 
BRANCH  14  16
ATOM     16  N   UNL     1       6.768   5.980  17.803  0.00  0.00    +0.000 N 
ATOM     17  C   UNL     1       7.570   5.834  18.906  0.00  0.00    +0.000 A 
ATOM     18  N   UNL     1       8.329   6.898  19.036  0.00  0.00    +0.000 NA
ATOM     19  N   UNL     1       7.989   7.726  17.999  0.00  0.00    +0.000 NA
ATOM     20  N   UNL     1       7.049   7.180  17.244  0.00  0.00    +0.000 NA
ENDBRANCH  14  16
ENDBRANCH   5  10
BRANCH   1  21
ATOM     21  C   UNL     1       1.419   4.130  20.767  0.00  0.00    +0.000 C 
BRANCH  21  28
ATOM     22  C   UNL     1       0.830   9.054  21.600  0.00  0.00    +0.000 C 
ATOM     23  C   UNL     1       1.358   7.944  20.741  0.00  0.00    +0.000 A 
ATOM     24  C   UNL     1       2.025   8.212  19.540  0.00  0.00    +0.000 A 
ATOM     25  C   UNL     1       2.512   7.168  18.742  0.00  0.00    +0.000 A 
ATOM     26  C   UNL     1       3.243   7.447  17.462  0.00  0.00    +0.000 C 
ATOM     27  C   UNL     1       2.318   5.844  19.153  0.00  0.00    +0.000 A 
ATOM     28  C   UNL     1       1.648   5.556  20.348  0.00  0.00    +0.000 A 
ATOM     29  C   UNL     1       1.183   6.613  21.142  0.00  0.00    +0.000 A 
ENDBRANCH  21  28
ENDBRANCH   1  21
TORSDOF 4
ENDMDL
MODEL 7
REMARK VINA RESULT:      -8.2      1.938      3.588
REMARK  Name = 
REMARK  7 active torsions:
REMARK  status: ('A' for Active; 'I' for Inactive)
REMARK    1  A    between atoms: C_1  and  C_2
REMARK    2  A    between atoms: C_4  and  C_5
REMARK    3  A    between atoms: C_7  and  C_8
REMARK    4  A    between atoms: C_8  and  N_9
REMARK    5  A    between atoms: C_13  and  C_14
REMARK    6  A    between atoms: C_13  and  C_15
REMARK    7  A    between atoms: C_19  and  N_20
REMARK                            x       y       z     vdW  Elec       q    Type
REMARK                         _______ _______ _______ _____ _____    ______ ____
ROOT
ATOM      1  N   UNL     1       5.102   4.451  16.802  0.00  0.00    +0.000 N 
ATOM      2  C   UNL     1       6.008   4.362  17.810  0.00  0.00    +0.000 C 
ATOM      3  O   UNL     1       7.034   5.010  17.958  0.00  0.00    +0.000 OA
ATOM      4  N   UNL     1       5.566   3.430  18.721  0.00  0.00    +0.000 N 
ATOM      5  C   UNL     1       4.169   3.117  18.504  0.00  0.00    +0.000 C 
ATOM      6  C   UNL     1       3.920   1.616  18.654  0.00  0.00    +0.000 C 
ATOM      7  C   UNL     1       4.038   3.625  17.050  0.00  0.00    +0.000 C 
ATOM      8  O   UNL     1       3.083   3.430  16.307  0.00  0.00    +0.000 OA
ATOM      9  H   UNL     1       6.048   3.328  19.602  0.00  0.00    +0.000 HD
ENDROOT
BRANCH   5  10
ATOM     10  C   UNL     1       3.233   3.928  19.414  0.00  0.00    +0.000 A 
ATOM     11  C   UNL     1       2.712   3.346  20.584  0.00  0.00    +0.000 A 
ATOM     12  C   UNL     1       1.912   4.082  21.460  0.00  0.00    +0.000 A 
ATOM     13  C   UNL     1       1.625   5.420  21.198  0.00  0.00    +0.000 A 
ATOM     14  C   UNL     1       2.112   6.015  20.029  0.00  0.00    +0.000 A 
ATOM     15  C   UNL     1       2.878   5.259  19.128  0.00  0.00    +0.000 A 
BRANCH  14  16
ATOM     16  N   UNL     1       1.891   7.387  19.760  0.00  0.00    +0.000 N 
ATOM     17  C   UNL     1       2.127   8.099  18.611  0.00  0.00    +0.000 A 
ATOM     18  N   UNL     1       1.707   9.333  18.771  0.00  0.00    +0.000 NA
ATOM     19  N   UNL     1       1.206   9.394  20.044  0.00  0.00    +0.000 NA
ATOM     20  N   UNL     1       1.308   8.221  20.651  0.00  0.00    +0.000 NA
ENDBRANCH  14  16
ENDBRANCH   5  10
BRANCH   1  21
ATOM     21  C   UNL     1       5.147   5.433  15.750  0.00  0.00    +0.000 C 
BRANCH  21  28
ATOM     22  C   UNL     1       9.093   5.847  12.660  0.00  0.00    +0.000 C 
ATOM     23  C   UNL     1       7.803   5.175  13.024  0.00  0.00    +0.000 A 
ATOM     24  C   UNL     1       7.267   4.156  12.227  0.00  0.00    +0.000 A 
ATOM     25  C   UNL     1       6.059   3.536  12.573  0.00  0.00    +0.000 A 
ATOM     26  C   UNL     1       5.487   2.432  11.734  0.00  0.00    +0.000 C 
ATOM     27  C   UNL     1       5.381   3.951  13.724  0.00  0.00    +0.000 A 
ATOM     28  C   UNL     1       5.897   4.974  14.530  0.00  0.00    +0.000 A 
ATOM     29  C   UNL     1       7.116   5.570  14.179  0.00  0.00    +0.000 A 
ENDBRANCH  21  28
ENDBRANCH   1  21
TORSDOF 4
ENDMDL
MODEL 8
REMARK VINA RESULT:      -8.2      2.770      5.767
REMARK  Name = 
REMARK  7 active torsions:
REMARK  status: ('A' for Active; 'I' for Inactive)
REMARK    1  A    between atoms: C_1  and  C_2
REMARK    2  A    between atoms: C_4  and  C_5
REMARK    3  A    between atoms: C_7  and  C_8
REMARK    4  A    between atoms: C_8  and  N_9
REMARK    5  A    between atoms: C_13  and  C_14
REMARK    6  A    between atoms: C_13  and  C_15
REMARK    7  A    between atoms: C_19  and  N_20
REMARK                            x       y       z     vdW  Elec       q    Type
REMARK                         _______ _______ _______ _____ _____    ______ ____
ROOT
ATOM      1  N   UNL     1       2.002   3.161  19.871  0.00  0.00    +0.000 N 
ATOM      2  C   UNL     1       1.351   2.648  18.794  0.00  0.00    +0.000 C 
ATOM      3  O   UNL     1       0.189   2.829  18.463  0.00  0.00    +0.000 OA
ATOM      4  N   UNL     1       2.239   1.897  18.057  0.00  0.00    +0.000 N 
ATOM      5  C   UNL     1       3.603   2.174  18.454  0.00  0.00    +0.000 C 
ATOM      6  C   UNL     1       4.421   0.884  18.520  0.00  0.00    +0.000 C 
ATOM      7  C   UNL     1       3.323   2.801  19.839  0.00  0.00    +0.000 C 
ATOM      8  O   UNL     1       4.164   3.053  20.694  0.00  0.00    +0.000 OA
ATOM      9  H   UNL     1       1.962   1.549  17.151  0.00  0.00    +0.000 HD
ENDROOT
BRANCH   5  10
ATOM     10  C   UNL     1       4.282   3.214  17.550  0.00  0.00    +0.000 A 
ATOM     11  C   UNL     1       3.885   3.346  16.207  0.00  0.00    +0.000 A 
ATOM     12  C   UNL     1       4.441   4.327  15.384  0.00  0.00    +0.000 A 
ATOM     13  C   UNL     1       5.397   5.208  15.884  0.00  0.00    +0.000 A 
ATOM     14  C   UNL     1       5.827   5.083  17.209  0.00  0.00    +0.000 A 
ATOM     15  C   UNL     1       5.298   4.067  18.020  0.00  0.00    +0.000 A 
BRANCH  14  16
ATOM     16  N   UNL     1       6.751   5.997  17.768  0.00  0.00    +0.000 N 
ATOM     17  C   UNL     1       7.565   5.854  18.863  0.00  0.00    +0.000 A 
ATOM     18  N   UNL     1       8.319   6.922  18.986  0.00  0.00    +0.000 NA
ATOM     19  N   UNL     1       7.965   7.749  17.953  0.00  0.00    +0.000 NA
ATOM     20  N   UNL     1       7.020   7.199  17.207  0.00  0.00    +0.000 NA
ENDBRANCH  14  16
ENDBRANCH   5  10
BRANCH   1  21
ATOM     21  C   UNL     1       1.439   4.123  20.782  0.00  0.00    +0.000 C 
BRANCH  21  28
ATOM     22  C   UNL     1       3.205   7.451  17.450  0.00  0.00    +0.000 C 
ATOM     23  C   UNL     1       2.492   7.168  18.738  0.00  0.00    +0.000 A 
ATOM     24  C   UNL     1       2.037   8.207  19.558  0.00  0.00    +0.000 A 
ATOM     25  C   UNL     1       1.374   7.934  20.762  0.00  0.00    +0.000 A 
ATOM     26  C   UNL     1       0.868   9.042  21.637  0.00  0.00    +0.000 C 
ATOM     27  C   UNL     1       1.176   6.603  21.148  0.00  0.00    +0.000 A 
ATOM     28  C   UNL     1       1.630   5.550  20.345  0.00  0.00    +0.000 A 
ATOM     29  C   UNL     1       2.275   5.842  19.135  0.00  0.00    +0.000 A 
ENDBRANCH  21  28
ENDBRANCH   1  21
TORSDOF 4
ENDMDL
MODEL 9
REMARK VINA RESULT:      -8.1      1.935      3.413
REMARK  Name = 
REMARK  7 active torsions:
REMARK  status: ('A' for Active; 'I' for Inactive)
REMARK    1  A    between atoms: C_1  and  C_2
REMARK    2  A    between atoms: C_4  and  C_5
REMARK    3  A    between atoms: C_7  and  C_8
REMARK    4  A    between atoms: C_8  and  N_9
REMARK    5  A    between atoms: C_13  and  C_14
REMARK    6  A    between atoms: C_13  and  C_15
REMARK    7  A    between atoms: C_19  and  N_20
REMARK                            x       y       z     vdW  Elec       q    Type
REMARK                         _______ _______ _______ _____ _____    ______ ____
ROOT
ATOM      1  N   UNL     1       5.117   4.464  16.834  0.00  0.00    +0.000 N 
ATOM      2  C   UNL     1       6.021   4.379  17.845  0.00  0.00    +0.000 C 
ATOM      3  O   UNL     1       7.035   5.044  18.003  0.00  0.00    +0.000 OA
ATOM      4  N   UNL     1       5.592   3.431  18.745  0.00  0.00    +0.000 N 
ATOM      5  C   UNL     1       4.201   3.097  18.519  0.00  0.00    +0.000 C 
ATOM      6  C   UNL     1       3.978   1.591  18.653  0.00  0.00    +0.000 C 
ATOM      7  C   UNL     1       4.067   3.617  17.069  0.00  0.00    +0.000 C 
ATOM      8  O   UNL     1       3.118   3.413  16.322  0.00  0.00    +0.000 OA
ATOM      9  H   UNL     1       6.073   3.330  19.627  0.00  0.00    +0.000 HD
ENDROOT
BRANCH   5  10
ATOM     10  C   UNL     1       3.249   3.882  19.434  0.00  0.00    +0.000 A 
ATOM     11  C   UNL     1       2.715   3.273  20.583  0.00  0.00    +0.000 A 
ATOM     12  C   UNL     1       1.899   3.985  21.464  0.00  0.00    +0.000 A 
ATOM     13  C   UNL     1       1.608   5.327  21.227  0.00  0.00    +0.000 A 
ATOM     14  C   UNL     1       2.107   5.950  20.079  0.00  0.00    +0.000 A 
ATOM     15  C   UNL     1       2.889   5.217  19.172  0.00  0.00    +0.000 A 
BRANCH  14  16
ATOM     16  N   UNL     1       1.882   7.326  19.836  0.00  0.00    +0.000 N 
ATOM     17  C   UNL     1       2.072   8.051  18.688  0.00  0.00    +0.000 A 
ATOM     18  N   UNL     1       1.666   9.285  18.880  0.00  0.00    +0.000 NA
ATOM     19  N   UNL     1       1.221   9.332  20.175  0.00  0.00    +0.000 NA
ATOM     20  N   UNL     1       1.343   8.152  20.762  0.00  0.00    +0.000 NA
ENDBRANCH  14  16
ENDBRANCH   5  10
BRANCH   1  21
ATOM     21  C   UNL     1       5.149   5.456  15.792  0.00  0.00    +0.000 C 
BRANCH  21  28
ATOM     22  C   UNL     1       5.460   2.471  11.756  0.00  0.00    +0.000 C 
ATOM     23  C   UNL     1       6.045   3.560  12.606  0.00  0.00    +0.000 A 
ATOM     24  C   UNL     1       7.280   4.140  12.290  0.00  0.00    +0.000 A 
ATOM     25  C   UNL     1       7.821   5.154  13.091  0.00  0.00    +0.000 A 
ATOM     26  C   UNL     1       9.135   5.793  12.750  0.00  0.00    +0.000 C 
ATOM     27  C   UNL     1       7.118   5.582  14.223  0.00  0.00    +0.000 A 
ATOM     28  C   UNL     1       5.884   5.010  14.558  0.00  0.00    +0.000 A 
ATOM     29  C   UNL     1       5.350   4.009  13.735  0.00  0.00    +0.000 A 
ENDBRANCH  21  28
ENDBRANCH   1  21
TORSDOF 4
ENDMDL
