MODEL 1
REMARK VINA RESULT:      -9.2      0.000      0.000
REMARK  Name = 
REMARK  3 active torsions:
REMARK  status: ('A' for Active; 'I' for Inactive)
REMARK    1  A    between atoms: C_2  and  C_20
REMARK    2  A    between atoms: N_3  and  C_4
REMARK    3  A    between atoms: C_7  and  C_8
REMARK                            x       y       z     vdW  Elec       q    Type
REMARK                         _______ _______ _______ _____ _____    ______ ____
ROOT
ATOM      1  C   UNL     1       0.960   9.577  19.694  0.00  0.00    +0.000 A 
ATOM      2  C   UNL     1       1.337   9.531  18.355  0.00  0.00    +0.000 A 
ATOM      3  C   UNL     1       2.074   8.437  17.865  0.00  0.00    +0.000 A 
ATOM      4  C   UNL     1       2.434   7.366  18.699  0.00  0.00    +0.000 A 
ATOM      5  C   UNL     1       2.124   7.470  20.058  0.00  0.00    +0.000 A 
ATOM      6  C   UNL     1       1.387   8.554  20.547  0.00  0.00    +0.000 A 
ENDROOT
BRANCH   4   7
ATOM      7  C   UNL     1       3.120   6.192  18.139  0.00  0.00    +0.000 A 
ATOM      8  N   UNL     1       4.119   6.238  17.277  0.00  0.00    +0.000 NA
ATOM      9  N   UNL     1       4.507   4.960  16.977  0.00  0.00    +0.000 NA
ATOM     10  C   UNL     1       3.729   4.123  17.633  0.00  0.00    +0.000 A 
ATOM     11  N   UNL     1       2.815   4.856  18.354  0.00  0.00    +0.000 N 
ATOM     12  C   UNL     1       1.718   4.331  19.143  0.00  0.00    +0.000 C 
ATOM     13  C   UNL     1       1.034   3.103  18.554  0.00  0.00    +0.000 C 
ATOM     14  C   UNL     1       1.775   1.796  18.821  0.00  0.00    +0.000 C 
ATOM     15  C   UNL     1       3.299   1.883  18.767  0.00  0.00    +0.000 C 
ATOM     16  C   UNL     1       3.824   2.634  17.548  0.00  0.00    +0.000 C 
ENDBRANCH   4   7
BRANCH   1  19
ATOM     17  O   UNL     1       1.791  12.078  21.151  0.00  0.00    +0.000 OA
ATOM     18  C   UNL     1       0.631  11.724  20.979  0.00  0.00    +0.000 C 
ATOM     19  N   UNL     1       0.202  10.607  20.273  0.00  0.00    +0.000 N 
ATOM     20  H   UNL     1      -0.797  10.597  20.086  0.00  0.00    +0.000 HD
BRANCH  18  21
ATOM     21  C   UNL     1      -0.558  12.429  21.643  0.00  0.00    +0.000 C 
ATOM     22  C   UNL     1      -1.585  11.526  22.333  0.00  0.00    +0.000 C 
ATOM     23  C   UNL     1      -2.173  12.568  23.220  0.00  0.00    +0.000 A 
ATOM     24  C   UNL     1      -3.405  12.644  23.841  0.00  0.00    +0.000 A 
ATOM     25  C   UNL     1      -3.685  13.781  24.611  0.00  0.00    +0.000 A 
ATOM     26  C   UNL     1      -2.726  14.796  24.778  0.00  0.00    +0.000 A 
ATOM     27  C   UNL     1      -1.479  14.696  24.163  0.00  0.00    +0.000 A 
ATOM     28  C   UNL     1      -1.243  13.591  23.374  0.00  0.00    +0.000 A 
ATOM     29  O   UNL     1      -0.110  13.407  22.622  0.00  0.00    +0.000 OA
ENDBRANCH  18  21
ENDBRANCH   1  19
TORSDOF 3
ENDMDL
MODEL 2
REMARK VINA RESULT:      -9.2      1.095      1.356
REMARK  Name = 
REMARK  3 active torsions:
REMARK  status: ('A' for Active; 'I' for Inactive)
REMARK    1  A    between atoms: C_2  and  C_20
REMARK    2  A    between atoms: N_3  and  C_4
REMARK    3  A    between atoms: C_7  and  C_8
REMARK                            x       y       z     vdW  Elec       q    Type
REMARK                         _______ _______ _______ _____ _____    ______ ____
ROOT
ATOM      1  C   UNL     1       0.645   9.744  19.639  0.00  0.00    +0.000 A 
ATOM      2  C   UNL     1       1.064   9.705  18.311  0.00  0.00    +0.000 A 
ATOM      3  C   UNL     1       1.879   8.652  17.857  0.00  0.00    +0.000 A 
ATOM      4  C   UNL     1       2.279   7.615  18.715  0.00  0.00    +0.000 A 
ATOM      5  C   UNL     1       1.924   7.716  20.063  0.00  0.00    +0.000 A 
ATOM      6  C   UNL     1       1.109   8.759  20.517  0.00  0.00    +0.000 A 
ENDROOT
BRANCH   4   7
ATOM      7  C   UNL     1       3.050   6.479  18.190  0.00  0.00    +0.000 A 
ATOM      8  N   UNL     1       4.097   6.578  17.391  0.00  0.00    +0.000 NA
ATOM      9  N   UNL     1       4.560   5.321  17.107  0.00  0.00    +0.000 NA
ATOM     10  C   UNL     1       3.784   4.445  17.709  0.00  0.00    +0.000 A 
ATOM     11  N   UNL     1       2.795   5.128  18.378  0.00  0.00    +0.000 N 
ATOM     12  C   UNL     1       1.677   4.547  19.096  0.00  0.00    +0.000 C 
ATOM     13  C   UNL     1       1.088   3.295  18.459  0.00  0.00    +0.000 C 
ATOM     14  C   UNL     1       1.871   2.020  18.762  0.00  0.00    +0.000 C 
ATOM     15  C   UNL     1       3.390   2.177  18.801  0.00  0.00    +0.000 C 
ATOM     16  C   UNL     1       3.952   2.962  17.621  0.00  0.00    +0.000 C 
ENDBRANCH   4   7
BRANCH   1  19
ATOM     17  O   UNL     1       1.268  12.187  21.284  0.00  0.00    +0.000 OA
ATOM     18  C   UNL     1       0.141  11.822  20.978  0.00  0.00    +0.000 C 
ATOM     19  N   UNL     1      -0.190  10.732  20.181  0.00  0.00    +0.000 N 
ATOM     20  H   UNL     1      -1.164  10.714  19.892  0.00  0.00    +0.000 HD
BRANCH  18  21
ATOM     21  C   UNL     1      -1.126  12.474  21.547  0.00  0.00    +0.000 C 
ATOM     22  C   UNL     1      -2.356  12.481  20.635  0.00  0.00    +0.000 C 
ATOM     23  C   UNL     1      -3.372  12.674  21.707  0.00  0.00    +0.000 A 
ATOM     24  C   UNL     1      -4.657  13.182  21.661  0.00  0.00    +0.000 A 
ATOM     25  C   UNL     1      -5.376  13.261  22.860  0.00  0.00    +0.000 A 
ATOM     26  C   UNL     1      -4.822  12.801  24.068  0.00  0.00    +0.000 A 
ATOM     27  C   UNL     1      -3.533  12.270  24.097  0.00  0.00    +0.000 A 
ATOM     28  C   UNL     1      -2.828  12.245  22.913  0.00  0.00    +0.000 A 
ATOM     29  O   UNL     1      -1.517  11.854  22.803  0.00  0.00    +0.000 OA
ENDBRANCH  18  21
ENDBRANCH   1  19
TORSDOF 3
ENDMDL
MODEL 3
REMARK VINA RESULT:      -9.2      0.605      1.102
REMARK  Name = 
REMARK  3 active torsions:
REMARK  status: ('A' for Active; 'I' for Inactive)
REMARK    1  A    between atoms: C_2  and  C_20
REMARK    2  A    between atoms: N_3  and  C_4
REMARK    3  A    between atoms: C_7  and  C_8
REMARK                            x       y       z     vdW  Elec       q    Type
REMARK                         _______ _______ _______ _____ _____    ______ ____
ROOT
ATOM      1  C   UNL     1       0.814   9.819  19.917  0.00  0.00    +0.000 A 
ATOM      2  C   UNL     1       1.258   8.704  20.623  0.00  0.00    +0.000 A 
ATOM      3  C   UNL     1       2.010   7.708  19.973  0.00  0.00    +0.000 A 
ATOM      4  C   UNL     1       2.342   7.815  18.613  0.00  0.00    +0.000 A 
ATOM      5  C   UNL     1       1.815   8.895  17.899  0.00  0.00    +0.000 A 
ATOM      6  C   UNL     1       1.071   9.889  18.544  0.00  0.00    +0.000 A 
ENDROOT
BRANCH   4   7
ATOM      7  C   UNL     1       3.210   6.808  17.984  0.00  0.00    +0.000 A 
ATOM      8  N   UNL     1       4.262   7.078  17.233  0.00  0.00    +0.000 NA
ATOM      9  N   UNL     1       4.828   5.901  16.820  0.00  0.00    +0.000 NA
ATOM     10  C   UNL     1       4.110   4.904  17.296  0.00  0.00    +0.000 A 
ATOM     11  N   UNL     1       3.057   5.429  18.009  0.00  0.00    +0.000 N 
ATOM     12  C   UNL     1       1.973   4.687  18.622  0.00  0.00    +0.000 C 
ATOM     13  C   UNL     1       1.496   3.476  17.829  0.00  0.00    +0.000 C 
ATOM     14  C   UNL     1       2.370   2.237  18.007  0.00  0.00    +0.000 C 
ATOM     15  C   UNL     1       3.871   2.502  18.109  0.00  0.00    +0.000 C 
ATOM     16  C   UNL     1       4.394   3.459  17.043  0.00  0.00    +0.000 C 
ENDBRANCH   4   7
BRANCH   1  19
ATOM     17  O   UNL     1       1.705  12.443  21.094  0.00  0.00    +0.000 OA
ATOM     18  C   UNL     1       0.544  12.055  21.054  0.00  0.00    +0.000 C 
ATOM     19  N   UNL     1       0.083  10.878  20.478  0.00  0.00    +0.000 N 
ATOM     20  H   UNL     1      -0.928  10.834  20.382  0.00  0.00    +0.000 HD
BRANCH  18  21
ATOM     21  C   UNL     1      -0.600  12.788  21.765  0.00  0.00    +0.000 C 
ATOM     22  C   UNL     1      -1.690  11.909  22.386  0.00  0.00    +0.000 C 
ATOM     23  C   UNL     1      -2.213  12.922  23.344  0.00  0.00    +0.000 A 
ATOM     24  C   UNL     1      -3.442  13.036  23.967  0.00  0.00    +0.000 A 
ATOM     25  C   UNL     1      -3.651  14.130  24.816  0.00  0.00    +0.000 A 
ATOM     26  C   UNL     1      -2.627  15.064  25.058  0.00  0.00    +0.000 A 
ATOM     27  C   UNL     1      -1.385  14.926  24.440  0.00  0.00    +0.000 A 
ATOM     28  C   UNL     1      -1.219  13.867  23.574  0.00  0.00    +0.000 A 
ATOM     29  O   UNL     1      -0.095  13.661  22.813  0.00  0.00    +0.000 OA
ENDBRANCH  18  21
ENDBRANCH   1  19
TORSDOF 3
ENDMDL
MODEL 4
REMARK VINA RESULT:      -9.0      1.275      1.813
REMARK  Name = 
REMARK  3 active torsions:
REMARK  status: ('A' for Active; 'I' for Inactive)
REMARK    1  A    between atoms: C_2  and  C_20
REMARK    2  A    between atoms: N_3  and  C_4
REMARK    3  A    between atoms: C_7  and  C_8
REMARK                            x       y       z     vdW  Elec       q    Type
REMARK                         _______ _______ _______ _____ _____    ______ ____
ROOT
ATOM      1  C   UNL     1       0.477   9.775  19.929  0.00  0.00    +0.000 A 
ATOM      2  C   UNL     1       1.017   8.717  20.656  0.00  0.00    +0.000 A 
ATOM      3  C   UNL     1       1.865   7.786  20.028  0.00  0.00    +0.000 A 
ATOM      4  C   UNL     1       2.199   7.903  18.668  0.00  0.00    +0.000 A 
ATOM      5  C   UNL     1       1.579   8.918  17.934  0.00  0.00    +0.000 A 
ATOM      6  C   UNL     1       0.740   9.848  18.557  0.00  0.00    +0.000 A 
ENDROOT
BRANCH   4   7
ATOM      7  C   UNL     1       3.163   6.973  18.063  0.00  0.00    +0.000 A 
ATOM      8  N   UNL     1       4.262   7.331  17.425  0.00  0.00    +0.000 NA
ATOM      9  N   UNL     1       4.915   6.205  16.998  0.00  0.00    +0.000 NA
ATOM     10  C   UNL     1       4.205   5.153  17.349  0.00  0.00    +0.000 A 
ATOM     11  N   UNL     1       3.072   5.590  17.995  0.00  0.00    +0.000 N 
ATOM     12  C   UNL     1       1.974   4.768  18.465  0.00  0.00    +0.000 C 
ATOM     13  C   UNL     1       1.623   3.590  17.565  0.00  0.00    +0.000 C 
ATOM     14  C   UNL     1       2.534   2.379  17.749  0.00  0.00    +0.000 C 
ATOM     15  C   UNL     1       4.007   2.698  17.998  0.00  0.00    +0.000 C 
ATOM     16  C   UNL     1       4.577   3.738  17.040  0.00  0.00    +0.000 C 
ENDBRANCH   4   7
BRANCH   1  19
ATOM     17  O   UNL     1       1.112  12.235  21.545  0.00  0.00    +0.000 OA
ATOM     18  C   UNL     1      -0.018  11.866  21.250  0.00  0.00    +0.000 C 
ATOM     19  N   UNL     1      -0.354  10.768  20.467  0.00  0.00    +0.000 N 
ATOM     20  H   UNL     1      -1.330  10.747  20.185  0.00  0.00    +0.000 HD
BRANCH  18  21
ATOM     21  C   UNL     1      -1.281  12.524  21.822  0.00  0.00    +0.000 C 
ATOM     22  C   UNL     1      -2.478  12.634  20.875  0.00  0.00    +0.000 C 
ATOM     23  C   UNL     1      -3.523  12.792  21.925  0.00  0.00    +0.000 A 
ATOM     24  C   UNL     1      -4.788  13.347  21.873  0.00  0.00    +0.000 A 
ATOM     25  C   UNL     1      -5.544  13.372  23.052  0.00  0.00    +0.000 A 
ATOM     26  C   UNL     1      -5.046  12.813  24.243  0.00  0.00    +0.000 A 
ATOM     27  C   UNL     1      -3.778  12.236  24.275  0.00  0.00    +0.000 A 
ATOM     28  C   UNL     1      -3.035  12.265  23.115  0.00  0.00    +0.000 A 
ATOM     29  O   UNL     1      -1.735  11.836  23.021  0.00  0.00    +0.000 OA
ENDBRANCH  18  21
ENDBRANCH   1  19
TORSDOF 3
ENDMDL
MODEL 5
REMARK VINA RESULT:      -8.9      1.392      2.427
REMARK  Name = 
REMARK  3 active torsions:
REMARK  status: ('A' for Active; 'I' for Inactive)
REMARK    1  A    between atoms: C_2  and  C_20
REMARK    2  A    between atoms: N_3  and  C_4
REMARK    3  A    between atoms: C_7  and  C_8
REMARK                            x       y       z     vdW  Elec       q    Type
REMARK                         _______ _______ _______ _____ _____    ______ ____
ROOT
ATOM      1  C   UNL     1       0.883   9.601  19.667  0.00  0.00    +0.000 A 
ATOM      2  C   UNL     1       1.228   9.521  18.321  0.00  0.00    +0.000 A 
ATOM      3  C   UNL     1       1.902   8.387  17.831  0.00  0.00    +0.000 A 
ATOM      4  C   UNL     1       2.230   7.311  18.671  0.00  0.00    +0.000 A 
ATOM      5  C   UNL     1       1.955   7.447  20.035  0.00  0.00    +0.000 A 
ATOM      6  C   UNL     1       1.280   8.570  20.525  0.00  0.00    +0.000 A 
ENDROOT
BRANCH   4   7
ATOM      7  C   UNL     1       2.847   6.099  18.113  0.00  0.00    +0.000 A 
ATOM      8  N   UNL     1       2.311   4.893  18.144  0.00  0.00    +0.000 NA
ATOM      9  N   UNL     1       3.162   4.012  17.531  0.00  0.00    +0.000 NA
ATOM     10  C   UNL     1       4.235   4.669  17.145  0.00  0.00    +0.000 A 
ATOM     11  N   UNL     1       4.097   5.985  17.521  0.00  0.00    +0.000 N 
ATOM     12  C   UNL     1       5.086   7.035  17.373  0.00  0.00    +0.000 C 
ATOM     13  C   UNL     1       6.528   6.593  17.592  0.00  0.00    +0.000 C 
ATOM     14  C   UNL     1       7.155   5.909  16.380  0.00  0.00    +0.000 C 
ATOM     15  C   UNL     1       6.222   4.998  15.585  0.00  0.00    +0.000 C 
ATOM     16  C   UNL     1       5.408   4.048  16.456  0.00  0.00    +0.000 C 
ENDBRANCH   4   7
BRANCH   1  19
ATOM     17  O   UNL     1       1.860  12.049  21.124  0.00  0.00    +0.000 OA
ATOM     18  C   UNL     1       0.682  11.763  20.953  0.00  0.00    +0.000 C 
ATOM     19  N   UNL     1       0.187  10.673  20.247  0.00  0.00    +0.000 N 
ATOM     20  H   UNL     1      -0.811  10.721  20.062  0.00  0.00    +0.000 HD
BRANCH  18  21
ATOM     21  C   UNL     1      -0.464  12.535  21.620  0.00  0.00    +0.000 C 
ATOM     22  C   UNL     1      -1.550  11.693  22.294  0.00  0.00    +0.000 C 
ATOM     23  C   UNL     1      -2.075  12.760  23.190  0.00  0.00    +0.000 A 
ATOM     24  C   UNL     1      -3.304  12.908  23.807  0.00  0.00    +0.000 A 
ATOM     25  C   UNL     1      -3.515  14.051  24.588  0.00  0.00    +0.000 A 
ATOM     26  C   UNL     1      -2.493  15.001  24.771  0.00  0.00    +0.000 A 
ATOM     27  C   UNL     1      -1.251  14.829  24.162  0.00  0.00    +0.000 A 
ATOM     28  C   UNL     1      -1.083  13.720  23.361  0.00  0.00    +0.000 A 
ATOM     29  O   UNL     1       0.040  13.471  22.613  0.00  0.00    +0.000 OA
ENDBRANCH  18  21
ENDBRANCH   1  19
TORSDOF 3
ENDMDL
MODEL 6
REMARK VINA RESULT:      -8.9      6.419      8.915
REMARK  Name = 
REMARK  3 active torsions:
REMARK  status: ('A' for Active; 'I' for Inactive)
REMARK    1  A    between atoms: C_2  and  C_20
REMARK    2  A    between atoms: N_3  and  C_4
REMARK    3  A    between atoms: C_7  and  C_8
REMARK                            x       y       z     vdW  Elec       q    Type
REMARK                         _______ _______ _______ _____ _____    ______ ____
ROOT
ATOM      1  C   UNL     1       7.517   7.939  17.749  0.00  0.00    +0.000 A 
ATOM      2  C   UNL     1       7.898   6.801  18.455  0.00  0.00    +0.000 A 
ATOM      3  C   UNL     1       7.027   5.700  18.545  0.00  0.00    +0.000 A 
ATOM      4  C   UNL     1       5.768   5.710  17.923  0.00  0.00    +0.000 A 
ATOM      5  C   UNL     1       5.366   6.892  17.294  0.00  0.00    +0.000 A 
ATOM      6  C   UNL     1       6.232   7.987  17.198  0.00  0.00    +0.000 A 
ENDROOT
BRANCH   4   7
ATOM      7  C   UNL     1       4.920   4.510  17.952  0.00  0.00    +0.000 A 
ATOM      8  N   UNL     1       4.984   3.516  17.086  0.00  0.00    +0.000 NA
ATOM      9  N   UNL     1       4.050   2.572  17.422  0.00  0.00    +0.000 NA
ATOM     10  C   UNL     1       3.391   2.996  18.481  0.00  0.00    +0.000 A 
ATOM     11  N   UNL     1       3.883   4.232  18.832  0.00  0.00    +0.000 N 
ATOM     12  C   UNL     1       3.381   5.096  19.882  0.00  0.00    +0.000 C 
ATOM     13  C   UNL     1       1.867   5.085  20.052  0.00  0.00    +0.000 C 
ATOM     14  C   UNL     1       1.343   3.897  20.856  0.00  0.00    +0.000 C 
ATOM     15  C   UNL     1       2.064   2.572  20.613  0.00  0.00    +0.000 C 
ATOM     16  C   UNL     1       2.272   2.253  19.137  0.00  0.00    +0.000 C 
ENDBRANCH   4   7
BRANCH   1  19
ATOM     17  O   UNL     1       8.946   9.682  19.745  0.00  0.00    +0.000 OA
ATOM     18  C   UNL     1       8.925   9.879  18.536  0.00  0.00    +0.000 C 
ATOM     19  N   UNL     1       8.322   9.076  17.577  0.00  0.00    +0.000 N 
ATOM     20  H   UNL     1       8.580   9.309  16.622  0.00  0.00    +0.000 HD
BRANCH  18  21
ATOM     21  C   UNL     1       9.487  11.153  17.893  0.00  0.00    +0.000 C 
ATOM     22  C   UNL     1       8.776  12.463  18.246  0.00  0.00    +0.000 C 
ATOM     23  C   UNL     1       9.898  13.377  17.889  0.00  0.00    +0.000 A 
ATOM     24  C   UNL     1       9.906  14.715  17.544  0.00  0.00    +0.000 A 
ATOM     25  C   UNL     1      11.136  15.308  17.235  0.00  0.00    +0.000 A 
ATOM     26  C   UNL     1      12.333  14.572  17.312  0.00  0.00    +0.000 A 
ATOM     27  C   UNL     1      12.313  13.228  17.683  0.00  0.00    +0.000 A 
ATOM     28  C   UNL     1      11.086  12.656  17.938  0.00  0.00    +0.000 A 
ATOM     29  O   UNL     1      10.897  11.324  18.208  0.00  0.00    +0.000 OA
ENDBRANCH  18  21
ENDBRANCH   1  19
TORSDOF 3
ENDMDL
MODEL 7
REMARK VINA RESULT:      -8.8      1.839      2.818
REMARK  Name = 
REMARK  3 active torsions:
REMARK  status: ('A' for Active; 'I' for Inactive)
REMARK    1  A    between atoms: C_2  and  C_20
REMARK    2  A    between atoms: N_3  and  C_4
REMARK    3  A    between atoms: C_7  and  C_8
REMARK                            x       y       z     vdW  Elec       q    Type
REMARK                         _______ _______ _______ _____ _____    ______ ____
ROOT
ATOM      1  C   UNL     1       1.147   9.218  19.757  0.00  0.00    +0.000 A 
ATOM      2  C   UNL     1       1.491   9.236  18.408  0.00  0.00    +0.000 A 
ATOM      3  C   UNL     1       2.127   8.124  17.826  0.00  0.00    +0.000 A 
ATOM      4  C   UNL     1       2.418   6.972  18.576  0.00  0.00    +0.000 A 
ATOM      5  C   UNL     1       2.145   7.006  19.946  0.00  0.00    +0.000 A 
ATOM      6  C   UNL     1       1.508   8.108  20.527  0.00  0.00    +0.000 A 
ENDROOT
BRANCH   4   7
ATOM      7  C   UNL     1       2.995   5.790  17.919  0.00  0.00    +0.000 A 
ATOM      8  N   UNL     1       2.416   4.605  17.849  0.00  0.00    +0.000 NA
ATOM      9  N   UNL     1       3.239   3.749  17.166  0.00  0.00    +0.000 NA
ATOM     10  C   UNL     1       4.337   4.398  16.838  0.00  0.00    +0.000 A 
ATOM     11  N   UNL     1       4.243   5.682  17.323  0.00  0.00    +0.000 N 
ATOM     12  C   UNL     1       5.269   6.704  17.265  0.00  0.00    +0.000 C 
ATOM     13  C   UNL     1       6.693   6.195  17.450  0.00  0.00    +0.000 C 
ATOM     14  C   UNL     1       7.303   5.592  16.186  0.00  0.00    +0.000 C 
ATOM     15  C   UNL     1       6.342   4.785  15.316  0.00  0.00    +0.000 C 
ATOM     16  C   UNL     1       5.490   3.795  16.103  0.00  0.00    +0.000 C 
ENDBRANCH   4   7
BRANCH   1  19
ATOM     17  O   UNL     1       1.075   9.986  22.668  0.00  0.00    +0.000 OA
ATOM     18  C   UNL     1       0.446  10.550  21.782  0.00  0.00    +0.000 C 
ATOM     19  N   UNL     1       0.487  10.262  20.424  0.00  0.00    +0.000 N 
ATOM     20  H   UNL     1       0.041  10.964  19.839  0.00  0.00    +0.000 HD
BRANCH  18  21
ATOM     21  C   UNL     1      -0.610  11.626  22.071  0.00  0.00    +0.000 C 
ATOM     22  C   UNL     1      -1.494  12.044  20.893  0.00  0.00    +0.000 C 
ATOM     23  C   UNL     1      -2.608  12.616  21.700  0.00  0.00    +0.000 A 
ATOM     24  C   UNL     1      -3.579  13.546  21.379  0.00  0.00    +0.000 A 
ATOM     25  C   UNL     1      -4.497  13.908  22.373  0.00  0.00    +0.000 A 
ATOM     26  C   UNL     1      -4.455  13.314  23.647  0.00  0.00    +0.000 A 
ATOM     27  C   UNL     1      -3.484  12.361  23.951  0.00  0.00    +0.000 A 
ATOM     28  C   UNL     1      -2.564  12.054  22.971  0.00  0.00    +0.000 A 
ATOM     29  O   UNL     1      -1.491  11.220  23.155  0.00  0.00    +0.000 OA
ENDBRANCH  18  21
ENDBRANCH   1  19
TORSDOF 3
ENDMDL
MODEL 8
REMARK VINA RESULT:      -8.8      1.243      1.633
REMARK  Name = 
REMARK  3 active torsions:
REMARK  status: ('A' for Active; 'I' for Inactive)
REMARK    1  A    between atoms: C_2  and  C_20
REMARK    2  A    between atoms: N_3  and  C_4
REMARK    3  A    between atoms: C_7  and  C_8
REMARK                            x       y       z     vdW  Elec       q    Type
REMARK                         _______ _______ _______ _____ _____    ______ ____
ROOT
ATOM      1  C   UNL     1       0.454   9.652  19.947  0.00  0.00    +0.000 A 
ATOM      2  C   UNL     1       0.799   9.810  18.607  0.00  0.00    +0.000 A 
ATOM      3  C   UNL     1       1.713   8.927  18.003  0.00  0.00    +0.000 A 
ATOM      4  C   UNL     1       2.287   7.865  18.722  0.00  0.00    +0.000 A 
ATOM      5  C   UNL     1       1.998   7.774  20.086  0.00  0.00    +0.000 A 
ATOM      6  C   UNL     1       1.085   8.648  20.688  0.00  0.00    +0.000 A 
ENDROOT
BRANCH   4   7
ATOM      7  C   UNL     1       3.164   6.902  18.040  0.00  0.00    +0.000 A 
ATOM      8  N   UNL     1       4.206   7.221  17.295  0.00  0.00    +0.000 NA
ATOM      9  N   UNL     1       4.785   6.073  16.823  0.00  0.00    +0.000 NA
ATOM     10  C   UNL     1       4.084   5.046  17.256  0.00  0.00    +0.000 A 
ATOM     11  N   UNL     1       3.029   5.522  18.000  0.00  0.00    +0.000 N 
ATOM     12  C   UNL     1       1.961   4.736  18.585  0.00  0.00    +0.000 C 
ATOM     13  C   UNL     1       1.494   3.557  17.739  0.00  0.00    +0.000 C 
ATOM     14  C   UNL     1       2.385   2.324  17.852  0.00  0.00    +0.000 C 
ATOM     15  C   UNL     1       3.883   2.605  17.955  0.00  0.00    +0.000 C 
ATOM     16  C   UNL     1       4.386   3.617  16.933  0.00  0.00    +0.000 C 
ENDBRANCH   4   7
BRANCH   1  19
ATOM     17  O   UNL     1       0.839  12.130  21.613  0.00  0.00    +0.000 OA
ATOM     18  C   UNL     1      -0.236  11.573  21.430  0.00  0.00    +0.000 C 
ATOM     19  N   UNL     1      -0.467  10.460  20.632  0.00  0.00    +0.000 N 
ATOM     20  H   UNL     1      -1.451  10.270  20.463  0.00  0.00    +0.000 HD
BRANCH  18  21
ATOM     21  C   UNL     1      -1.514  11.971  22.179  0.00  0.00    +0.000 C 
ATOM     22  C   UNL     1      -1.396  13.151  23.147  0.00  0.00    +0.000 C 
ATOM     23  C   UNL     1      -2.845  13.491  23.194  0.00  0.00    +0.000 A 
ATOM     24  C   UNL     1      -3.592  14.164  24.143  0.00  0.00    +0.000 A 
ATOM     25  C   UNL     1      -4.966  14.313  23.915  0.00  0.00    +0.000 A 
ATOM     26  C   UNL     1      -5.561  13.826  22.737  0.00  0.00    +0.000 A 
ATOM     27  C   UNL     1      -4.792  13.167  21.778  0.00  0.00    +0.000 A 
ATOM     28  C   UNL     1      -3.452  12.993  22.046  0.00  0.00    +0.000 A 
ATOM     29  O   UNL     1      -2.594  12.274  21.252  0.00  0.00    +0.000 OA
ENDBRANCH  18  21
ENDBRANCH   1  19
TORSDOF 3
ENDMDL
MODEL 9
REMARK VINA RESULT:      -8.7      3.859     10.680
REMARK  Name = 
REMARK  3 active torsions:
REMARK  status: ('A' for Active; 'I' for Inactive)
REMARK    1  A    between atoms: C_2  and  C_20
REMARK    2  A    between atoms: N_3  and  C_4
REMARK    3  A    between atoms: C_7  and  C_8
REMARK                            x       y       z     vdW  Elec       q    Type
REMARK                         _______ _______ _______ _____ _____    ______ ____
ROOT
ATOM      1  C   UNL     1       3.353   6.650  18.130  0.00  0.00    +0.000 A 
ATOM      2  C   UNL     1       2.928   7.931  17.784  0.00  0.00    +0.000 A 
ATOM      3  C   UNL     1       2.145   8.682  18.679  0.00  0.00    +0.000 A 
ATOM      4  C   UNL     1       1.783   8.174  19.937  0.00  0.00    +0.000 A 
ATOM      5  C   UNL     1       2.142   6.856  20.232  0.00  0.00    +0.000 A 
ATOM      6  C   UNL     1       2.925   6.108  19.347  0.00  0.00    +0.000 A 
ENDROOT
BRANCH   4   7
ATOM      7  C   UNL     1       1.045   9.018  20.889  0.00  0.00    +0.000 A 
ATOM      8  N   UNL     1       1.068   8.877  22.202  0.00  0.00    +0.000 NA
ATOM      9  N   UNL     1       0.268   9.834  22.766  0.00  0.00    +0.000 NA
ATOM     10  C   UNL     1      -0.269  10.551  21.801  0.00  0.00    +0.000 A 
ATOM     11  N   UNL     1       0.166  10.050  20.595  0.00  0.00    +0.000 N 
ATOM     12  C   UNL     1      -0.254  10.485  19.277  0.00  0.00    +0.000 C 
ATOM     13  C   UNL     1      -1.724  10.869  19.167  0.00  0.00    +0.000 C 
ATOM     14  C   UNL     1      -2.034  12.277  19.667  0.00  0.00    +0.000 C 
ATOM     15  C   UNL     1      -1.251  12.722  20.901  0.00  0.00    +0.000 C 
ATOM     16  C   UNL     1      -1.224  11.681  22.014  0.00  0.00    +0.000 C 
ENDBRANCH   4   7
BRANCH   1  19
ATOM     17  O   UNL     1       6.270   5.930  18.317  0.00  0.00    +0.000 OA
ATOM     18  C   UNL     1       5.518   5.566  17.422  0.00  0.00    +0.000 C 
ATOM     19  N   UNL     1       4.159   5.833  17.322  0.00  0.00    +0.000 N 
ATOM     20  H   UNL     1       3.682   5.285  16.611  0.00  0.00    +0.000 HD
BRANCH  18  21
ATOM     21  C   UNL     1       6.014   4.831  16.170  0.00  0.00    +0.000 C 
ATOM     22  C   UNL     1       4.938   4.207  15.277  0.00  0.00    +0.000 C 
ATOM     23  C   UNL     1       5.761   4.118  14.039  0.00  0.00    +0.000 A 
ATOM     24  C   UNL     1       5.645   3.307  12.925  0.00  0.00    +0.000 A 
ATOM     25  C   UNL     1       6.601   3.441  11.911  0.00  0.00    +0.000 A 
ATOM     26  C   UNL     1       7.627   4.399  12.006  0.00  0.00    +0.000 A 
ATOM     27  C   UNL     1       7.720   5.225  13.125  0.00  0.00    +0.000 A 
ATOM     28  C   UNL     1       6.795   5.043  14.130  0.00  0.00    +0.000 A 
ATOM     29  O   UNL     1       6.823   5.703  15.333  0.00  0.00    +0.000 OA
ENDBRANCH  18  21
ENDBRANCH   1  19
TORSDOF 3
ENDMDL
