MODEL 1
REMARK VINA RESULT:      -8.5      0.000      0.000
REMARK  Name = 
REMARK  6 active torsions:
REMARK  status: ('A' for Active; 'I' for Inactive)
REMARK    1  A    between atoms: C_2  and  C_15
REMARK    2  A    between atoms: N_3  and  C_4
REMARK    3  A    between atoms: C_4  and  C_5
REMARK    4  A    between atoms: C_5  and  C_6
REMARK    5  A    between atoms: N_20  and  C_21
REMARK    6  A    between atoms: C_21  and  C_22
REMARK                            x       y       z     vdW  Elec       q    Type
REMARK                         _______ _______ _______ _____ _____    ______ ____
ROOT
ATOM      1  O   UNL     1       2.613   7.026  18.079  0.00  0.00    +0.000 OA
ATOM      2  C   UNL     1       2.371   6.990  19.277  0.00  0.00    +0.000 C 
ATOM      3  N   UNL     1       2.689   5.925  20.102  0.00  0.00    +0.000 N 
ATOM      4  H   UNL     1       2.318   5.913  21.047  0.00  0.00    +0.000 HD
ENDROOT
BRANCH   2   5
ATOM      5  C   UNL     1       1.662   8.180  19.936  0.00  0.00    +0.000 A 
ATOM      6  C   UNL     1       1.567   8.144  21.409  0.00  0.00    +0.000 A 
ATOM      7  C   UNL     1       1.106   9.245  22.002  0.00  0.00    +0.000 A 
ATOM      8  C   UNL     1       0.644  10.410  21.208  0.00  0.00    +0.000 A 
ATOM      9  O   UNL     1       0.260  11.408  21.796  0.00  0.00    +0.000 OA
ATOM     10  N   UNL     1       0.649  10.240  19.825  0.00  0.00    +0.000 N 
ATOM     11  N   UNL     1       1.206   9.137  19.181  0.00  0.00    +0.000 NA
BRANCH  10  12
ATOM     12  C   UNL     1       0.090  11.311  18.987  0.00  0.00    +0.000 C 
BRANCH  12  13
ATOM     13  C   UNL     1      -1.327  11.049  18.531  0.00  0.00    +0.000 A 
ATOM     14  C   UNL     1      -1.576  10.092  17.533  0.00  0.00    +0.000 A 
ATOM     15  C   UNL     1      -2.841   9.973  16.958  0.00  0.00    +0.000 A 
ATOM     16  C   UNL     1      -3.887  10.775  17.410  0.00  0.00    +0.000 A 
ATOM     17  C   UNL     1      -3.678  11.664  18.463  0.00  0.00    +0.000 A 
ATOM     18  C   UNL     1      -2.403  11.803  19.021  0.00  0.00    +0.000 A 
ENDBRANCH  12  13
ENDBRANCH  10  12
ENDBRANCH   2   5
BRANCH   3  19
ATOM     19  C   UNL     1       3.403   4.783  19.554  0.00  0.00    +0.000 C 
BRANCH  19  20
ATOM     20  C   UNL     1       4.924   4.902  19.671  0.00  0.00    +0.000 C 
BRANCH  20  21
ATOM     21  C   UNL     1       5.616   5.094  18.337  0.00  0.00    +0.000 A 
ATOM     22  C   UNL     1       6.612   6.085  18.176  0.00  0.00    +0.000 A 
ATOM     23  C   UNL     1       7.282   6.249  16.955  0.00  0.00    +0.000 A 
ATOM     24  C   UNL     1       6.938   5.414  15.915  0.00  0.00    +0.000 A 
ATOM     25  C   UNL     1       5.967   4.453  16.056  0.00  0.00    +0.000 A 
ATOM     26  C   UNL     1       5.290   4.269  17.246  0.00  0.00    +0.000 A 
ATOM     27  O   UNL     1       5.781   3.734  14.916  0.00  0.00    +0.000 OA
ATOM     28  C   UNL     1       6.731   4.369  14.035  0.00  0.00    +0.000 C 
ATOM     29  O   UNL     1       7.487   5.422  14.671  0.00  0.00    +0.000 OA
ENDBRANCH  20  21
ENDBRANCH  19  20
ENDBRANCH   3  19
TORSDOF 6
ENDMDL
MODEL 2
REMARK VINA RESULT:      -8.4      2.212      9.266
REMARK  Name = 
REMARK  6 active torsions:
REMARK  status: ('A' for Active; 'I' for Inactive)
REMARK    1  A    between atoms: C_2  and  C_15
REMARK    2  A    between atoms: N_3  and  C_4
REMARK    3  A    between atoms: C_4  and  C_5
REMARK    4  A    between atoms: C_5  and  C_6
REMARK    5  A    between atoms: N_20  and  C_21
REMARK    6  A    between atoms: C_21  and  C_22
REMARK                            x       y       z     vdW  Elec       q    Type
REMARK                         _______ _______ _______ _____ _____    ______ ____
ROOT
ATOM      1  O   UNL     1       1.168   7.826  21.499  0.00  0.00    +0.000 OA
ATOM      2  C   UNL     1       1.603   7.721  20.361  0.00  0.00    +0.000 C 
ATOM      3  N   UNL     1       1.550   8.729  19.414  0.00  0.00    +0.000 N 
ATOM      4  H   UNL     1       1.794   8.509  18.453  0.00  0.00    +0.000 HD
ENDROOT
BRANCH   2   5
ATOM      5  C   UNL     1       2.244   6.399  19.920  0.00  0.00    +0.000 A 
ATOM      6  C   UNL     1       1.878   5.206  20.708  0.00  0.00    +0.000 A 
ATOM      7  C   UNL     1       2.294   4.031  20.235  0.00  0.00    +0.000 A 
ATOM      8  C   UNL     1       3.145   3.948  19.023  0.00  0.00    +0.000 A 
ATOM      9  O   UNL     1       3.475   2.848  18.610  0.00  0.00    +0.000 OA
ATOM     10  N   UNL     1       3.538   5.167  18.475  0.00  0.00    +0.000 N 
ATOM     11  N   UNL     1       3.047   6.401  18.896  0.00  0.00    +0.000 NA
BRANCH  10  12
ATOM     12  C   UNL     1       4.479   5.155  17.346  0.00  0.00    +0.000 C 
BRANCH  12  13
ATOM     13  C   UNL     1       5.827   5.758  17.671  0.00  0.00    +0.000 A 
ATOM     14  C   UNL     1       6.603   5.220  18.711  0.00  0.00    +0.000 A 
ATOM     15  C   UNL     1       7.751   5.874  19.157  0.00  0.00    +0.000 A 
ATOM     16  C   UNL     1       8.166   7.050  18.535  0.00  0.00    +0.000 A 
ATOM     17  C   UNL     1       7.458   7.546  17.442  0.00  0.00    +0.000 A 
ATOM     18  C   UNL     1       6.291   6.905  17.011  0.00  0.00    +0.000 A 
ENDBRANCH  12  13
ENDBRANCH  10  12
ENDBRANCH   2   5
BRANCH   3  19
ATOM     19  C   UNL     1       0.997  10.025  19.776  0.00  0.00    +0.000 C 
BRANCH  19  20
ATOM     20  C   UNL     1       0.586  10.870  18.569  0.00  0.00    +0.000 C 
BRANCH  20  21
ATOM     21  C   UNL     1      -0.906  10.862  18.308  0.00  0.00    +0.000 A 
ATOM     22  C   UNL     1      -1.467   9.989  17.347  0.00  0.00    +0.000 A 
ATOM     23  C   UNL     1      -2.851   9.951  17.122  0.00  0.00    +0.000 A 
ATOM     24  C   UNL     1      -3.647  10.791  17.867  0.00  0.00    +0.000 A 
ATOM     25  C   UNL     1      -3.115  11.650  18.797  0.00  0.00    +0.000 A 
ATOM     26  C   UNL     1      -1.756  11.710  19.040  0.00  0.00    +0.000 A 
ATOM     27  O   UNL     1      -4.068  12.390  19.425  0.00  0.00    +0.000 OA
ATOM     28  C   UNL     1      -5.261  11.914  18.766  0.00  0.00    +0.000 C 
ATOM     29  O   UNL     1      -5.003  10.881  17.791  0.00  0.00    +0.000 OA
ENDBRANCH  20  21
ENDBRANCH  19  20
ENDBRANCH   3  19
TORSDOF 6
ENDMDL
MODEL 3
REMARK VINA RESULT:      -8.4      2.356      8.979
REMARK  Name = 
REMARK  6 active torsions:
REMARK  status: ('A' for Active; 'I' for Inactive)
REMARK    1  A    between atoms: C_2  and  C_15
REMARK    2  A    between atoms: N_3  and  C_4
REMARK    3  A    between atoms: C_4  and  C_5
REMARK    4  A    between atoms: C_5  and  C_6
REMARK    5  A    between atoms: N_20  and  C_21
REMARK    6  A    between atoms: C_21  and  C_22
REMARK                            x       y       z     vdW  Elec       q    Type
REMARK                         _______ _______ _______ _____ _____    ______ ____
ROOT
ATOM      1  O   UNL     1       2.364   8.785  17.604  0.00  0.00    +0.000 OA
ATOM      2  C   UNL     1       1.961   8.310  18.655  0.00  0.00    +0.000 C 
ATOM      3  N   UNL     1       1.251   9.020  19.608  0.00  0.00    +0.000 N 
ATOM      4  H   UNL     1       1.089   8.592  20.515  0.00  0.00    +0.000 HD
ENDROOT
BRANCH   2   5
ATOM      5  C   UNL     1       2.252   6.837  18.974  0.00  0.00    +0.000 A 
ATOM      6  C   UNL     1       2.016   6.416  20.369  0.00  0.00    +0.000 A 
ATOM      7  C   UNL     1       2.104   5.110  20.619  0.00  0.00    +0.000 A 
ATOM      8  C   UNL     1       2.495   4.149  19.558  0.00  0.00    +0.000 A 
ATOM      9  O   UNL     1       2.531   2.959  19.827  0.00  0.00    +0.000 OA
ATOM     10  N   UNL     1       2.838   4.710  18.330  0.00  0.00    +0.000 N 
ATOM     11  N   UNL     1       2.671   6.058  18.019  0.00  0.00    +0.000 NA
BRANCH  10  12
ATOM     12  C   UNL     1       3.349   3.824  17.275  0.00  0.00    +0.000 C 
BRANCH  12  13
ATOM     13  C   UNL     1       4.804   4.057  16.937  0.00  0.00    +0.000 A 
ATOM     14  C   UNL     1       5.727   4.323  17.962  0.00  0.00    +0.000 A 
ATOM     15  C   UNL     1       7.026   4.734  17.664  0.00  0.00    +0.000 A 
ATOM     16  C   UNL     1       7.434   4.835  16.336  0.00  0.00    +0.000 A 
ATOM     17  C   UNL     1       6.558   4.485  15.310  0.00  0.00    +0.000 A 
ATOM     18  C   UNL     1       5.247   4.099  15.607  0.00  0.00    +0.000 A 
ENDBRANCH  12  13
ENDBRANCH  10  12
ENDBRANCH   2   5
BRANCH   3  19
ATOM     19  C   UNL     1       0.899  10.407  19.352  0.00  0.00    +0.000 C 
BRANCH  19  20
ATOM     20  C   UNL     1      -0.470  10.801  19.910  0.00  0.00    +0.000 C 
BRANCH  20  21
ATOM     21  C   UNL     1      -1.550  10.885  18.850  0.00  0.00    +0.000 A 
ATOM     22  C   UNL     1      -2.713  11.661  19.062  0.00  0.00    +0.000 A 
ATOM     23  C   UNL     1      -3.701  11.772  18.074  0.00  0.00    +0.000 A 
ATOM     24  C   UNL     1      -3.506  11.099  16.889  0.00  0.00    +0.000 A 
ATOM     25  C   UNL     1      -2.385  10.335  16.673  0.00  0.00    +0.000 A 
ATOM     26  C   UNL     1      -1.394  10.207  17.627  0.00  0.00    +0.000 A 
ATOM     27  O   UNL     1      -2.382   9.757  15.441  0.00  0.00    +0.000 OA
ATOM     28  C   UNL     1      -3.640  10.228  14.916  0.00  0.00    +0.000 C 
ATOM     29  O   UNL     1      -4.349  11.100  15.822  0.00  0.00    +0.000 OA
ENDBRANCH  20  21
ENDBRANCH  19  20
ENDBRANCH   3  19
TORSDOF 6
ENDMDL
MODEL 4
REMARK VINA RESULT:      -8.4      2.367      8.921
REMARK  Name = 
REMARK  6 active torsions:
REMARK  status: ('A' for Active; 'I' for Inactive)
REMARK    1  A    between atoms: C_2  and  C_15
REMARK    2  A    between atoms: N_3  and  C_4
REMARK    3  A    between atoms: C_4  and  C_5
REMARK    4  A    between atoms: C_5  and  C_6
REMARK    5  A    between atoms: N_20  and  C_21
REMARK    6  A    between atoms: C_21  and  C_22
REMARK                            x       y       z     vdW  Elec       q    Type
REMARK                         _______ _______ _______ _____ _____    ______ ____
ROOT
ATOM      1  O   UNL     1       2.557   8.178  17.694  0.00  0.00    +0.000 OA
ATOM      2  C   UNL     1       2.163   7.805  18.789  0.00  0.00    +0.000 C 
ATOM      3  N   UNL     1       1.465   8.606  19.677  0.00  0.00    +0.000 N 
ATOM      4  H   UNL     1       1.309   8.266  20.622  0.00  0.00    +0.000 HD
ENDROOT
BRANCH   2   5
ATOM      5  C   UNL     1       2.450   6.368  19.243  0.00  0.00    +0.000 A 
ATOM      6  C   UNL     1       1.941   5.994  20.577  0.00  0.00    +0.000 A 
ATOM      7  C   UNL     1       2.036   4.707  20.911  0.00  0.00    +0.000 A 
ATOM      8  C   UNL     1       2.692   3.727  20.012  0.00  0.00    +0.000 A 
ATOM      9  O   UNL     1       2.728   2.554  20.347  0.00  0.00    +0.000 OA
ATOM     10  N   UNL     1       3.263   4.254  18.856  0.00  0.00    +0.000 N 
ATOM     11  N   UNL     1       3.101   5.574  18.442  0.00  0.00    +0.000 NA
BRANCH  10  12
ATOM     12  C   UNL     1       4.032   3.355  17.984  0.00  0.00    +0.000 C 
BRANCH  12  13
ATOM     13  C   UNL     1       5.079   4.062  17.152  0.00  0.00    +0.000 A 
ATOM     14  C   UNL     1       4.899   4.197  15.766  0.00  0.00    +0.000 A 
ATOM     15  C   UNL     1       5.931   4.665  14.954  0.00  0.00    +0.000 A 
ATOM     16  C   UNL     1       7.141   5.053  15.525  0.00  0.00    +0.000 A 
ATOM     17  C   UNL     1       7.303   5.012  16.909  0.00  0.00    +0.000 A 
ATOM     18  C   UNL     1       6.277   4.516  17.722  0.00  0.00    +0.000 A 
ENDBRANCH  12  13
ENDBRANCH  10  12
ENDBRANCH   2   5
BRANCH   3  19
ATOM     19  C   UNL     1       1.117   9.965  19.295  0.00  0.00    +0.000 C 
BRANCH  19  20
ATOM     20  C   UNL     1      -0.175  10.468  19.942  0.00  0.00    +0.000 C 
BRANCH  20  21
ATOM     21  C   UNL     1      -1.293  10.707  18.948  0.00  0.00    +0.000 A 
ATOM     22  C   UNL     1      -2.353  11.594  19.251  0.00  0.00    +0.000 A 
ATOM     23  C   UNL     1      -3.374  11.846  18.325  0.00  0.00    +0.000 A 
ATOM     24  C   UNL     1      -3.315  11.203  17.109  0.00  0.00    +0.000 A 
ATOM     25  C   UNL     1      -2.296  10.333  16.805  0.00  0.00    +0.000 A 
ATOM     26  C   UNL     1      -1.276  10.064  17.698  0.00  0.00    +0.000 A 
ATOM     27  O   UNL     1      -2.419   9.807  15.557  0.00  0.00    +0.000 OA
ATOM     28  C   UNL     1      -3.646  10.428  15.119  0.00  0.00    +0.000 C 
ATOM     29  O   UNL     1      -4.207  11.335  16.091  0.00  0.00    +0.000 OA
ENDBRANCH  20  21
ENDBRANCH  19  20
ENDBRANCH   3  19
TORSDOF 6
ENDMDL
MODEL 5
REMARK VINA RESULT:      -8.4      0.653      1.307
REMARK  Name = 
REMARK  6 active torsions:
REMARK  status: ('A' for Active; 'I' for Inactive)
REMARK    1  A    between atoms: C_2  and  C_15
REMARK    2  A    between atoms: N_3  and  C_4
REMARK    3  A    between atoms: C_4  and  C_5
REMARK    4  A    between atoms: C_5  and  C_6
REMARK    5  A    between atoms: N_20  and  C_21
REMARK    6  A    between atoms: C_21  and  C_22
REMARK                            x       y       z     vdW  Elec       q    Type
REMARK                         _______ _______ _______ _____ _____    ______ ____
ROOT
ATOM      1  O   UNL     1       2.298   6.440  18.099  0.00  0.00    +0.000 OA
ATOM      2  C   UNL     1       2.488   6.717  19.274  0.00  0.00    +0.000 C 
ATOM      3  N   UNL     1       3.306   5.990  20.122  0.00  0.00    +0.000 N 
ATOM      4  H   UNL     1       3.288   6.199  21.115  0.00  0.00    +0.000 HD
ENDROOT
BRANCH   2   5
ATOM      5  C   UNL     1       1.784   7.937  19.882  0.00  0.00    +0.000 A 
ATOM      6  C   UNL     1       1.638   7.938  21.351  0.00  0.00    +0.000 A 
ATOM      7  C   UNL     1       1.182   9.062  21.903  0.00  0.00    +0.000 A 
ATOM      8  C   UNL     1       0.772  10.217  21.067  0.00  0.00    +0.000 A 
ATOM      9  O   UNL     1       0.389  11.237  21.619  0.00  0.00    +0.000 OA
ATOM     10  N   UNL     1       0.818  10.014  19.689  0.00  0.00    +0.000 N 
ATOM     11  N   UNL     1       1.373   8.885  19.089  0.00  0.00    +0.000 NA
BRANCH  10  12
ATOM     12  C   UNL     1       0.311  11.076  18.809  0.00  0.00    +0.000 C 
BRANCH  12  13
ATOM     13  C   UNL     1      -1.136  10.896  18.410  0.00  0.00    +0.000 A 
ATOM     14  C   UNL     1      -1.476   9.976  17.404  0.00  0.00    +0.000 A 
ATOM     15  C   UNL     1      -2.769   9.933  16.884  0.00  0.00    +0.000 A 
ATOM     16  C   UNL     1      -3.752  10.775  17.398  0.00  0.00    +0.000 A 
ATOM     17  C   UNL     1      -3.453  11.628  18.458  0.00  0.00    +0.000 A 
ATOM     18  C   UNL     1      -2.150  11.692  18.963  0.00  0.00    +0.000 A 
ENDBRANCH  12  13
ENDBRANCH  10  12
ENDBRANCH   2   5
BRANCH   3  19
ATOM     19  C   UNL     1       4.041   4.848  19.602  0.00  0.00    +0.000 C 
BRANCH  19  20
ATOM     20  C   UNL     1       5.438   5.206  19.088  0.00  0.00    +0.000 C 
BRANCH  20  21
ATOM     21  C   UNL     1       5.645   4.870  17.625  0.00  0.00    +0.000 A 
ATOM     22  C   UNL     1       4.743   4.021  16.943  0.00  0.00    +0.000 A 
ATOM     23  C   UNL     1       4.908   3.731  15.582  0.00  0.00    +0.000 A 
ATOM     24  C   UNL     1       5.979   4.298  14.928  0.00  0.00    +0.000 A 
ATOM     25  C   UNL     1       6.867   5.117  15.580  0.00  0.00    +0.000 A 
ATOM     26  C   UNL     1       6.730   5.421  16.921  0.00  0.00    +0.000 A 
ATOM     27  O   UNL     1       7.849   5.576  14.757  0.00  0.00    +0.000 OA
ATOM     28  C   UNL     1       7.489   4.932  13.517  0.00  0.00    +0.000 C 
ATOM     29  O   UNL     1       6.287   4.137  13.613  0.00  0.00    +0.000 OA
ENDBRANCH  20  21
ENDBRANCH  19  20
ENDBRANCH   3  19
TORSDOF 6
ENDMDL
MODEL 6
REMARK VINA RESULT:      -8.3      5.307      8.444
REMARK  Name = 
REMARK  6 active torsions:
REMARK  status: ('A' for Active; 'I' for Inactive)
REMARK    1  A    between atoms: C_2  and  C_15
REMARK    2  A    between atoms: N_3  and  C_4
REMARK    3  A    between atoms: C_4  and  C_5
REMARK    4  A    between atoms: C_5  and  C_6
REMARK    5  A    between atoms: N_20  and  C_21
REMARK    6  A    between atoms: C_21  and  C_22
REMARK                            x       y       z     vdW  Elec       q    Type
REMARK                         _______ _______ _______ _____ _____    ______ ____
ROOT
ATOM      1  O   UNL     1       8.216   6.124  18.970  0.00  0.00    +0.000 OA
ATOM      2  C   UNL     1       7.418   6.648  18.207  0.00  0.00    +0.000 C 
ATOM      3  N   UNL     1       7.456   7.982  17.840  0.00  0.00    +0.000 N 
ATOM      4  H   UNL     1       6.670   8.369  17.325  0.00  0.00    +0.000 HD
ENDROOT
BRANCH   2   5
ATOM      5  C   UNL     1       6.287   5.804  17.606  0.00  0.00    +0.000 A 
ATOM      6  C   UNL     1       6.685   4.818  16.582  0.00  0.00    +0.000 A 
ATOM      7  C   UNL     1       5.742   3.968  16.176  0.00  0.00    +0.000 A 
ATOM      8  C   UNL     1       4.350   4.067  16.678  0.00  0.00    +0.000 A 
ATOM      9  O   UNL     1       3.529   3.246  16.302  0.00  0.00    +0.000 OA
ATOM     10  N   UNL     1       4.087   5.143  17.523  0.00  0.00    +0.000 N 
ATOM     11  N   UNL     1       5.070   5.991  18.030  0.00  0.00    +0.000 NA
BRANCH  10  12
ATOM     12  C   UNL     1       2.701   5.367  17.959  0.00  0.00    +0.000 C 
BRANCH  12  13
ATOM     13  C   UNL     1       2.259   4.448  19.075  0.00  0.00    +0.000 A 
ATOM     14  C   UNL     1       1.291   3.460  18.827  0.00  0.00    +0.000 A 
ATOM     15  C   UNL     1       0.726   2.736  19.876  0.00  0.00    +0.000 A 
ATOM     16  C   UNL     1       1.158   2.954  21.182  0.00  0.00    +0.000 A 
ATOM     17  C   UNL     1       2.183   3.865  21.433  0.00  0.00    +0.000 A 
ATOM     18  C   UNL     1       2.731   4.612  20.385  0.00  0.00    +0.000 A 
ENDBRANCH  12  13
ENDBRANCH  10  12
ENDBRANCH   2   5
BRANCH   3  19
ATOM     19  C   UNL     1       8.528   8.831  18.335  0.00  0.00    +0.000 C 
BRANCH  19  20
ATOM     20  C   UNL     1       8.568  10.209  17.671  0.00  0.00    +0.000 C 
BRANCH  20  21
ATOM     21  C   UNL     1       9.292  11.254  18.497  0.00  0.00    +0.000 A 
ATOM     22  C   UNL     1       9.773  10.947  19.791  0.00  0.00    +0.000 A 
ATOM     23  C   UNL     1      10.472  11.897  20.549  0.00  0.00    +0.000 A 
ATOM     24  C   UNL     1      10.676  13.140  19.994  0.00  0.00    +0.000 A 
ATOM     25  C   UNL     1      10.207  13.454  18.742  0.00  0.00    +0.000 A 
ATOM     26  C   UNL     1       9.514  12.539  17.972  0.00  0.00    +0.000 A 
ATOM     27  O   UNL     1      10.515  14.728  18.378  0.00  0.00    +0.000 OA
ATOM     28  C   UNL     1      11.212  15.187  19.555  0.00  0.00    +0.000 C 
ATOM     29  O   UNL     1      11.338  14.175  20.576  0.00  0.00    +0.000 OA
ENDBRANCH  20  21
ENDBRANCH  19  20
ENDBRANCH   3  19
TORSDOF 6
ENDMDL
MODEL 7
REMARK VINA RESULT:      -8.2      2.214      9.197
REMARK  Name = 
REMARK  6 active torsions:
REMARK  status: ('A' for Active; 'I' for Inactive)
REMARK    1  A    between atoms: C_2  and  C_15
REMARK    2  A    between atoms: N_3  and  C_4
REMARK    3  A    between atoms: C_4  and  C_5
REMARK    4  A    between atoms: C_5  and  C_6
REMARK    5  A    between atoms: N_20  and  C_21
REMARK    6  A    between atoms: C_21  and  C_22
REMARK                            x       y       z     vdW  Elec       q    Type
REMARK                         _______ _______ _______ _____ _____    ______ ____
ROOT
ATOM      1  O   UNL     1       2.547   7.508  19.502  0.00  0.00    +0.000 OA
ATOM      2  C   UNL     1       2.794   7.595  18.309  0.00  0.00    +0.000 C 
ATOM      3  N   UNL     1       2.440   8.675  17.519  0.00  0.00    +0.000 N 
ATOM      4  H   UNL     1       2.548   8.600  16.512  0.00  0.00    +0.000 HD
ENDROOT
BRANCH   2   5
ATOM      5  C   UNL     1       3.536   6.449  17.609  0.00  0.00    +0.000 A 
ATOM      6  C   UNL     1       4.528   6.844  16.590  0.00  0.00    +0.000 A 
ATOM      7  C   UNL     1       5.295   5.871  16.097  0.00  0.00    +0.000 A 
ATOM      8  C   UNL     1       5.098   4.458  16.503  0.00  0.00    +0.000 A 
ATOM      9  O   UNL     1       5.845   3.606  16.049  0.00  0.00    +0.000 OA
ATOM     10  N   UNL     1       4.022   4.217  17.354  0.00  0.00    +0.000 N 
ATOM     11  N   UNL     1       3.264   5.223  17.951  0.00  0.00    +0.000 NA
BRANCH  10  12
ATOM     12  C   UNL     1       3.700   2.825  17.698  0.00  0.00    +0.000 C 
BRANCH  12  13
ATOM     13  C   UNL     1       2.870   2.684  18.953  0.00  0.00    +0.000 A 
ATOM     14  C   UNL     1       1.468   2.705  18.872  0.00  0.00    +0.000 A 
ATOM     15  C   UNL     1       0.687   2.775  20.026  0.00  0.00    +0.000 A 
ATOM     16  C   UNL     1       1.298   2.774  21.278  0.00  0.00    +0.000 A 
ATOM     17  C   UNL     1       2.683   2.661  21.377  0.00  0.00    +0.000 A 
ATOM     18  C   UNL     1       3.469   2.618  20.220  0.00  0.00    +0.000 A 
ENDBRANCH  12  13
ENDBRANCH  10  12
ENDBRANCH   2   5
BRANCH   3  19
ATOM     19  C   UNL     1       1.776   9.818  18.125  0.00  0.00    +0.000 C 
BRANCH  19  20
ATOM     20  C   UNL     1       0.249   9.732  18.076  0.00  0.00    +0.000 C 
BRANCH  20  21
ATOM     21  C   UNL     1      -0.437  10.597  19.113  0.00  0.00    +0.000 A 
ATOM     22  C   UNL     1      -1.571  11.372  18.774  0.00  0.00    +0.000 A 
ATOM     23  C   UNL     1      -2.231  12.150  19.735  0.00  0.00    +0.000 A 
ATOM     24  C   UNL     1      -1.741  12.138  21.022  0.00  0.00    +0.000 A 
ATOM     25  C   UNL     1      -0.636  11.397  21.363  0.00  0.00    +0.000 A 
ATOM     26  C   UNL     1       0.036  10.621  20.438  0.00  0.00    +0.000 A 
ATOM     27  O   UNL     1      -0.317  11.518  22.680  0.00  0.00    +0.000 OA
ATOM     28  C   UNL     1      -1.335  12.439  23.123  0.00  0.00    +0.000 C 
ATOM     29  O   UNL     1      -2.258  12.819  22.080  0.00  0.00    +0.000 OA
ENDBRANCH  20  21
ENDBRANCH  19  20
ENDBRANCH   3  19
TORSDOF 6
ENDMDL
MODEL 8
REMARK VINA RESULT:      -8.1      2.829      9.756
REMARK  Name = 
REMARK  6 active torsions:
REMARK  status: ('A' for Active; 'I' for Inactive)
REMARK    1  A    between atoms: C_2  and  C_15
REMARK    2  A    between atoms: N_3  and  C_4
REMARK    3  A    between atoms: C_4  and  C_5
REMARK    4  A    between atoms: C_5  and  C_6
REMARK    5  A    between atoms: N_20  and  C_21
REMARK    6  A    between atoms: C_21  and  C_22
REMARK                            x       y       z     vdW  Elec       q    Type
REMARK                         _______ _______ _______ _____ _____    ______ ____
ROOT
ATOM      1  O   UNL     1       1.976   8.175  19.163  0.00  0.00    +0.000 OA
ATOM      2  C   UNL     1       1.956   7.399  20.107  0.00  0.00    +0.000 C 
ATOM      3  N   UNL     1       1.740   7.779  21.421  0.00  0.00    +0.000 N 
ATOM      4  H   UNL     1       1.891   7.096  22.157  0.00  0.00    +0.000 HD
ENDROOT
BRANCH   2   5
ATOM      5  C   UNL     1       2.193   5.904  19.856  0.00  0.00    +0.000 A 
ATOM      6  C   UNL     1       1.863   4.998  20.973  0.00  0.00    +0.000 A 
ATOM      7  C   UNL     1       1.904   3.692  20.712  0.00  0.00    +0.000 A 
ATOM      8  C   UNL     1       2.336   3.187  19.386  0.00  0.00    +0.000 A 
ATOM      9  O   UNL     1       2.327   1.983  19.183  0.00  0.00    +0.000 OA
ATOM     10  N   UNL     1       2.766   4.154  18.480  0.00  0.00    +0.000 N 
ATOM     11  N   UNL     1       2.649   5.526  18.697  0.00  0.00    +0.000 NA
BRANCH  10  12
ATOM     12  C   UNL     1       3.319   3.711  17.193  0.00  0.00    +0.000 C 
BRANCH  12  13
ATOM     13  C   UNL     1       4.739   4.170  16.950  0.00  0.00    +0.000 A 
ATOM     14  C   UNL     1       5.209   4.328  15.637  0.00  0.00    +0.000 A 
ATOM     15  C   UNL     1       6.562   4.558  15.385  0.00  0.00    +0.000 A 
ATOM     16  C   UNL     1       7.453   4.684  16.448  0.00  0.00    +0.000 A 
ATOM     17  C   UNL     1       6.986   4.622  17.760  0.00  0.00    +0.000 A 
ATOM     18  C   UNL     1       5.635   4.364  18.012  0.00  0.00    +0.000 A 
ENDBRANCH  12  13
ENDBRANCH  10  12
ENDBRANCH   2   5
BRANCH   3  19
ATOM     19  C   UNL     1       1.463   9.173  21.727  0.00  0.00    +0.000 C 
BRANCH  19  20
ATOM     20  C   UNL     1       0.274   9.364  22.671  0.00  0.00    +0.000 C 
BRANCH  20  21
ATOM     21  C   UNL     1      -0.629  10.515  22.277  0.00  0.00    +0.000 A 
ATOM     22  C   UNL     1      -0.630  11.013  20.953  0.00  0.00    +0.000 A 
ATOM     23  C   UNL     1      -1.486  12.056  20.571  0.00  0.00    +0.000 A 
ATOM     24  C   UNL     1      -2.325  12.583  21.527  0.00  0.00    +0.000 A 
ATOM     25  C   UNL     1      -2.328  12.115  22.818  0.00  0.00    +0.000 A 
ATOM     26  C   UNL     1      -1.496  11.089  23.224  0.00  0.00    +0.000 A 
ATOM     27  O   UNL     1      -3.230  12.765  23.603  0.00  0.00    +0.000 OA
ATOM     28  C   UNL     1      -3.778  13.711  22.661  0.00  0.00    +0.000 C 
ATOM     29  O   UNL     1      -3.224  13.585  21.334  0.00  0.00    +0.000 OA
ENDBRANCH  20  21
ENDBRANCH  19  20
ENDBRANCH   3  19
TORSDOF 6
ENDMDL
MODEL 9
REMARK VINA RESULT:      -8.1      1.351      2.212
REMARK  Name = 
REMARK  6 active torsions:
REMARK  status: ('A' for Active; 'I' for Inactive)
REMARK    1  A    between atoms: C_2  and  C_15
REMARK    2  A    between atoms: N_3  and  C_4
REMARK    3  A    between atoms: C_4  and  C_5
REMARK    4  A    between atoms: C_5  and  C_6
REMARK    5  A    between atoms: N_20  and  C_21
REMARK    6  A    between atoms: C_21  and  C_22
REMARK                            x       y       z     vdW  Elec       q    Type
REMARK                         _______ _______ _______ _____ _____    ______ ____
ROOT
ATOM      1  O   UNL     1       2.781   7.427  19.581  0.00  0.00    +0.000 OA
ATOM      2  C   UNL     1       1.870   7.356  20.392  0.00  0.00    +0.000 C 
ATOM      3  N   UNL     1       1.509   6.197  21.056  0.00  0.00    +0.000 N 
ATOM      4  H   UNL     1       0.648   6.191  21.595  0.00  0.00    +0.000 HD
ENDROOT
BRANCH   2   5
ATOM      5  C   UNL     1       1.047   8.612  20.709  0.00  0.00    +0.000 A 
ATOM      6  C   UNL     1       0.643   8.784  22.119  0.00  0.00    +0.000 A 
ATOM      7  C   UNL     1       0.076   9.948  22.437  0.00  0.00    +0.000 A 
ATOM      8  C   UNL     1      -0.199  10.977  21.404  0.00  0.00    +0.000 A 
ATOM      9  O   UNL     1      -0.691  12.039  21.749  0.00  0.00    +0.000 OA
ATOM     10  N   UNL     1       0.096  10.611  20.093  0.00  0.00    +0.000 N 
ATOM     11  N   UNL     1       0.768   9.441  19.745  0.00  0.00    +0.000 NA
BRANCH  10  12
ATOM     12  C   UNL     1      -0.265  11.539  19.011  0.00  0.00    +0.000 C 
BRANCH  12  13
ATOM     13  C   UNL     1      -1.609  11.248  18.383  0.00  0.00    +0.000 A 
ATOM     14  C   UNL     1      -2.747  11.952  18.808  0.00  0.00    +0.000 A 
ATOM     15  C   UNL     1      -4.022  11.569  18.390  0.00  0.00    +0.000 A 
ATOM     16  C   UNL     1      -4.170  10.507  17.501  0.00  0.00    +0.000 A 
ATOM     17  C   UNL     1      -3.044   9.857  16.999  0.00  0.00    +0.000 A 
ATOM     18  C   UNL     1      -1.767  10.223  17.439  0.00  0.00    +0.000 A 
ENDBRANCH  12  13
ENDBRANCH  10  12
ENDBRANCH   2   5
BRANCH   3  19
ATOM     19  C   UNL     1       2.274   4.979  20.839  0.00  0.00    +0.000 C 
BRANCH  19  20
ATOM     20  C   UNL     1       2.061   4.365  19.454  0.00  0.00    +0.000 C 
BRANCH  20  21
ATOM     21  C   UNL     1       3.326   4.302  18.623  0.00  0.00    +0.000 A 
ATOM     22  C   UNL     1       3.266   4.033  17.235  0.00  0.00    +0.000 A 
ATOM     23  C   UNL     1       4.429   4.005  16.452  0.00  0.00    +0.000 A 
ATOM     24  C   UNL     1       5.632   4.246  17.076  0.00  0.00    +0.000 A 
ATOM     25  C   UNL     1       5.705   4.501  18.423  0.00  0.00    +0.000 A 
ATOM     26  C   UNL     1       4.577   4.535  19.221  0.00  0.00    +0.000 A 
ATOM     27  O   UNL     1       6.981   4.716  18.842  0.00  0.00    +0.000 OA
ATOM     28  C   UNL     1       7.706   4.545  17.606  0.00  0.00    +0.000 C 
ATOM     29  O   UNL     1       6.852   4.270  16.475  0.00  0.00    +0.000 OA
ENDBRANCH  20  21
ENDBRANCH  19  20
ENDBRANCH   3  19
TORSDOF 6
ENDMDL
