MODEL 1
REMARK VINA RESULT:      -8.0      0.000      0.000
REMARK  Name = 
REMARK  5 active torsions:
REMARK  status: ('A' for Active; 'I' for Inactive)
REMARK    1  A    between atoms: C_1  and  C_2
REMARK    2  A    between atoms: C_7  and  C_8
REMARK    3  A    between atoms: C_11  and  N_12
REMARK    4  A    between atoms: C_13  and  C_15
REMARK    5  A    between atoms: C_21  and  C_22
REMARK                            x       y       z     vdW  Elec       q    Type
REMARK                         _______ _______ _______ _____ _____    ______ ____
ROOT
ATOM      1  C   UNL     1       2.720   7.347  18.701  0.00  0.00    +0.000 A 
ATOM      2  C   UNL     1       2.249   7.238  20.007  0.00  0.00    +0.000 A 
ATOM      3  C   UNL     1       1.350   8.175  20.508  0.00  0.00    +0.000 A 
ATOM      4  C   UNL     1       0.900   9.236  19.721  0.00  0.00    +0.000 A 
ATOM      5  C   UNL     1       1.386   9.352  18.410  0.00  0.00    +0.000 A 
ATOM      6  C   UNL     1       2.295   8.416  17.901  0.00  0.00    +0.000 A 
ENDROOT
BRANCH   1  13
ATOM      7  C   UNL     1       5.565   5.550  15.229  0.00  0.00    +0.000 C 
ATOM      8  C   UNL     1       5.057   5.417  16.635  0.00  0.00    +0.000 A 
ATOM      9  C   UNL     1       5.452   4.414  17.429  0.00  0.00    +0.000 A 
ATOM     10  C   UNL     1       4.921   4.366  18.794  0.00  0.00    +0.000 A 
ATOM     11  O   UNL     1       5.237   3.474  19.579  0.00  0.00    +0.000 OA
ATOM     12  N   UNL     1       4.063   5.363  19.126  0.00  0.00    +0.000 N 
ATOM     13  C   UNL     1       3.692   6.331  18.229  0.00  0.00    +0.000 A 
ATOM     14  N   UNL     1       4.165   6.387  17.023  0.00  0.00    +0.000 NA
ATOM     15  H   UNL     1       3.736   5.363  20.080  0.00  0.00    +0.000 HD
ENDBRANCH   1  13
BRANCH   4  16
ATOM     16  N   UNL     1      -0.041  10.188  20.172  0.00  0.00    +0.000 N 
ATOM     17  C   UNL     1       0.233  11.263  21.010  0.00  0.00    +0.000 C 
ATOM     18  O   UNL     1       1.340  11.602  21.407  0.00  0.00    +0.000 OA
ATOM     19  H   UNL     1      -1.002  10.018  19.910  0.00  0.00    +0.000 HD
BRANCH  17  20
ATOM     20  C   UNL     1      -0.954  12.033  21.485  0.00  0.00    +0.000 A 
ATOM     21  C   UNL     1      -1.654  11.595  22.617  0.00  0.00    +0.000 A 
ATOM     22  C   UNL     1      -2.704  12.357  23.111  0.00  0.00    +0.000 A 
ATOM     23  F   UNL     1      -3.361  11.939  24.199  0.00  0.00    +0.000 F 
ATOM     24  C   UNL     1      -3.077  13.547  22.503  0.00  0.00    +0.000 A 
ATOM     25  C   UNL     1      -2.420  13.965  21.347  0.00  0.00    +0.000 A 
ATOM     26  C   UNL     1      -1.370  13.204  20.806  0.00  0.00    +0.000 A 
ATOM     27  C   UNL     1      -0.741  13.664  19.516  0.00  0.00    +0.000 C 
ENDBRANCH  17  20
ENDBRANCH   4  16
TORSDOF 3
ENDMDL
MODEL 2
REMARK VINA RESULT:      -8.0      1.052      1.716
REMARK  Name = 
REMARK  5 active torsions:
REMARK  status: ('A' for Active; 'I' for Inactive)
REMARK    1  A    between atoms: C_1  and  C_2
REMARK    2  A    between atoms: C_7  and  C_8
REMARK    3  A    between atoms: C_11  and  N_12
REMARK    4  A    between atoms: C_13  and  C_15
REMARK    5  A    between atoms: C_21  and  C_22
REMARK                            x       y       z     vdW  Elec       q    Type
REMARK                         _______ _______ _______ _____ _____    ______ ____
ROOT
ATOM      1  C   UNL     1       2.755   7.290  18.647  0.00  0.00    +0.000 A 
ATOM      2  C   UNL     1       2.288   7.205  19.957  0.00  0.00    +0.000 A 
ATOM      3  C   UNL     1       1.413   8.168  20.452  0.00  0.00    +0.000 A 
ATOM      4  C   UNL     1       0.985   9.231  19.655  0.00  0.00    +0.000 A 
ATOM      5  C   UNL     1       1.466   9.322  18.341  0.00  0.00    +0.000 A 
ATOM      6  C   UNL     1       2.352   8.359  17.838  0.00  0.00    +0.000 A 
ENDROOT
BRANCH   1  13
ATOM      7  C   UNL     1       5.598   5.431  15.206  0.00  0.00    +0.000 C 
ATOM      8  C   UNL     1       5.063   5.302  16.602  0.00  0.00    +0.000 A 
ATOM      9  C   UNL     1       5.412   4.280  17.394  0.00  0.00    +0.000 A 
ATOM     10  C   UNL     1       4.856   4.237  18.750  0.00  0.00    +0.000 A 
ATOM     11  O   UNL     1       5.131   3.328  19.531  0.00  0.00    +0.000 OA
ATOM     12  N   UNL     1       4.026   5.259  19.077  0.00  0.00    +0.000 N 
ATOM     13  C   UNL     1       3.701   6.247  18.182  0.00  0.00    +0.000 A 
ATOM     14  N   UNL     1       4.197   6.297  16.985  0.00  0.00    +0.000 NA
ATOM     15  H   UNL     1       3.684   5.261  20.024  0.00  0.00    +0.000 HD
ENDBRANCH   1  13
BRANCH   4  16
ATOM     16  N   UNL     1       0.068  10.209  20.100  0.00  0.00    +0.000 N 
ATOM     17  C   UNL     1       0.385  11.334  20.852  0.00  0.00    +0.000 C 
ATOM     18  O   UNL     1       1.512  11.697  21.163  0.00  0.00    +0.000 OA
ATOM     19  H   UNL     1      -0.907  10.023  19.905  0.00  0.00    +0.000 HD
BRANCH  17  20
ATOM     20  C   UNL     1      -0.774  12.132  21.346  0.00  0.00    +0.000 A 
ATOM     21  C   UNL     1      -1.133  13.313  20.682  0.00  0.00    +0.000 A 
ATOM     22  C   UNL     1      -2.263  14.011  21.087  0.00  0.00    +0.000 A 
ATOM     23  F   UNL     1      -2.607  15.131  20.441  0.00  0.00    +0.000 F 
ATOM     24  C   UNL     1      -3.047  13.561  22.140  0.00  0.00    +0.000 A 
ATOM     25  C   UNL     1      -2.670  12.416  22.839  0.00  0.00    +0.000 A 
ATOM     26  C   UNL     1      -1.517  11.701  22.472  0.00  0.00    +0.000 A 
ATOM     27  C   UNL     1      -1.116  10.511  23.305  0.00  0.00    +0.000 C 
ENDBRANCH  17  20
ENDBRANCH   4  16
TORSDOF 3
ENDMDL
MODEL 3
REMARK VINA RESULT:      -8.0      1.574      2.332
REMARK  Name = 
REMARK  5 active torsions:
REMARK  status: ('A' for Active; 'I' for Inactive)
REMARK    1  A    between atoms: C_1  and  C_2
REMARK    2  A    between atoms: C_7  and  C_8
REMARK    3  A    between atoms: C_11  and  N_12
REMARK    4  A    between atoms: C_13  and  C_15
REMARK    5  A    between atoms: C_21  and  C_22
REMARK                            x       y       z     vdW  Elec       q    Type
REMARK                         _______ _______ _______ _____ _____    ______ ____
ROOT
ATOM      1  C   UNL     1       2.612   7.436  18.407  0.00  0.00    +0.000 A 
ATOM      2  C   UNL     1       2.248   7.285  19.743  0.00  0.00    +0.000 A 
ATOM      3  C   UNL     1       1.441   8.236  20.361  0.00  0.00    +0.000 A 
ATOM      4  C   UNL     1       0.978   9.352  19.663  0.00  0.00    +0.000 A 
ATOM      5  C   UNL     1       1.356   9.509  18.322  0.00  0.00    +0.000 A 
ATOM      6  C   UNL     1       2.174   8.559  17.695  0.00  0.00    +0.000 A 
ENDROOT
BRANCH   1  13
ATOM      7  C   UNL     1       3.723   2.790  17.658  0.00  0.00    +0.000 C 
ATOM      8  C   UNL     1       4.086   4.226  17.415  0.00  0.00    +0.000 A 
ATOM      9  C   UNL     1       5.166   4.563  16.700  0.00  0.00    +0.000 A 
ATOM     10  C   UNL     1       5.441   5.989  16.497  0.00  0.00    +0.000 A 
ATOM     11  O   UNL     1       6.415   6.374  15.853  0.00  0.00    +0.000 OA
ATOM     12  N   UNL     1       4.553   6.845  17.064  0.00  0.00    +0.000 N 
ATOM     13  C   UNL     1       3.491   6.402  17.809  0.00  0.00    +0.000 A 
ATOM     14  N   UNL     1       3.236   5.143  17.985  0.00  0.00    +0.000 NA
ATOM     15  H   UNL     1       4.709   7.824  16.882  0.00  0.00    +0.000 HD
ENDBRANCH   1  13
BRANCH   4  16
ATOM     16  N   UNL     1       0.125  10.321  20.236  0.00  0.00    +0.000 N 
ATOM     17  C   UNL     1       0.536  11.438  20.954  0.00  0.00    +0.000 C 
ATOM     18  O   UNL     1       1.693  11.801  21.120  0.00  0.00    +0.000 OA
ATOM     19  H   UNL     1      -0.866  10.134  20.166  0.00  0.00    +0.000 HD
BRANCH  17  20
ATOM     20  C   UNL     1      -0.551  12.226  21.604  0.00  0.00    +0.000 A 
ATOM     21  C   UNL     1      -0.827  13.525  21.154  0.00  0.00    +0.000 A 
ATOM     22  C   UNL     1      -1.893  14.228  21.699  0.00  0.00    +0.000 A 
ATOM     23  F   UNL     1      -2.157  15.463  21.257  0.00  0.00    +0.000 F 
ATOM     24  C   UNL     1      -2.694  13.668  22.684  0.00  0.00    +0.000 A 
ATOM     25  C   UNL     1      -2.398  12.397  23.174  0.00  0.00    +0.000 A 
ATOM     26  C   UNL     1      -1.309  11.670  22.663  0.00  0.00    +0.000 A 
ATOM     27  C   UNL     1      -0.990  10.331  23.276  0.00  0.00    +0.000 C 
ENDBRANCH  17  20
ENDBRANCH   4  16
TORSDOF 3
ENDMDL
MODEL 4
REMARK VINA RESULT:      -7.9      1.160      1.550
REMARK  Name = 
REMARK  5 active torsions:
REMARK  status: ('A' for Active; 'I' for Inactive)
REMARK    1  A    between atoms: C_1  and  C_2
REMARK    2  A    between atoms: C_7  and  C_8
REMARK    3  A    between atoms: C_11  and  N_12
REMARK    4  A    between atoms: C_13  and  C_15
REMARK    5  A    between atoms: C_21  and  C_22
REMARK                            x       y       z     vdW  Elec       q    Type
REMARK                         _______ _______ _______ _____ _____    ______ ____
ROOT
ATOM      1  C   UNL     1       2.612   7.509  18.410  0.00  0.00    +0.000 A 
ATOM      2  C   UNL     1       2.221   7.393  19.742  0.00  0.00    +0.000 A 
ATOM      3  C   UNL     1       1.355   8.328  20.302  0.00  0.00    +0.000 A 
ATOM      4  C   UNL     1       0.860   9.394  19.548  0.00  0.00    +0.000 A 
ATOM      5  C   UNL     1       1.266   9.517  18.212  0.00  0.00    +0.000 A 
ATOM      6  C   UNL     1       2.142   8.582  17.644  0.00  0.00    +0.000 A 
ENDROOT
BRANCH   1  13
ATOM      7  C   UNL     1       3.833   2.889  17.672  0.00  0.00    +0.000 C 
ATOM      8  C   UNL     1       4.203   4.333  17.494  0.00  0.00    +0.000 A 
ATOM      9  C   UNL     1       5.342   4.694  16.890  0.00  0.00    +0.000 A 
ATOM     10  C   UNL     1       5.620   6.125  16.742  0.00  0.00    +0.000 A 
ATOM     11  O   UNL     1       6.647   6.531  16.201  0.00  0.00    +0.000 OA
ATOM     12  N   UNL     1       4.676   6.962  17.242  0.00  0.00    +0.000 N 
ATOM     13  C   UNL     1       3.553   6.495  17.875  0.00  0.00    +0.000 A 
ATOM     14  N   UNL     1       3.295   5.231  18.000  0.00  0.00    +0.000 NA
ATOM     15  H   UNL     1       4.839   7.946  17.096  0.00  0.00    +0.000 HD
ENDBRANCH   1  13
BRANCH   4  16
ATOM     16  N   UNL     1      -0.050  10.344  20.061  0.00  0.00    +0.000 N 
ATOM     17  C   UNL     1       0.253  11.344  20.977  0.00  0.00    +0.000 C 
ATOM     18  O   UNL     1       1.367  11.613  21.407  0.00  0.00    +0.000 OA
ATOM     19  H   UNL     1      -1.015  10.229  19.779  0.00  0.00    +0.000 HD
BRANCH  17  20
ATOM     20  C   UNL     1      -0.910  12.121  21.498  0.00  0.00    +0.000 A 
ATOM     21  C   UNL     1      -1.629  11.634  22.598  0.00  0.00    +0.000 A 
ATOM     22  C   UNL     1      -2.657  12.396  23.137  0.00  0.00    +0.000 A 
ATOM     23  F   UNL     1      -3.332  11.931  24.195  0.00  0.00    +0.000 F 
ATOM     24  C   UNL     1      -2.987  13.635  22.607  0.00  0.00    +0.000 A 
ATOM     25  C   UNL     1      -2.312  14.105  21.482  0.00  0.00    +0.000 A 
ATOM     26  C   UNL     1      -1.285  13.346  20.896  0.00  0.00    +0.000 A 
ATOM     27  C   UNL     1      -0.635  13.868  19.640  0.00  0.00    +0.000 C 
ENDBRANCH  17  20
ENDBRANCH   4  16
TORSDOF 3
ENDMDL
MODEL 5
REMARK VINA RESULT:      -7.8      1.475      2.080
REMARK  Name = 
REMARK  5 active torsions:
REMARK  status: ('A' for Active; 'I' for Inactive)
REMARK    1  A    between atoms: C_1  and  C_2
REMARK    2  A    between atoms: C_7  and  C_8
REMARK    3  A    between atoms: C_11  and  N_12
REMARK    4  A    between atoms: C_13  and  C_15
REMARK    5  A    between atoms: C_21  and  C_22
REMARK                            x       y       z     vdW  Elec       q    Type
REMARK                         _______ _______ _______ _____ _____    ______ ____
ROOT
ATOM      1  C   UNL     1       2.606   7.239  18.520  0.00  0.00    +0.000 A 
ATOM      2  C   UNL     1       2.252   8.368  17.785  0.00  0.00    +0.000 A 
ATOM      3  C   UNL     1       1.511   9.387  18.379  0.00  0.00    +0.000 A 
ATOM      4  C   UNL     1       1.110   9.303  19.713  0.00  0.00    +0.000 A 
ATOM      5  C   UNL     1       1.455   8.159  20.448  0.00  0.00    +0.000 A 
ATOM      6  C   UNL     1       2.196   7.128  19.855  0.00  0.00    +0.000 A 
ENDROOT
BRANCH   1  13
ATOM      7  C   UNL     1       3.457   2.562  17.639  0.00  0.00    +0.000 C 
ATOM      8  C   UNL     1       3.846   3.986  17.366  0.00  0.00    +0.000 A 
ATOM      9  C   UNL     1       4.858   4.288  16.542  0.00  0.00    +0.000 A 
ATOM     10  C   UNL     1       5.162   5.705  16.317  0.00  0.00    +0.000 A 
ATOM     11  O   UNL     1       6.078   6.058  15.576  0.00  0.00    +0.000 OA
ATOM     12  N   UNL     1       4.372   6.588  16.978  0.00  0.00    +0.000 N 
ATOM     13  C   UNL     1       3.378   6.178  17.829  0.00  0.00    +0.000 A 
ATOM     14  N   UNL     1       3.096   4.928  18.025  0.00  0.00    +0.000 NA
ATOM     15  H   UNL     1       4.545   7.562  16.785  0.00  0.00    +0.000 HD
ENDBRANCH   1  13
BRANCH   4  16
ATOM     16  N   UNL     1       0.392  10.327  20.369  0.00  0.00    +0.000 N 
ATOM     17  C   UNL     1       0.448  10.614  21.728  0.00  0.00    +0.000 C 
ATOM     18  O   UNL     1       1.194  10.088  22.544  0.00  0.00    +0.000 OA
ATOM     19  H   UNL     1      -0.266  10.841  19.798  0.00  0.00    +0.000 HD
BRANCH  17  20
ATOM     20  C   UNL     1      -0.527  11.632  22.216  0.00  0.00    +0.000 A 
ATOM     21  C   UNL     1      -1.670  11.216  22.913  0.00  0.00    +0.000 A 
ATOM     22  C   UNL     1      -2.533  12.165  23.443  0.00  0.00    +0.000 A 
ATOM     23  F   UNL     1      -3.616  11.761  24.116  0.00  0.00    +0.000 F 
ATOM     24  C   UNL     1      -2.287  13.523  23.296  0.00  0.00    +0.000 A 
ATOM     25  C   UNL     1      -1.180  13.947  22.562  0.00  0.00    +0.000 A 
ATOM     26  C   UNL     1      -0.301  13.011  21.990  0.00  0.00    +0.000 A 
ATOM     27  C   UNL     1       0.840  13.522  21.147  0.00  0.00    +0.000 C 
ENDBRANCH  17  20
ENDBRANCH   4  16
TORSDOF 3
ENDMDL
MODEL 6
REMARK VINA RESULT:      -7.8      1.201      1.539
REMARK  Name = 
REMARK  5 active torsions:
REMARK  status: ('A' for Active; 'I' for Inactive)
REMARK    1  A    between atoms: C_1  and  C_2
REMARK    2  A    between atoms: C_7  and  C_8
REMARK    3  A    between atoms: C_11  and  N_12
REMARK    4  A    between atoms: C_13  and  C_15
REMARK    5  A    between atoms: C_21  and  C_22
REMARK                            x       y       z     vdW  Elec       q    Type
REMARK                         _______ _______ _______ _____ _____    ______ ____
ROOT
ATOM      1  C   UNL     1       2.729   6.887  18.515  0.00  0.00    +0.000 A 
ATOM      2  C   UNL     1       2.449   8.024  17.760  0.00  0.00    +0.000 A 
ATOM      3  C   UNL     1       1.729   9.076  18.319  0.00  0.00    +0.000 A 
ATOM      4  C   UNL     1       1.276   9.019  19.638  0.00  0.00    +0.000 A 
ATOM      5  C   UNL     1       1.547   7.868  20.392  0.00  0.00    +0.000 A 
ATOM      6  C   UNL     1       2.266   6.803  19.833  0.00  0.00    +0.000 A 
ENDROOT
BRANCH   1  13
ATOM      7  C   UNL     1       6.033   5.385  15.320  0.00  0.00    +0.000 C 
ATOM      8  C   UNL     1       5.026   5.001  16.364  0.00  0.00    +0.000 A 
ATOM      9  C   UNL     1       4.803   3.720  16.682  0.00  0.00    +0.000 A 
ATOM     10  C   UNL     1       3.813   3.431  17.725  0.00  0.00    +0.000 A 
ATOM     11  O   UNL     1       3.555   2.279  18.068  0.00  0.00    +0.000 OA
ATOM     12  N   UNL     1       3.209   4.513  18.277  0.00  0.00    +0.000 N 
ATOM     13  C   UNL     1       3.481   5.790  17.859  0.00  0.00    +0.000 A 
ATOM     14  N   UNL     1       4.362   6.054  16.945  0.00  0.00    +0.000 NA
ATOM     15  H   UNL     1       2.567   4.321  19.029  0.00  0.00    +0.000 HD
ENDBRANCH   1  13
BRANCH   4  16
ATOM     16  N   UNL     1       0.577  10.077  20.260  0.00  0.00    +0.000 N 
ATOM     17  C   UNL     1       0.707  10.463  21.589  0.00  0.00    +0.000 C 
ATOM     18  O   UNL     1       1.510  10.010  22.394  0.00  0.00    +0.000 OA
ATOM     19  H   UNL     1      -0.124  10.537  19.694  0.00  0.00    +0.000 HD
BRANCH  17  20
ATOM     20  C   UNL     1      -0.258  11.498  22.061  0.00  0.00    +0.000 A 
ATOM     21  C   UNL     1      -1.395  11.106  22.780  0.00  0.00    +0.000 A 
ATOM     22  C   UNL     1      -2.248  12.074  23.294  0.00  0.00    +0.000 A 
ATOM     23  F   UNL     1      -3.326  11.693  23.990  0.00  0.00    +0.000 F 
ATOM     24  C   UNL     1      -1.998  13.426  23.108  0.00  0.00    +0.000 A 
ATOM     25  C   UNL     1      -0.897  13.824  22.351  0.00  0.00    +0.000 A 
ATOM     26  C   UNL     1      -0.028  12.870  21.795  0.00  0.00    +0.000 A 
ATOM     27  C   UNL     1       1.105  13.352  20.927  0.00  0.00    +0.000 C 
ENDBRANCH  17  20
ENDBRANCH   4  16
TORSDOF 3
ENDMDL
MODEL 7
REMARK VINA RESULT:      -7.7      1.918      2.766
REMARK  Name = 
REMARK  5 active torsions:
REMARK  status: ('A' for Active; 'I' for Inactive)
REMARK    1  A    between atoms: C_1  and  C_2
REMARK    2  A    between atoms: C_7  and  C_8
REMARK    3  A    between atoms: C_11  and  N_12
REMARK    4  A    between atoms: C_13  and  C_15
REMARK    5  A    between atoms: C_21  and  C_22
REMARK                            x       y       z     vdW  Elec       q    Type
REMARK                         _______ _______ _______ _____ _____    ______ ____
ROOT
ATOM      1  C   UNL     1       2.766   7.096  18.472  0.00  0.00    +0.000 A 
ATOM      2  C   UNL     1       2.513   8.273  17.770  0.00  0.00    +0.000 A 
ATOM      3  C   UNL     1       1.823   9.317  18.380  0.00  0.00    +0.000 A 
ATOM      4  C   UNL     1       1.373   9.212  19.697  0.00  0.00    +0.000 A 
ATOM      5  C   UNL     1       1.616   8.021  20.397  0.00  0.00    +0.000 A 
ATOM      6  C   UNL     1       2.306   6.964  19.788  0.00  0.00    +0.000 A 
ENDROOT
BRANCH   1  13
ATOM      7  C   UNL     1       3.586   2.390  17.722  0.00  0.00    +0.000 C 
ATOM      8  C   UNL     1       3.937   3.803  17.357  0.00  0.00    +0.000 A 
ATOM      9  C   UNL     1       4.873   4.076  16.440  0.00  0.00    +0.000 A 
ATOM     10  C   UNL     1       5.145   5.483  16.130  0.00  0.00    +0.000 A 
ATOM     11  O   UNL     1       5.992   5.810  15.301  0.00  0.00    +0.000 OA
ATOM     12  N   UNL     1       4.404   6.390  16.817  0.00  0.00    +0.000 N 
ATOM     13  C   UNL     1       3.488   6.011  17.764  0.00  0.00    +0.000 A 
ATOM     14  N   UNL     1       3.235   4.769  18.036  0.00  0.00    +0.000 NA
ATOM     15  H   UNL     1       4.550   7.355  16.569  0.00  0.00    +0.000 HD
ENDBRANCH   1  13
BRANCH   4  16
ATOM     16  N   UNL     1       0.703  10.258  20.369  0.00  0.00    +0.000 N 
ATOM     17  C   UNL     1      -0.611  10.653  20.148  0.00  0.00    +0.000 C 
ATOM     18  O   UNL     1      -1.414  10.098  19.409  0.00  0.00    +0.000 OA
ATOM     19  H   UNL     1       1.264  10.800  21.013  0.00  0.00    +0.000 HD
BRANCH  17  20
ATOM     20  C   UNL     1      -1.045  11.890  20.859  0.00  0.00    +0.000 A 
ATOM     21  C   UNL     1      -1.185  13.086  20.141  0.00  0.00    +0.000 A 
ATOM     22  C   UNL     1      -1.671  14.218  20.783  0.00  0.00    +0.000 A 
ATOM     23  F   UNL     1      -1.812  15.353  20.089  0.00  0.00    +0.000 F 
ATOM     24  C   UNL     1      -2.022  14.188  22.125  0.00  0.00    +0.000 A 
ATOM     25  C   UNL     1      -1.839  13.018  22.859  0.00  0.00    +0.000 A 
ATOM     26  C   UNL     1      -1.324  11.862  22.247  0.00  0.00    +0.000 A 
ATOM     27  C   UNL     1      -1.080  10.646  23.102  0.00  0.00    +0.000 C 
ENDBRANCH  17  20
ENDBRANCH   4  16
TORSDOF 3
ENDMDL
MODEL 8
REMARK VINA RESULT:      -7.7      1.596      2.198
REMARK  Name = 
REMARK  5 active torsions:
REMARK  status: ('A' for Active; 'I' for Inactive)
REMARK    1  A    between atoms: C_1  and  C_2
REMARK    2  A    between atoms: C_7  and  C_8
REMARK    3  A    between atoms: C_11  and  N_12
REMARK    4  A    between atoms: C_13  and  C_15
REMARK    5  A    between atoms: C_21  and  C_22
REMARK                            x       y       z     vdW  Elec       q    Type
REMARK                         _______ _______ _______ _____ _____    ______ ____
ROOT
ATOM      1  C   UNL     1       2.739   7.186  18.429  0.00  0.00    +0.000 A 
ATOM      2  C   UNL     1       2.457   8.325  17.678  0.00  0.00    +0.000 A 
ATOM      3  C   UNL     1       1.739   9.376  18.243  0.00  0.00    +0.000 A 
ATOM      4  C   UNL     1       1.289   9.316  19.563  0.00  0.00    +0.000 A 
ATOM      5  C   UNL     1       1.562   8.163  20.313  0.00  0.00    +0.000 A 
ATOM      6  C   UNL     1       2.280   7.099  19.749  0.00  0.00    +0.000 A 
ENDROOT
BRANCH   1  13
ATOM      7  C   UNL     1       3.561   2.470  17.755  0.00  0.00    +0.000 C 
ATOM      8  C   UNL     1       3.943   3.877  17.401  0.00  0.00    +0.000 A 
ATOM      9  C   UNL     1       4.930   4.137  16.534  0.00  0.00    +0.000 A 
ATOM     10  C   UNL     1       5.229   5.540  16.231  0.00  0.00    +0.000 A 
ATOM     11  O   UNL     1       6.122   5.855  15.447  0.00  0.00    +0.000 OA
ATOM     12  N   UNL     1       4.459   6.457  16.870  0.00  0.00    +0.000 N 
ATOM     13  C   UNL     1       3.489   6.091  17.769  0.00  0.00    +0.000 A 
ATOM     14  N   UNL     1       3.212   4.853  18.034  0.00  0.00    +0.000 NA
ATOM     15  H   UNL     1       4.626   7.419  16.625  0.00  0.00    +0.000 HD
ENDBRANCH   1  13
BRANCH   4  16
ATOM     16  N   UNL     1       0.592  10.372  20.189  0.00  0.00    +0.000 N 
ATOM     17  C   UNL     1      -0.687  10.804  19.862  0.00  0.00    +0.000 C 
ATOM     18  O   UNL     1      -1.438  10.281  19.049  0.00  0.00    +0.000 OA
ATOM     19  H   UNL     1       1.109  10.890  20.887  0.00  0.00    +0.000 HD
BRANCH  17  20
ATOM     20  C   UNL     1      -1.149  12.045  20.550  0.00  0.00    +0.000 A 
ATOM     21  C   UNL     1      -1.737  11.953  21.819  0.00  0.00    +0.000 A 
ATOM     22  C   UNL     1      -2.088  13.113  22.497  0.00  0.00    +0.000 A 
ATOM     23  F   UNL     1      -2.639  13.018  23.713  0.00  0.00    +0.000 F 
ATOM     24  C   UNL     1      -1.867  14.365  21.943  0.00  0.00    +0.000 A 
ATOM     25  C   UNL     1      -1.329  14.466  20.661  0.00  0.00    +0.000 A 
ATOM     26  C   UNL     1      -0.988  13.311  19.936  0.00  0.00    +0.000 A 
ATOM     27  C   UNL     1      -0.476  13.473  18.528  0.00  0.00    +0.000 C 
ENDBRANCH  17  20
ENDBRANCH   4  16
TORSDOF 3
ENDMDL
MODEL 9
REMARK VINA RESULT:      -7.7      3.543      9.398
REMARK  Name = 
REMARK  5 active torsions:
REMARK  status: ('A' for Active; 'I' for Inactive)
REMARK    1  A    between atoms: C_1  and  C_2
REMARK    2  A    between atoms: C_7  and  C_8
REMARK    3  A    between atoms: C_11  and  N_12
REMARK    4  A    between atoms: C_13  and  C_15
REMARK    5  A    between atoms: C_21  and  C_22
REMARK                            x       y       z     vdW  Elec       q    Type
REMARK                         _______ _______ _______ _____ _____    ______ ____
ROOT
ATOM      1  C   UNL     1       0.188  10.618  21.287  0.00  0.00    +0.000 A 
ATOM      2  C   UNL     1       0.625   9.508  22.007  0.00  0.00    +0.000 A 
ATOM      3  C   UNL     1       1.295   8.474  21.359  0.00  0.00    +0.000 A 
ATOM      4  C   UNL     1       1.544   8.524  19.987  0.00  0.00    +0.000 A 
ATOM      5  C   UNL     1       1.091   9.635  19.262  0.00  0.00    +0.000 A 
ATOM      6  C   UNL     1       0.411  10.678  19.906  0.00  0.00    +0.000 A 
ENDROOT
BRANCH   1  13
ATOM      7  C   UNL     1      -0.163  15.198  22.796  0.00  0.00    +0.000 C 
ATOM      8  C   UNL     1      -0.772  13.827  22.785  0.00  0.00    +0.000 A 
ATOM      9  C   UNL     1      -1.917  13.565  23.427  0.00  0.00    +0.000 A 
ATOM     10  C   UNL     1      -2.453  12.202  23.352  0.00  0.00    +0.000 A 
ATOM     11  O   UNL     1      -3.498  11.887  23.918  0.00  0.00    +0.000 OA
ATOM     12  N   UNL     1      -1.721  11.322  22.623  0.00  0.00    +0.000 N 
ATOM     13  C   UNL     1      -0.539  11.679  22.027  0.00  0.00    +0.000 A 
ATOM     14  N   UNL     1      -0.064  12.884  22.080  0.00  0.00    +0.000 NA
ATOM     15  H   UNL     1      -2.112  10.399  22.526  0.00  0.00    +0.000 HD
ENDBRANCH   1  13
BRANCH   4  16
ATOM     16  N   UNL     1       2.254   7.518  19.294  0.00  0.00    +0.000 N 
ATOM     17  C   UNL     1       2.405   6.200  19.711  0.00  0.00    +0.000 C 
ATOM     18  O   UNL     1       1.873   5.689  20.688  0.00  0.00    +0.000 OA
ATOM     19  H   UNL     1       2.744   7.816  18.462  0.00  0.00    +0.000 HD
BRANCH  17  20
ATOM     20  C   UNL     1       3.338   5.366  18.898  0.00  0.00    +0.000 A 
ATOM     21  C   UNL     1       4.720   5.480  19.099  0.00  0.00    +0.000 A 
ATOM     22  C   UNL     1       5.584   4.644  18.405  0.00  0.00    +0.000 A 
ATOM     23  F   UNL     1       6.903   4.750  18.610  0.00  0.00    +0.000 F 
ATOM     24  C   UNL     1       5.106   3.694  17.514  0.00  0.00    +0.000 A 
ATOM     25  C   UNL     1       3.736   3.607  17.270  0.00  0.00    +0.000 A 
ATOM     26  C   UNL     1       2.836   4.457  17.936  0.00  0.00    +0.000 A 
ATOM     27  C   UNL     1       1.373   4.369  17.583  0.00  0.00    +0.000 C 
ENDBRANCH  17  20
ENDBRANCH   4  16
TORSDOF 3
ENDMDL
