MODEL 1
REMARK VINA RESULT:      -8.5      0.000      0.000
REMARK  Name = 
REMARK  5 active torsions:
REMARK  status: ('A' for Active; 'I' for Inactive)
REMARK    1  A    between atoms: C_1  and  C_2
REMARK    2  A    between atoms: C_4  and  C_5
REMARK    3  A    between atoms: C_5  and  N_6
REMARK    4  A    between atoms: C_7  and  C_9
REMARK    5  A    between atoms: N_11  and  C_12
REMARK                            x       y       z     vdW  Elec       q    Type
REMARK                         _______ _______ _______ _____ _____    ______ ____
ROOT
ATOM      1  N   UNL     1       6.886   6.946  17.011  0.00  0.00    +0.000 N 
ATOM      2  C   UNL     1       7.733   7.266  18.049  0.00  0.00    +0.000 C 
ATOM      3  O   UNL     1       8.218   6.511  18.879  0.00  0.00    +0.000 OA
ATOM      4  H   UNL     1       6.519   7.760  16.518  0.00  0.00    +0.000 HD
ENDROOT
BRANCH   1   5
ATOM      5  C   UNL     1       6.253   5.629  16.796  0.00  0.00    +0.000 C 
ATOM      6  C   UNL     1       5.499   5.562  15.418  0.00  0.00    +0.000 C 
ATOM      7  C   UNL     1       6.740   4.903  14.804  0.00  0.00    +0.000 C 
ATOM      8  C   UNL     1       7.161   4.497  16.222  0.00  0.00    +0.000 C 
BRANCH   5  12
ATOM      9  C   UNL     1       2.514   5.276  20.112  0.00  0.00    +0.000 C 
ATOM     10  C   UNL     1       3.727   5.118  19.293  0.00  0.00    +0.000 A 
ATOM     11  N   UNL     1       4.146   5.806  18.254  0.00  0.00    +0.000 NA
ATOM     12  C   UNL     1       5.350   5.194  17.969  0.00  0.00    +0.000 A 
ATOM     13  N   UNL     1       5.645   4.159  18.773  0.00  0.00    +0.000 NA
ATOM     14  O   UNL     1       4.571   4.111  19.654  0.00  0.00    +0.000 OA
ENDBRANCH   5  12
ENDBRANCH   1   5
BRANCH   2  15
ATOM     15  C   UNL     1       8.089   8.764  18.066  0.00  0.00    +0.000 C 
ATOM     16  O   UNL     1       7.632   9.473  17.179  0.00  0.00    +0.000 OA
ATOM     17  N   UNL     1       8.965   9.111  19.077  0.00  0.00    +0.000 N 
ATOM     18  H   UNL     1       9.290   8.331  19.648  0.00  0.00    +0.000 HD
BRANCH  17  19
ATOM     19  C   UNL     1       9.518  10.388  19.296  0.00  0.00    +0.000 A 
ATOM     20  C   UNL     1      10.192  11.108  18.303  0.00  0.00    +0.000 A 
ATOM     21  C   UNL     1      10.757  12.348  18.595  0.00  0.00    +0.000 A 
ATOM     22  F   UNL     1      11.397  13.018  17.627  0.00  0.00    +0.000 F 
ATOM     23  C   UNL     1      10.663  12.886  19.868  0.00  0.00    +0.000 A 
ATOM     24  F   UNL     1      11.231  14.068  20.147  0.00  0.00    +0.000 F 
ATOM     25  C   UNL     1       9.978  12.187  20.849  0.00  0.00    +0.000 A 
ATOM     26  F   UNL     1       9.882  12.690  22.088  0.00  0.00    +0.000 F 
ATOM     27  C   UNL     1       9.392  10.950  20.572  0.00  0.00    +0.000 A 
ENDBRANCH  17  19
ENDBRANCH   2  15
TORSDOF 4
ENDMDL
MODEL 2
REMARK VINA RESULT:      -8.5      5.278      7.345
REMARK  Name = 
REMARK  5 active torsions:
REMARK  status: ('A' for Active; 'I' for Inactive)
REMARK    1  A    between atoms: C_1  and  C_2
REMARK    2  A    between atoms: C_4  and  C_5
REMARK    3  A    between atoms: C_5  and  N_6
REMARK    4  A    between atoms: C_7  and  C_9
REMARK    5  A    between atoms: N_11  and  C_12
REMARK                            x       y       z     vdW  Elec       q    Type
REMARK                         _______ _______ _______ _____ _____    ______ ____
ROOT
ATOM      1  N   UNL     1       5.227   6.109  17.823  0.00  0.00    +0.000 N 
ATOM      2  C   UNL     1       4.236   5.239  18.221  0.00  0.00    +0.000 C 
ATOM      3  O   UNL     1       4.333   4.038  18.428  0.00  0.00    +0.000 OA
ATOM      4  H   UNL     1       4.884   7.044  17.603  0.00  0.00    +0.000 HD
ENDROOT
BRANCH   1   5
ATOM      5  C   UNL     1       6.586   5.723  17.395  0.00  0.00    +0.000 C 
ATOM      6  C   UNL     1       7.639   6.847  17.710  0.00  0.00    +0.000 C 
ATOM      7  C   UNL     1       7.995   6.111  19.006  0.00  0.00    +0.000 C 
ATOM      8  C   UNL     1       7.410   4.837  18.382  0.00  0.00    +0.000 C 
BRANCH   5  12
ATOM      9  C   UNL     1       5.585   3.597  12.970  0.00  0.00    +0.000 C 
ATOM     10  C   UNL     1       6.130   4.352  14.110  0.00  0.00    +0.000 A 
ATOM     11  N   UNL     1       5.688   4.468  15.343  0.00  0.00    +0.000 NA
ATOM     12  C   UNL     1       6.650   5.269  15.922  0.00  0.00    +0.000 A 
ATOM     13  N   UNL     1       7.624   5.654  15.081  0.00  0.00    +0.000 NA
ATOM     14  O   UNL     1       7.282   5.044  13.880  0.00  0.00    +0.000 OA
ENDBRANCH   5  12
ENDBRANCH   1   5
BRANCH   2  15
ATOM     15  C   UNL     1       2.893   5.955  18.450  0.00  0.00    +0.000 C 
ATOM     16  O   UNL     1       1.896   5.493  17.910  0.00  0.00    +0.000 OA
ATOM     17  N   UNL     1       3.003   7.108  19.205  0.00  0.00    +0.000 N 
ATOM     18  H   UNL     1       3.955   7.352  19.474  0.00  0.00    +0.000 HD
BRANCH  17  19
ATOM     19  C   UNL     1       1.959   8.001  19.516  0.00  0.00    +0.000 A 
ATOM     20  C   UNL     1       1.509   8.987  18.631  0.00  0.00    +0.000 A 
ATOM     21  C   UNL     1       0.503   9.871  19.016  0.00  0.00    +0.000 A 
ATOM     22  F   UNL     1       0.089  10.806  18.150  0.00  0.00    +0.000 F 
ATOM     23  C   UNL     1      -0.065   9.790  20.277  0.00  0.00    +0.000 A 
ATOM     24  F   UNL     1      -1.016  10.660  20.648  0.00  0.00    +0.000 F 
ATOM     25  C   UNL     1       0.362   8.802  21.149  0.00  0.00    +0.000 A 
ATOM     26  F   UNL     1      -0.173   8.712  22.375  0.00  0.00    +0.000 F 
ATOM     27  C   UNL     1       1.358   7.897  20.776  0.00  0.00    +0.000 A 
ENDBRANCH  17  19
ENDBRANCH   2  15
TORSDOF 4
ENDMDL
MODEL 3
REMARK VINA RESULT:      -8.5      0.251      1.656
REMARK  Name = 
REMARK  5 active torsions:
REMARK  status: ('A' for Active; 'I' for Inactive)
REMARK    1  A    between atoms: C_1  and  C_2
REMARK    2  A    between atoms: C_4  and  C_5
REMARK    3  A    between atoms: C_5  and  N_6
REMARK    4  A    between atoms: C_7  and  C_9
REMARK    5  A    between atoms: N_11  and  C_12
REMARK                            x       y       z     vdW  Elec       q    Type
REMARK                         _______ _______ _______ _____ _____    ______ ____
ROOT
ATOM      1  N   UNL     1       6.884   6.917  17.023  0.00  0.00    +0.000 N 
ATOM      2  C   UNL     1       7.731   7.260  18.054  0.00  0.00    +0.000 C 
ATOM      3  O   UNL     1       8.235   6.520  18.886  0.00  0.00    +0.000 OA
ATOM      4  H   UNL     1       6.501   7.721  16.526  0.00  0.00    +0.000 HD
ENDROOT
BRANCH   1   5
ATOM      5  C   UNL     1       6.274   5.587  16.821  0.00  0.00    +0.000 C 
ATOM      6  C   UNL     1       5.556   5.481  15.426  0.00  0.00    +0.000 C 
ATOM      7  C   UNL     1       6.820   4.826  14.858  0.00  0.00    +0.000 C 
ATOM      8  C   UNL     1       7.211   4.455  16.294  0.00  0.00    +0.000 C 
BRANCH   5  12
ATOM      9  C   UNL     1       2.497   5.307  20.100  0.00  0.00    +0.000 C 
ATOM     10  C   UNL     1       3.712   5.122  19.289  0.00  0.00    +0.000 A 
ATOM     11  N   UNL     1       4.161   5.810  18.263  0.00  0.00    +0.000 NA
ATOM     12  C   UNL     1       5.348   5.165  17.980  0.00  0.00    +0.000 A 
ATOM     13  N   UNL     1       5.604   4.112  18.773  0.00  0.00    +0.000 NA
ATOM     14  O   UNL     1       4.521   4.085  19.644  0.00  0.00    +0.000 OA
ENDBRANCH   5  12
ENDBRANCH   1   5
BRANCH   2  15
ATOM     15  C   UNL     1       8.061   8.763  18.058  0.00  0.00    +0.000 C 
ATOM     16  O   UNL     1       7.555   9.465  17.192  0.00  0.00    +0.000 OA
ATOM     17  N   UNL     1       8.972   9.126  19.032  0.00  0.00    +0.000 N 
ATOM     18  H   UNL     1       9.334   8.352  19.588  0.00  0.00    +0.000 HD
BRANCH  17  19
ATOM     19  C   UNL     1       9.509  10.413  19.230  0.00  0.00    +0.000 A 
ATOM     20  C   UNL     1       9.539  11.045  20.478  0.00  0.00    +0.000 A 
ATOM     21  C   UNL     1      10.042  12.339  20.599  0.00  0.00    +0.000 A 
ATOM     22  F   UNL     1      10.060  12.922  21.805  0.00  0.00    +0.000 F 
ATOM     23  C   UNL     1      10.518  13.019  19.490  0.00  0.00    +0.000 A 
ATOM     24  F   UNL     1      10.978  14.273  19.612  0.00  0.00    +0.000 F 
ATOM     25  C   UNL     1      10.510  12.390  18.255  0.00  0.00    +0.000 A 
ATOM     26  F   UNL     1      10.962  13.036  17.171  0.00  0.00    +0.000 F 
ATOM     27  C   UNL     1      10.024  11.088  18.117  0.00  0.00    +0.000 A 
ENDBRANCH  17  19
ENDBRANCH   2  15
TORSDOF 4
ENDMDL
MODEL 4
REMARK VINA RESULT:      -8.4      5.243      7.548
REMARK  Name = 
REMARK  5 active torsions:
REMARK  status: ('A' for Active; 'I' for Inactive)
REMARK    1  A    between atoms: C_1  and  C_2
REMARK    2  A    between atoms: C_4  and  C_5
REMARK    3  A    between atoms: C_5  and  N_6
REMARK    4  A    between atoms: C_7  and  C_9
REMARK    5  A    between atoms: N_11  and  C_12
REMARK                            x       y       z     vdW  Elec       q    Type
REMARK                         _______ _______ _______ _____ _____    ______ ____
ROOT
ATOM      1  N   UNL     1       5.225   6.120  17.917  0.00  0.00    +0.000 N 
ATOM      2  C   UNL     1       4.249   5.298  18.438  0.00  0.00    +0.000 C 
ATOM      3  O   UNL     1       4.357   4.127  18.771  0.00  0.00    +0.000 OA
ATOM      4  H   UNL     1       4.872   7.026  17.607  0.00  0.00    +0.000 HD
ENDROOT
BRANCH   1   5
ATOM      5  C   UNL     1       6.572   5.691  17.495  0.00  0.00    +0.000 C 
ATOM      6  C   UNL     1       7.663   6.770  17.838  0.00  0.00    +0.000 C 
ATOM      7  C   UNL     1       7.979   5.999  19.125  0.00  0.00    +0.000 C 
ATOM      8  C   UNL     1       7.353   4.759  18.475  0.00  0.00    +0.000 C 
BRANCH   5  12
ATOM      9  C   UNL     1       5.587   3.595  13.053  0.00  0.00    +0.000 C 
ATOM     10  C   UNL     1       6.121   4.351  14.197  0.00  0.00    +0.000 A 
ATOM     11  N   UNL     1       5.689   4.436  15.436  0.00  0.00    +0.000 NA
ATOM     12  C   UNL     1       6.634   5.259  16.015  0.00  0.00    +0.000 A 
ATOM     13  N   UNL     1       7.585   5.686  15.169  0.00  0.00    +0.000 NA
ATOM     14  O   UNL     1       7.248   5.081  13.964  0.00  0.00    +0.000 OA
ENDBRANCH   5  12
ENDBRANCH   1   5
BRANCH   2  15
ATOM     15  C   UNL     1       2.910   6.034  18.625  0.00  0.00    +0.000 C 
ATOM     16  O   UNL     1       1.958   5.677  17.945  0.00  0.00    +0.000 OA
ATOM     17  N   UNL     1       2.979   7.085  19.520  0.00  0.00    +0.000 N 
ATOM     18  H   UNL     1       3.907   7.260  19.903  0.00  0.00    +0.000 HD
BRANCH  17  19
ATOM     19  C   UNL     1       1.935   7.975  19.838  0.00  0.00    +0.000 A 
ATOM     20  C   UNL     1       1.213   7.908  21.035  0.00  0.00    +0.000 A 
ATOM     21  C   UNL     1       0.158   8.789  21.270  0.00  0.00    +0.000 A 
ATOM     22  F   UNL     1      -0.517   8.705  22.424  0.00  0.00    +0.000 F 
ATOM     23  C   UNL     1      -0.192   9.741  20.327  0.00  0.00    +0.000 A 
ATOM     24  F   UNL     1      -1.223  10.569  20.552  0.00  0.00    +0.000 F 
ATOM     25  C   UNL     1       0.534   9.826  19.149  0.00  0.00    +0.000 A 
ATOM     26  F   UNL     1       0.205  10.738  18.223  0.00  0.00    +0.000 F 
ATOM     27  C   UNL     1       1.603   8.962  18.902  0.00  0.00    +0.000 A 
ENDBRANCH  17  19
ENDBRANCH   2  15
TORSDOF 4
ENDMDL
MODEL 5
REMARK VINA RESULT:      -8.4      5.947      7.744
REMARK  Name = 
REMARK  5 active torsions:
REMARK  status: ('A' for Active; 'I' for Inactive)
REMARK    1  A    between atoms: C_1  and  C_2
REMARK    2  A    between atoms: C_4  and  C_5
REMARK    3  A    between atoms: C_5  and  N_6
REMARK    4  A    between atoms: C_7  and  C_9
REMARK    5  A    between atoms: N_11  and  C_12
REMARK                            x       y       z     vdW  Elec       q    Type
REMARK                         _______ _______ _______ _____ _____    ______ ____
ROOT
ATOM      1  N   UNL     1       3.870   4.619  18.349  0.00  0.00    +0.000 N 
ATOM      2  C   UNL     1       5.188   4.914  18.624  0.00  0.00    +0.000 C 
ATOM      3  O   UNL     1       5.659   5.327  19.673  0.00  0.00    +0.000 OA
ATOM      4  H   UNL     1       3.698   4.399  17.368  0.00  0.00    +0.000 HD
ENDROOT
BRANCH   1   5
ATOM      5  C   UNL     1       2.724   4.911  19.233  0.00  0.00    +0.000 C 
ATOM      6  C   UNL     1       1.482   4.008  18.896  0.00  0.00    +0.000 C 
ATOM      7  C   UNL     1       1.912   3.049  20.011  0.00  0.00    +0.000 C 
ATOM      8  C   UNL     1       2.712   4.205  20.626  0.00  0.00    +0.000 C 
BRANCH   5  12
ATOM      9  C   UNL     1       1.873   9.686  17.981  0.00  0.00    +0.000 C 
ATOM     10  C   UNL     1       2.011   8.377  18.639  0.00  0.00    +0.000 A 
ATOM     11  N   UNL     1       2.416   7.222  18.158  0.00  0.00    +0.000 NA
ATOM     12  C   UNL     1       2.356   6.408  19.271  0.00  0.00    +0.000 A 
ATOM     13  N   UNL     1       1.907   7.022  20.378  0.00  0.00    +0.000 NA
ATOM     14  O   UNL     1       1.682   8.329  19.961  0.00  0.00    +0.000 OA
ENDBRANCH   5  12
ENDBRANCH   1   5
BRANCH   2  15
ATOM     15  C   UNL     1       6.109   4.621  17.426  0.00  0.00    +0.000 C 
ATOM     16  O   UNL     1       7.297   4.423  17.649  0.00  0.00    +0.000 OA
ATOM     17  N   UNL     1       5.465   4.690  16.205  0.00  0.00    +0.000 N 
ATOM     18  H   UNL     1       4.485   4.963  16.254  0.00  0.00    +0.000 HD
BRANCH  17  19
ATOM     19  C   UNL     1       6.065   4.536  14.939  0.00  0.00    +0.000 A 
ATOM     20  C   UNL     1       7.199   5.253  14.541  0.00  0.00    +0.000 A 
ATOM     21  C   UNL     1       7.718   5.091  13.257  0.00  0.00    +0.000 A 
ATOM     22  F   UNL     1       8.804   5.788  12.899  0.00  0.00    +0.000 F 
ATOM     23  C   UNL     1       7.121   4.223  12.358  0.00  0.00    +0.000 A 
ATOM     24  F   UNL     1       7.612   4.091  11.117  0.00  0.00    +0.000 F 
ATOM     25  C   UNL     1       6.010   3.494  12.755  0.00  0.00    +0.000 A 
ATOM     26  F   UNL     1       5.417   2.653  11.896  0.00  0.00    +0.000 F 
ATOM     27  C   UNL     1       5.485   3.632  14.042  0.00  0.00    +0.000 A 
ENDBRANCH  17  19
ENDBRANCH   2  15
TORSDOF 4
ENDMDL
MODEL 6
REMARK VINA RESULT:      -8.3      6.016      7.737
REMARK  Name = 
REMARK  5 active torsions:
REMARK  status: ('A' for Active; 'I' for Inactive)
REMARK    1  A    between atoms: C_1  and  C_2
REMARK    2  A    between atoms: C_4  and  C_5
REMARK    3  A    between atoms: C_5  and  N_6
REMARK    4  A    between atoms: C_7  and  C_9
REMARK    5  A    between atoms: N_11  and  C_12
REMARK                            x       y       z     vdW  Elec       q    Type
REMARK                         _______ _______ _______ _____ _____    ______ ____
ROOT
ATOM      1  N   UNL     1       3.844   4.256  18.353  0.00  0.00    +0.000 N 
ATOM      2  C   UNL     1       5.125   4.687  18.623  0.00  0.00    +0.000 C 
ATOM      3  O   UNL     1       5.555   5.143  19.673  0.00  0.00    +0.000 OA
ATOM      4  H   UNL     1       3.691   4.024  17.372  0.00  0.00    +0.000 HD
ENDROOT
BRANCH   1   5
ATOM      5  C   UNL     1       2.679   4.421  19.244  0.00  0.00    +0.000 C 
ATOM      6  C   UNL     1       1.438   3.596  18.741  0.00  0.00    +0.000 C 
ATOM      7  C   UNL     1       1.833   2.470  19.705  0.00  0.00    +0.000 C 
ATOM      8  C   UNL     1       2.626   3.508  20.510  0.00  0.00    +0.000 C 
BRANCH   5  12
ATOM      9  C   UNL     1       1.132   8.694  21.352  0.00  0.00    +0.000 C 
ATOM     10  C   UNL     1       1.667   7.632  20.485  0.00  0.00    +0.000 A 
ATOM     11  N   UNL     1       1.799   6.342  20.702  0.00  0.00    +0.000 NA
ATOM     12  C   UNL     1       2.320   5.899  19.504  0.00  0.00    +0.000 A 
ATOM     13  N   UNL     1       2.529   6.871  18.602  0.00  0.00    +0.000 NA
ATOM     14  O   UNL     1       2.093   8.020  19.250  0.00  0.00    +0.000 OA
ENDBRANCH   5  12
ENDBRANCH   1   5
BRANCH   2  15
ATOM     15  C   UNL     1       6.066   4.499  17.419  0.00  0.00    +0.000 C 
ATOM     16  O   UNL     1       7.268   4.422  17.636  0.00  0.00    +0.000 OA
ATOM     17  N   UNL     1       5.413   4.513  16.201  0.00  0.00    +0.000 N 
ATOM     18  H   UNL     1       4.410   4.684  16.256  0.00  0.00    +0.000 HD
BRANCH  17  19
ATOM     19  C   UNL     1       6.019   4.432  14.933  0.00  0.00    +0.000 A 
ATOM     20  C   UNL     1       7.146   5.181  14.576  0.00  0.00    +0.000 A 
ATOM     21  C   UNL     1       7.671   5.091  13.288  0.00  0.00    +0.000 A 
ATOM     22  F   UNL     1       8.751   5.818  12.972  0.00  0.00    +0.000 F 
ATOM     23  C   UNL     1       7.089   4.263  12.343  0.00  0.00    +0.000 A 
ATOM     24  F   UNL     1       7.586   4.201  11.099  0.00  0.00    +0.000 F 
ATOM     25  C   UNL     1       5.985   3.503  12.697  0.00  0.00    +0.000 A 
ATOM     26  F   UNL     1       5.406   2.700  11.793  0.00  0.00    +0.000 F 
ATOM     27  C   UNL     1       5.454   3.568  13.987  0.00  0.00    +0.000 A 
ENDBRANCH  17  19
ENDBRANCH   2  15
TORSDOF 4
ENDMDL
MODEL 7
REMARK VINA RESULT:      -8.2      6.111      7.801
REMARK  Name = 
REMARK  5 active torsions:
REMARK  status: ('A' for Active; 'I' for Inactive)
REMARK    1  A    between atoms: C_1  and  C_2
REMARK    2  A    between atoms: C_4  and  C_5
REMARK    3  A    between atoms: C_5  and  N_6
REMARK    4  A    between atoms: C_7  and  C_9
REMARK    5  A    between atoms: N_11  and  C_12
REMARK                            x       y       z     vdW  Elec       q    Type
REMARK                         _______ _______ _______ _____ _____    ______ ____
ROOT
ATOM      1  N   UNL     1       3.866   4.152  18.257  0.00  0.00    +0.000 N 
ATOM      2  C   UNL     1       5.186   4.450  18.517  0.00  0.00    +0.000 C 
ATOM      3  O   UNL     1       5.689   4.744  19.592  0.00  0.00    +0.000 OA
ATOM      4  H   UNL     1       3.659   4.051  17.264  0.00  0.00    +0.000 HD
ENDROOT
BRANCH   1   5
ATOM      5  C   UNL     1       2.750   4.297  19.213  0.00  0.00    +0.000 C 
ATOM      6  C   UNL     1       1.490   3.467  18.770  0.00  0.00    +0.000 C 
ATOM      7  C   UNL     1       1.946   2.334  19.697  0.00  0.00    +0.000 C 
ATOM      8  C   UNL     1       2.774   3.370  20.469  0.00  0.00    +0.000 C 
BRANCH   5  12
ATOM      9  C   UNL     1       1.143   8.509  21.398  0.00  0.00    +0.000 C 
ATOM     10  C   UNL     1       1.711   7.473  20.520  0.00  0.00    +0.000 A 
ATOM     11  N   UNL     1       1.817   6.174  20.695  0.00  0.00    +0.000 NA
ATOM     12  C   UNL     1       2.395   5.769  19.510  0.00  0.00    +0.000 A 
ATOM     13  N   UNL     1       2.661   6.771  18.656  0.00  0.00    +0.000 NA
ATOM     14  O   UNL     1       2.204   7.901  19.324  0.00  0.00    +0.000 OA
ENDBRANCH   5  12
ENDBRANCH   1   5
BRANCH   2  15
ATOM     15  C   UNL     1       6.065   4.337  17.259  0.00  0.00    +0.000 C 
ATOM     16  O   UNL     1       7.280   4.346  17.404  0.00  0.00    +0.000 OA
ATOM     17  N   UNL     1       5.341   4.309  16.081  0.00  0.00    +0.000 N 
ATOM     18  H   UNL     1       4.333   4.407  16.197  0.00  0.00    +0.000 HD
BRANCH  17  19
ATOM     19  C   UNL     1       5.875   4.278  14.778  0.00  0.00    +0.000 A 
ATOM     20  C   UNL     1       5.343   3.487  13.754  0.00  0.00    +0.000 A 
ATOM     21  C   UNL     1       5.947   3.465  12.497  0.00  0.00    +0.000 A 
ATOM     22  F   UNL     1       5.419   2.700  11.533  0.00  0.00    +0.000 F 
ATOM     23  C   UNL     1       7.079   4.221  12.244  0.00  0.00    +0.000 A 
ATOM     24  F   UNL     1       7.667   4.176  11.039  0.00  0.00    +0.000 F 
ATOM     25  C   UNL     1       7.598   5.023  13.249  0.00  0.00    +0.000 A 
ATOM     26  F   UNL     1       8.696   5.757  13.022  0.00  0.00    +0.000 F 
ATOM     27  C   UNL     1       6.998   5.070  14.509  0.00  0.00    +0.000 A 
ENDBRANCH  17  19
ENDBRANCH   2  15
TORSDOF 4
ENDMDL
MODEL 8
REMARK VINA RESULT:      -8.1      6.050      7.836
REMARK  Name = 
REMARK  5 active torsions:
REMARK  status: ('A' for Active; 'I' for Inactive)
REMARK    1  A    between atoms: C_1  and  C_2
REMARK    2  A    between atoms: C_4  and  C_5
REMARK    3  A    between atoms: C_5  and  N_6
REMARK    4  A    between atoms: C_7  and  C_9
REMARK    5  A    between atoms: N_11  and  C_12
REMARK                            x       y       z     vdW  Elec       q    Type
REMARK                         _______ _______ _______ _____ _____    ______ ____
ROOT
ATOM      1  N   UNL     1       3.898   4.459  18.177  0.00  0.00    +0.000 N 
ATOM      2  C   UNL     1       5.240   4.644  18.430  0.00  0.00    +0.000 C 
ATOM      3  O   UNL     1       5.769   4.925  19.495  0.00  0.00    +0.000 OA
ATOM      4  H   UNL     1       3.682   4.344  17.187  0.00  0.00    +0.000 HD
ENDROOT
BRANCH   1   5
ATOM      5  C   UNL     1       2.801   4.737  19.126  0.00  0.00    +0.000 C 
ATOM      6  C   UNL     1       1.542   3.840  18.840  0.00  0.00    +0.000 C 
ATOM      7  C   UNL     1       2.030   2.863  19.916  0.00  0.00    +0.000 C 
ATOM      8  C   UNL     1       2.862   4.009  20.505  0.00  0.00    +0.000 C 
BRANCH   5  12
ATOM      9  C   UNL     1       1.916   9.538  18.003  0.00  0.00    +0.000 C 
ATOM     10  C   UNL     1       2.074   8.215  18.629  0.00  0.00    +0.000 A 
ATOM     11  N   UNL     1       2.460   7.071  18.110  0.00  0.00    +0.000 NA
ATOM     12  C   UNL     1       2.437   6.234  19.207  0.00  0.00    +0.000 A 
ATOM     13  N   UNL     1       2.027   6.825  20.342  0.00  0.00    +0.000 NA
ATOM     14  O   UNL     1       1.790   8.140  19.959  0.00  0.00    +0.000 OA
ENDBRANCH   5  12
ENDBRANCH   1   5
BRANCH   2  15
ATOM     15  C   UNL     1       6.104   4.408  17.178  0.00  0.00    +0.000 C 
ATOM     16  O   UNL     1       7.308   4.252  17.331  0.00  0.00    +0.000 OA
ATOM     17  N   UNL     1       5.391   4.477  15.995  0.00  0.00    +0.000 N 
ATOM     18  H   UNL     1       4.405   4.712  16.104  0.00  0.00    +0.000 HD
BRANCH  17  19
ATOM     19  C   UNL     1       5.925   4.371  14.696  0.00  0.00    +0.000 A 
ATOM     20  C   UNL     1       5.405   3.507  13.725  0.00  0.00    +0.000 A 
ATOM     21  C   UNL     1       6.008   3.414  12.472  0.00  0.00    +0.000 A 
ATOM     22  F   UNL     1       5.490   2.580  11.560  0.00  0.00    +0.000 F 
ATOM     23  C   UNL     1       7.127   4.170  12.168  0.00  0.00    +0.000 A 
ATOM     24  F   UNL     1       7.715   4.056  10.968  0.00  0.00    +0.000 F 
ATOM     25  C   UNL     1       7.633   5.043  13.118  0.00  0.00    +0.000 A 
ATOM     26  F   UNL     1       8.720   5.778  12.842  0.00  0.00    +0.000 F 
ATOM     27  C   UNL     1       7.034   5.161  14.374  0.00  0.00    +0.000 A 
ENDBRANCH  17  19
ENDBRANCH   2  15
TORSDOF 4
ENDMDL
MODEL 9
REMARK VINA RESULT:      -8.0      1.680      3.119
REMARK  Name = 
REMARK  5 active torsions:
REMARK  status: ('A' for Active; 'I' for Inactive)
REMARK    1  A    between atoms: C_1  and  C_2
REMARK    2  A    between atoms: C_4  and  C_5
REMARK    3  A    between atoms: C_5  and  N_6
REMARK    4  A    between atoms: C_7  and  C_9
REMARK    5  A    between atoms: N_11  and  C_12
REMARK                            x       y       z     vdW  Elec       q    Type
REMARK                         _______ _______ _______ _____ _____    ______ ____
ROOT
ATOM      1  N   UNL     1       6.850   7.037  16.997  0.00  0.00    +0.000 N 
ATOM      2  C   UNL     1       7.729   7.323  18.020  0.00  0.00    +0.000 C 
ATOM      3  O   UNL     1       8.242   6.541  18.806  0.00  0.00    +0.000 OA
ATOM      4  H   UNL     1       6.466   7.867  16.546  0.00  0.00    +0.000 HD
ENDROOT
BRANCH   1   5
ATOM      5  C   UNL     1       6.214   5.726  16.756  0.00  0.00    +0.000 C 
ATOM      6  C   UNL     1       6.569   4.688  17.882  0.00  0.00    +0.000 C 
ATOM      7  C   UNL     1       5.250   5.037  18.579  0.00  0.00    +0.000 C 
ATOM      8  C   UNL     1       4.737   5.562  17.232  0.00  0.00    +0.000 C 
BRANCH   5  12
ATOM      9  C   UNL     1       5.890   3.269  12.402  0.00  0.00    +0.000 C 
ATOM     10  C   UNL     1       6.256   4.113  13.551  0.00  0.00    +0.000 A 
ATOM     11  N   UNL     1       5.635   4.312  14.692  0.00  0.00    +0.000 NA
ATOM     12  C   UNL     1       6.499   5.167  15.346  0.00  0.00    +0.000 A 
ATOM     13  N   UNL     1       7.585   5.505  14.632  0.00  0.00    +0.000 NA
ATOM     14  O   UNL     1       7.427   4.803  13.442  0.00  0.00    +0.000 OA
ENDBRANCH   5  12
ENDBRANCH   1   5
BRANCH   2  15
ATOM     15  C   UNL     1       8.081   8.820  18.079  0.00  0.00    +0.000 C 
ATOM     16  O   UNL     1       7.601   9.558  17.228  0.00  0.00    +0.000 OA
ATOM     17  N   UNL     1       8.982   9.136  19.079  0.00  0.00    +0.000 N 
ATOM     18  H   UNL     1       9.322   8.338  19.615  0.00  0.00    +0.000 HD
BRANCH  17  19
ATOM     19  C   UNL     1       9.536  10.407  19.328  0.00  0.00    +0.000 A 
ATOM     20  C   UNL     1      10.236  11.136  18.360  0.00  0.00    +0.000 A 
ATOM     21  C   UNL     1      10.802  12.369  18.682  0.00  0.00    +0.000 A 
ATOM     22  F   UNL     1      11.467  13.048  17.738  0.00  0.00    +0.000 F 
ATOM     23  C   UNL     1      10.682  12.890  19.960  0.00  0.00    +0.000 A 
ATOM     24  F   UNL     1      11.250  14.065  20.268  0.00  0.00    +0.000 F 
ATOM     25  C   UNL     1       9.971  12.181  20.916  0.00  0.00    +0.000 A 
ATOM     26  F   UNL     1       9.850  12.668  22.159  0.00  0.00    +0.000 F 
ATOM     27  C   UNL     1       9.384  10.952  20.608  0.00  0.00    +0.000 A 
ENDBRANCH  17  19
ENDBRANCH   2  15
TORSDOF 4
ENDMDL
