MODEL 1
REMARK VINA RESULT:      -8.5      0.000      0.000
REMARK  Name = 
REMARK  7 active torsions:
REMARK  status: ('A' for Active; 'I' for Inactive)
REMARK    1  A    between atoms: C_1  and  C_2
REMARK    2  A    between atoms: C_4  and  C_5
REMARK    3  A    between atoms: C_5  and  N_6
REMARK    4  A    between atoms: C_5  and  C_18
REMARK    5  A    between atoms: C_7  and  C_9
REMARK    6  A    between atoms: C_9  and  O_10
REMARK    7  A    between atoms: O_10  and  C_11
REMARK                            x       y       z     vdW  Elec       q    Type
REMARK                         _______ _______ _______ _____ _____    ______ ____
ROOT
ATOM      1  C   UNL     1       3.493   6.287  18.337  0.00  0.00    +0.000 C 
ENDROOT
BRANCH   1   2
ATOM      2  C   UNL     1       2.524   7.254  19.002  0.00  0.00    +0.000 A 
ATOM      3  C   UNL     1       2.066   7.075  20.323  0.00  0.00    +0.000 A 
ATOM      4  C   UNL     1       1.246   8.030  20.930  0.00  0.00    +0.000 A 
ATOM      5  C   UNL     1       0.883   9.178  20.232  0.00  0.00    +0.000 A 
ATOM      6  C   UNL     1       1.341   9.375  18.927  0.00  0.00    +0.000 A 
ATOM      7  C   UNL     1       2.130   8.412  18.306  0.00  0.00    +0.000 A 
ATOM      8  O   UNL     1       1.074  10.504  18.195  0.00  0.00    +0.000 OA
ATOM      9  C   UNL     1       0.647  11.570  19.048  0.00  0.00    +0.000 C 
ATOM     10  C   UNL     1      -0.427  11.078  20.005  0.00  0.00    +0.000 C 
ATOM     11  O   UNL     1       0.098  10.086  20.896  0.00  0.00    +0.000 OA
ENDBRANCH   1   2
BRANCH   1  15
ATOM     12  C   UNL     1       1.834   1.739  19.394  0.00  0.00    +0.000 C 
ATOM     13  C   UNL     1       2.137   3.038  18.771  0.00  0.00    +0.000 A 
ATOM     14  N   UNL     1       3.124   3.866  19.018  0.00  0.00    +0.000 NA
ATOM     15  C   UNL     1       2.773   4.974  18.271  0.00  0.00    +0.000 A 
ATOM     16  N   UNL     1       1.677   4.801  17.514  0.00  0.00    +0.000 NA
ATOM     17  O   UNL     1       1.231   3.527  17.878  0.00  0.00    +0.000 OA
ENDBRANCH   1  15
BRANCH   1  18
ATOM     18  N   UNL     1       4.032   6.833  17.088  0.00  0.00    +0.000 N 
ATOM     19  C   UNL     1       4.995   6.455  16.213  0.00  0.00    +0.000 C 
ATOM     20  O   UNL     1       5.200   7.202  15.250  0.00  0.00    +0.000 OA
ATOM     21  H   UNL     1       3.616   7.710  16.804  0.00  0.00    +0.000 HD
BRANCH  19  22
ATOM     22  C   UNL     1       5.790   5.170  16.364  0.00  0.00    +0.000 C 
BRANCH  22  23
ATOM     23  O   UNL     1       6.934   5.184  15.520  0.00  0.00    +0.000 OA
BRANCH  23  24
ATOM     24  C   UNL     1       6.780   4.669  14.266  0.00  0.00    +0.000 A 
ATOM     25  C   UNL     1       5.655   3.859  14.073  0.00  0.00    +0.000 A 
ATOM     26  C   UNL     1       5.426   3.264  12.829  0.00  0.00    +0.000 A 
ATOM     27  C   UNL     1       6.314   3.479  11.776  0.00  0.00    +0.000 A 
ATOM     28  C   UNL     1       7.403   4.326  11.949  0.00  0.00    +0.000 A 
ATOM     29  C   UNL     1       7.611   4.939  13.182  0.00  0.00    +0.000 A 
ATOM     30  F   UNL     1       8.616   5.823  13.278  0.00  0.00    +0.000 F 
ENDBRANCH  23  24
ENDBRANCH  22  23
ENDBRANCH  19  22
ENDBRANCH   1  18
TORSDOF 6
ENDMDL
MODEL 2
REMARK VINA RESULT:      -8.5      3.008      7.689
REMARK  Name = 
REMARK  7 active torsions:
REMARK  status: ('A' for Active; 'I' for Inactive)
REMARK    1  A    between atoms: C_1  and  C_2
REMARK    2  A    between atoms: C_4  and  C_5
REMARK    3  A    between atoms: C_5  and  N_6
REMARK    4  A    between atoms: C_5  and  C_18
REMARK    5  A    between atoms: C_7  and  C_9
REMARK    6  A    between atoms: C_9  and  O_10
REMARK    7  A    between atoms: O_10  and  C_11
REMARK                            x       y       z     vdW  Elec       q    Type
REMARK                         _______ _______ _______ _____ _____    ______ ____
ROOT
ATOM      1  C   UNL     1       5.402   6.104  17.575  0.00  0.00    +0.000 C 
ENDROOT
BRANCH   1   2
ATOM      2  C   UNL     1       5.661   5.285  16.319  0.00  0.00    +0.000 A 
ATOM      3  C   UNL     1       4.882   4.161  15.977  0.00  0.00    +0.000 A 
ATOM      4  C   UNL     1       5.094   3.487  14.771  0.00  0.00    +0.000 A 
ATOM      5  C   UNL     1       6.076   3.931  13.890  0.00  0.00    +0.000 A 
ATOM      6  C   UNL     1       6.845   5.051  14.211  0.00  0.00    +0.000 A 
ATOM      7  C   UNL     1       6.661   5.706  15.424  0.00  0.00    +0.000 A 
ATOM      8  O   UNL     1       7.791   5.583  13.372  0.00  0.00    +0.000 OA
ATOM      9  C   UNL     1       7.597   5.119  12.033  0.00  0.00    +0.000 C 
ATOM     10  C   UNL     1       7.410   3.610  12.022  0.00  0.00    +0.000 C 
ATOM     11  O   UNL     1       6.213   3.238  12.715  0.00  0.00    +0.000 OA
ENDBRANCH   1   2
BRANCH   1  15
ATOM     12  C   UNL     1       8.723   9.753  18.038  0.00  0.00    +0.000 C 
ATOM     13  C   UNL     1       8.026   8.458  17.977  0.00  0.00    +0.000 A 
ATOM     14  N   UNL     1       6.898   8.150  17.381  0.00  0.00    +0.000 NA
ATOM     15  C   UNL     1       6.669   6.865  17.831  0.00  0.00    +0.000 A 
ATOM     16  N   UNL     1       7.661   6.361  18.584  0.00  0.00    +0.000 NA
ATOM     17  O   UNL     1       8.545   7.435  18.715  0.00  0.00    +0.000 OA
ENDBRANCH   1  15
BRANCH   1  18
ATOM     18  N   UNL     1       4.155   6.869  17.477  0.00  0.00    +0.000 N 
ATOM     19  C   UNL     1       3.077   7.051  18.276  0.00  0.00    +0.000 C 
ATOM     20  O   UNL     1       2.172   7.770  17.839  0.00  0.00    +0.000 OA
ATOM     21  H   UNL     1       4.043   7.370  16.605  0.00  0.00    +0.000 HD
BRANCH  19  22
ATOM     22  C   UNL     1       2.960   6.436  19.660  0.00  0.00    +0.000 C 
BRANCH  22  23
ATOM     23  O   UNL     1       2.000   5.388  19.665  0.00  0.00    +0.000 OA
BRANCH  23  24
ATOM     24  C   UNL     1       2.409   4.176  19.191  0.00  0.00    +0.000 A 
ATOM     25  C   UNL     1       3.377   3.516  19.957  0.00  0.00    +0.000 A 
ATOM     26  C   UNL     1       3.878   2.280  19.539  0.00  0.00    +0.000 A 
ATOM     27  C   UNL     1       3.412   1.698  18.362  0.00  0.00    +0.000 A 
ATOM     28  C   UNL     1       2.411   2.324  17.627  0.00  0.00    +0.000 A 
ATOM     29  C   UNL     1       1.895   3.542  18.063  0.00  0.00    +0.000 A 
ATOM     30  F   UNL     1       0.865   4.064  17.380  0.00  0.00    +0.000 F 
ENDBRANCH  23  24
ENDBRANCH  22  23
ENDBRANCH  19  22
ENDBRANCH   1  18
TORSDOF 6
ENDMDL
MODEL 3
REMARK VINA RESULT:      -8.3      1.668      4.755
REMARK  Name = 
REMARK  7 active torsions:
REMARK  status: ('A' for Active; 'I' for Inactive)
REMARK    1  A    between atoms: C_1  and  C_2
REMARK    2  A    between atoms: C_4  and  C_5
REMARK    3  A    between atoms: C_5  and  N_6
REMARK    4  A    between atoms: C_5  and  C_18
REMARK    5  A    between atoms: C_7  and  C_9
REMARK    6  A    between atoms: C_9  and  O_10
REMARK    7  A    between atoms: O_10  and  C_11
REMARK                            x       y       z     vdW  Elec       q    Type
REMARK                         _______ _______ _______ _____ _____    ______ ____
ROOT
ATOM      1  C   UNL     1       3.645   7.240  17.486  0.00  0.00    +0.000 C 
ENDROOT
BRANCH   1   2
ATOM      2  C   UNL     1       3.450   5.891  18.164  0.00  0.00    +0.000 A 
ATOM      3  C   UNL     1       4.205   5.494  19.286  0.00  0.00    +0.000 A 
ATOM      4  C   UNL     1       3.936   4.285  19.934  0.00  0.00    +0.000 A 
ATOM      5  C   UNL     1       2.907   3.466  19.479  0.00  0.00    +0.000 A 
ATOM      6  C   UNL     1       2.142   3.855  18.377  0.00  0.00    +0.000 A 
ATOM      7  C   UNL     1       2.427   5.041  17.707  0.00  0.00    +0.000 A 
ATOM      8  O   UNL     1       1.077   3.132  17.904  0.00  0.00    +0.000 OA
ATOM      9  C   UNL     1       0.620   2.201  18.890  0.00  0.00    +0.000 C 
ATOM     10  C   UNL     1       1.796   1.431  19.470  0.00  0.00    +0.000 C 
ATOM     11  O   UNL     1       2.682   2.307  20.177  0.00  0.00    +0.000 OA
ENDBRANCH   1   2
BRANCH   1  15
ATOM     12  C   UNL     1       0.193  10.699  18.303  0.00  0.00    +0.000 C 
ATOM     13  C   UNL     1       1.237   9.669  18.426  0.00  0.00    +0.000 A 
ATOM     14  N   UNL     1       2.119   9.272  17.540  0.00  0.00    +0.000 NA
ATOM     15  C   UNL     1       2.684   8.173  18.158  0.00  0.00    +0.000 A 
ATOM     16  N   UNL     1       2.249   7.964  19.412  0.00  0.00    +0.000 NA
ATOM     17  O   UNL     1       1.257   8.935  19.576  0.00  0.00    +0.000 OA
ENDBRANCH   1  15
BRANCH   1  18
ATOM     18  N   UNL     1       5.059   7.628  17.446  0.00  0.00    +0.000 N 
ATOM     19  C   UNL     1       6.204   7.039  17.026  0.00  0.00    +0.000 C 
ATOM     20  O   UNL     1       7.250   7.678  17.177  0.00  0.00    +0.000 OA
ATOM     21  H   UNL     1       5.250   8.540  17.840  0.00  0.00    +0.000 HD
BRANCH  19  22
ATOM     22  C   UNL     1       6.236   5.668  16.373  0.00  0.00    +0.000 C 
BRANCH  22  23
ATOM     23  O   UNL     1       7.290   5.588  15.423  0.00  0.00    +0.000 OA
BRANCH  23  24
ATOM     24  C   UNL     1       7.016   4.941  14.253  0.00  0.00    +0.000 A 
ATOM     25  C   UNL     1       5.862   4.150  14.249  0.00  0.00    +0.000 A 
ATOM     26  C   UNL     1       5.511   3.427  13.105  0.00  0.00    +0.000 A 
ATOM     27  C   UNL     1       6.307   3.497  11.963  0.00  0.00    +0.000 A 
ATOM     28  C   UNL     1       7.424   4.324  11.944  0.00  0.00    +0.000 A 
ATOM     29  C   UNL     1       7.752   5.064  13.078  0.00  0.00    +0.000 A 
ATOM     30  F   UNL     1       8.780   5.923  12.987  0.00  0.00    +0.000 F 
ENDBRANCH  23  24
ENDBRANCH  22  23
ENDBRANCH  19  22
ENDBRANCH   1  18
TORSDOF 6
ENDMDL
MODEL 4
REMARK VINA RESULT:      -8.3      0.893      1.248
REMARK  Name = 
REMARK  7 active torsions:
REMARK  status: ('A' for Active; 'I' for Inactive)
REMARK    1  A    between atoms: C_1  and  C_2
REMARK    2  A    between atoms: C_4  and  C_5
REMARK    3  A    between atoms: C_5  and  N_6
REMARK    4  A    between atoms: C_5  and  C_18
REMARK    5  A    between atoms: C_7  and  C_9
REMARK    6  A    between atoms: C_9  and  O_10
REMARK    7  A    between atoms: O_10  and  C_11
REMARK                            x       y       z     vdW  Elec       q    Type
REMARK                         _______ _______ _______ _____ _____    ______ ____
ROOT
ATOM      1  C   UNL     1       3.482   6.248  18.290  0.00  0.00    +0.000 C 
ENDROOT
BRANCH   1   2
ATOM      2  C   UNL     1       2.535   7.232  18.962  0.00  0.00    +0.000 A 
ATOM      3  C   UNL     1       2.090   7.064  20.289  0.00  0.00    +0.000 A 
ATOM      4  C   UNL     1       1.291   8.034  20.901  0.00  0.00    +0.000 A 
ATOM      5  C   UNL     1       0.937   9.185  20.202  0.00  0.00    +0.000 A 
ATOM      6  C   UNL     1       1.383   9.370  18.892  0.00  0.00    +0.000 A 
ATOM      7  C   UNL     1       2.151   8.392  18.266  0.00  0.00    +0.000 A 
ATOM      8  O   UNL     1       1.125  10.499  18.159  0.00  0.00    +0.000 OA
ATOM      9  C   UNL     1       0.723  11.575  19.012  0.00  0.00    +0.000 C 
ATOM     10  C   UNL     1      -0.347  11.103  19.983  0.00  0.00    +0.000 C 
ATOM     11  O   UNL     1       0.173  10.106  20.872  0.00  0.00    +0.000 OA
ENDBRANCH   1   2
BRANCH   1  15
ATOM     12  C   UNL     1       1.827   1.714  19.410  0.00  0.00    +0.000 C 
ATOM     13  C   UNL     1       2.116   3.010  18.777  0.00  0.00    +0.000 A 
ATOM     14  N   UNL     1       3.120   3.829  18.984  0.00  0.00    +0.000 NA
ATOM     15  C   UNL     1       2.749   4.941  18.253  0.00  0.00    +0.000 A 
ATOM     16  N   UNL     1       1.621   4.779  17.540  0.00  0.00    +0.000 NA
ATOM     17  O   UNL     1       1.179   3.509  17.921  0.00  0.00    +0.000 OA
ENDBRANCH   1  15
BRANCH   1  18
ATOM     18  N   UNL     1       4.003   6.774  17.025  0.00  0.00    +0.000 N 
ATOM     19  C   UNL     1       5.119   6.564  16.286  0.00  0.00    +0.000 C 
ATOM     20  O   UNL     1       5.237   7.228  15.251  0.00  0.00    +0.000 OA
ATOM     21  H   UNL     1       3.418   7.478  16.596  0.00  0.00    +0.000 HD
BRANCH  19  22
ATOM     22  C   UNL     1       6.183   5.550  16.667  0.00  0.00    +0.000 C 
BRANCH  22  23
ATOM     23  O   UNL     1       7.260   5.578  15.739  0.00  0.00    +0.000 OA
BRANCH  23  24
ATOM     24  C   UNL     1       7.059   4.952  14.544  0.00  0.00    +0.000 A 
ATOM     25  C   UNL     1       7.755   5.482  13.452  0.00  0.00    +0.000 A 
ATOM     26  C   UNL     1       7.594   4.925  12.180  0.00  0.00    +0.000 A 
ATOM     27  C   UNL     1       6.745   3.835  11.996  0.00  0.00    +0.000 A 
ATOM     28  C   UNL     1       6.093   3.271  13.088  0.00  0.00    +0.000 A 
ATOM     29  C   UNL     1       6.279   3.813  14.357  0.00  0.00    +0.000 A 
ATOM     30  F   UNL     1       5.711   3.180  15.395  0.00  0.00    +0.000 F 
ENDBRANCH  23  24
ENDBRANCH  22  23
ENDBRANCH  19  22
ENDBRANCH   1  18
TORSDOF 6
ENDMDL
MODEL 5
REMARK VINA RESULT:      -8.1      2.894      7.600
REMARK  Name = 
REMARK  7 active torsions:
REMARK  status: ('A' for Active; 'I' for Inactive)
REMARK    1  A    between atoms: C_1  and  C_2
REMARK    2  A    between atoms: C_4  and  C_5
REMARK    3  A    between atoms: C_5  and  N_6
REMARK    4  A    between atoms: C_5  and  C_18
REMARK    5  A    between atoms: C_7  and  C_9
REMARK    6  A    between atoms: C_9  and  O_10
REMARK    7  A    between atoms: O_10  and  C_11
REMARK                            x       y       z     vdW  Elec       q    Type
REMARK                         _______ _______ _______ _____ _____    ______ ____
ROOT
ATOM      1  C   UNL     1       5.361   6.293  17.537  0.00  0.00    +0.000 C 
ENDROOT
BRANCH   1   2
ATOM      2  C   UNL     1       5.610   5.422  16.315  0.00  0.00    +0.000 A 
ATOM      3  C   UNL     1       4.805   4.306  16.007  0.00  0.00    +0.000 A 
ATOM      4  C   UNL     1       5.010   3.583  14.828  0.00  0.00    +0.000 A 
ATOM      5  C   UNL     1       6.009   3.969  13.940  0.00  0.00    +0.000 A 
ATOM      6  C   UNL     1       6.805   5.081  14.227  0.00  0.00    +0.000 A 
ATOM      7  C   UNL     1       6.628   5.785  15.414  0.00  0.00    +0.000 A 
ATOM      8  O   UNL     1       7.771   5.557  13.378  0.00  0.00    +0.000 OA
ATOM      9  C   UNL     1       7.576   5.049  12.055  0.00  0.00    +0.000 C 
ATOM     10  C   UNL     1       7.351   3.546  12.097  0.00  0.00    +0.000 C 
ATOM     11  O   UNL     1       6.138   3.230  12.792  0.00  0.00    +0.000 OA
ENDBRANCH   1   2
BRANCH   1  15
ATOM     12  C   UNL     1       8.808   9.817  18.045  0.00  0.00    +0.000 C 
ATOM     13  C   UNL     1       8.067   8.548  17.964  0.00  0.00    +0.000 A 
ATOM     14  N   UNL     1       6.925   8.291  17.372  0.00  0.00    +0.000 NA
ATOM     15  C   UNL     1       6.655   7.005  17.797  0.00  0.00    +0.000 A 
ATOM     16  N   UNL     1       7.636   6.451  18.530  0.00  0.00    +0.000 NA
ATOM     17  O   UNL     1       8.557   7.493  18.675  0.00  0.00    +0.000 OA
ENDBRANCH   1  15
BRANCH   1  18
ATOM     18  N   UNL     1       4.153   7.109  17.387  0.00  0.00    +0.000 N 
ATOM     19  C   UNL     1       3.014   7.277  18.101  0.00  0.00    +0.000 C 
ATOM     20  O   UNL     1       2.174   8.057  17.639  0.00  0.00    +0.000 OA
ATOM     21  H   UNL     1       4.133   7.671  16.546  0.00  0.00    +0.000 HD
BRANCH  19  22
ATOM     22  C   UNL     1       2.757   6.575  19.423  0.00  0.00    +0.000 C 
BRANCH  22  23
ATOM     23  O   UNL     1       1.870   5.479  19.245  0.00  0.00    +0.000 OA
BRANCH  23  24
ATOM     24  C   UNL     1       2.435   4.265  18.983  0.00  0.00    +0.000 A 
ATOM     25  C   UNL     1       1.755   3.461  18.062  0.00  0.00    +0.000 A 
ATOM     26  C   UNL     1       2.243   2.189  17.747  0.00  0.00    +0.000 A 
ATOM     27  C   UNL     1       3.410   1.720  18.346  0.00  0.00    +0.000 A 
ATOM     28  C   UNL     1       4.119   2.537  19.221  0.00  0.00    +0.000 A 
ATOM     29  C   UNL     1       3.643   3.814  19.508  0.00  0.00    +0.000 A 
ATOM     30  F   UNL     1       4.406   4.605  20.279  0.00  0.00    +0.000 F 
ENDBRANCH  23  24
ENDBRANCH  22  23
ENDBRANCH  19  22
ENDBRANCH   1  18
TORSDOF 6
ENDMDL
MODEL 6
REMARK VINA RESULT:      -8.1      1.724      4.619
REMARK  Name = 
REMARK  7 active torsions:
REMARK  status: ('A' for Active; 'I' for Inactive)
REMARK    1  A    between atoms: C_1  and  C_2
REMARK    2  A    between atoms: C_4  and  C_5
REMARK    3  A    between atoms: C_5  and  N_6
REMARK    4  A    between atoms: C_5  and  C_18
REMARK    5  A    between atoms: C_7  and  C_9
REMARK    6  A    between atoms: C_9  and  O_10
REMARK    7  A    between atoms: O_10  and  C_11
REMARK                            x       y       z     vdW  Elec       q    Type
REMARK                         _______ _______ _______ _____ _____    ______ ____
ROOT
ATOM      1  C   UNL     1       3.032   7.317  17.611  0.00  0.00    +0.000 C 
ENDROOT
BRANCH   1   2
ATOM      2  C   UNL     1       2.458   6.051  18.230  0.00  0.00    +0.000 A 
ATOM      3  C   UNL     1       1.821   5.056  17.461  0.00  0.00    +0.000 A 
ATOM      4  C   UNL     1       1.384   3.867  18.053  0.00  0.00    +0.000 A 
ATOM      5  C   UNL     1       1.589   3.652  19.413  0.00  0.00    +0.000 A 
ATOM      6  C   UNL     1       2.231   4.624  20.184  0.00  0.00    +0.000 A 
ATOM      7  C   UNL     1       2.637   5.823  19.607  0.00  0.00    +0.000 A 
ATOM      8  O   UNL     1       2.519   4.463  21.515  0.00  0.00    +0.000 OA
ATOM      9  C   UNL     1       2.457   3.081  21.882  0.00  0.00    +0.000 C 
ATOM     10  C   UNL     1       1.176   2.455  21.355  0.00  0.00    +0.000 C 
ATOM     11  O   UNL     1       1.159   2.454  19.922  0.00  0.00    +0.000 OA
ENDBRANCH   1   2
BRANCH   1  15
ATOM     12  C   UNL     1       0.670  10.306  20.780  0.00  0.00    +0.000 C 
ATOM     13  C   UNL     1       1.235   9.649  19.590  0.00  0.00    +0.000 A 
ATOM     14  N   UNL     1       1.655   8.415  19.445  0.00  0.00    +0.000 NA
ATOM     15  C   UNL     1       2.238   8.448  18.193  0.00  0.00    +0.000 A 
ATOM     16  N   UNL     1       2.091   9.618  17.549  0.00  0.00    +0.000 NA
ATOM     17  O   UNL     1       1.459  10.430  18.495  0.00  0.00    +0.000 OA
ENDBRANCH   1  15
BRANCH   1  18
ATOM     18  N   UNL     1       4.491   7.371  17.739  0.00  0.00    +0.000 N 
ATOM     19  C   UNL     1       5.534   6.828  17.067  0.00  0.00    +0.000 C 
ATOM     20  O   UNL     1       6.666   7.082  17.490  0.00  0.00    +0.000 OA
ATOM     21  H   UNL     1       4.819   7.921  18.522  0.00  0.00    +0.000 HD
BRANCH  19  22
ATOM     22  C   UNL     1       5.359   5.962  15.831  0.00  0.00    +0.000 C 
BRANCH  22  23
ATOM     23  O   UNL     1       6.619   5.517  15.346  0.00  0.00    +0.000 OA
BRANCH  23  24
ATOM     24  C   UNL     1       6.619   4.850  14.156  0.00  0.00    +0.000 A 
ATOM     25  C   UNL     1       5.527   4.005  13.930  0.00  0.00    +0.000 A 
ATOM     26  C   UNL     1       5.451   3.258  12.750  0.00  0.00    +0.000 A 
ATOM     27  C   UNL     1       6.460   3.357  11.794  0.00  0.00    +0.000 A 
ATOM     28  C   UNL     1       7.519   4.236  11.990  0.00  0.00    +0.000 A 
ATOM     29  C   UNL     1       7.575   4.999  13.155  0.00  0.00    +0.000 A 
ATOM     30  F   UNL     1       8.560   5.904  13.261  0.00  0.00    +0.000 F 
ENDBRANCH  23  24
ENDBRANCH  22  23
ENDBRANCH  19  22
ENDBRANCH   1  18
TORSDOF 6
ENDMDL
MODEL 7
REMARK VINA RESULT:      -8.1      2.846      7.971
REMARK  Name = 
REMARK  7 active torsions:
REMARK  status: ('A' for Active; 'I' for Inactive)
REMARK    1  A    between atoms: C_1  and  C_2
REMARK    2  A    between atoms: C_4  and  C_5
REMARK    3  A    between atoms: C_5  and  N_6
REMARK    4  A    between atoms: C_5  and  C_18
REMARK    5  A    between atoms: C_7  and  C_9
REMARK    6  A    between atoms: C_9  and  O_10
REMARK    7  A    between atoms: O_10  and  C_11
REMARK                            x       y       z     vdW  Elec       q    Type
REMARK                         _______ _______ _______ _____ _____    ______ ____
ROOT
ATOM      1  C   UNL     1       5.353   6.400  17.520  0.00  0.00    +0.000 C 
ENDROOT
BRANCH   1   2
ATOM      2  C   UNL     1       5.591   5.509  16.310  0.00  0.00    +0.000 A 
ATOM      3  C   UNL     1       4.764   4.407  16.009  0.00  0.00    +0.000 A 
ATOM      4  C   UNL     1       4.962   3.666  14.841  0.00  0.00    +0.000 A 
ATOM      5  C   UNL     1       5.975   4.020  13.956  0.00  0.00    +0.000 A 
ATOM      6  C   UNL     1       6.792   5.118  14.235  0.00  0.00    +0.000 A 
ATOM      7  C   UNL     1       6.622   5.839  15.412  0.00  0.00    +0.000 A 
ATOM      8  O   UNL     1       7.774   5.563  13.387  0.00  0.00    +0.000 OA
ATOM      9  C   UNL     1       7.577   5.043  12.069  0.00  0.00    +0.000 C 
ATOM     10  C   UNL     1       7.320   3.546  12.127  0.00  0.00    +0.000 C 
ATOM     11  O   UNL     1       6.096   3.265  12.817  0.00  0.00    +0.000 OA
ENDBRANCH   1   2
BRANCH   1  15
ATOM     12  C   UNL     1       8.929   9.776  18.130  0.00  0.00    +0.000 C 
ATOM     13  C   UNL     1       8.140   8.539  18.017  0.00  0.00    +0.000 A 
ATOM     14  N   UNL     1       6.994   8.338  17.410  0.00  0.00    +0.000 NA
ATOM     15  C   UNL     1       6.671   7.055  17.806  0.00  0.00    +0.000 A 
ATOM     16  N   UNL     1       7.622   6.450  18.537  0.00  0.00    +0.000 NA
ATOM     17  O   UNL     1       8.581   7.451  18.711  0.00  0.00    +0.000 OA
ENDBRANCH   1  15
BRANCH   1  18
ATOM     18  N   UNL     1       4.186   7.267  17.335  0.00  0.00    +0.000 N 
ATOM     19  C   UNL     1       2.983   7.399  17.944  0.00  0.00    +0.000 C 
ATOM     20  O   UNL     1       2.214   8.251  17.485  0.00  0.00    +0.000 OA
ATOM     21  H   UNL     1       4.267   7.914  16.561  0.00  0.00    +0.000 HD
BRANCH  19  22
ATOM     22  C   UNL     1       2.573   6.574  19.151  0.00  0.00    +0.000 C 
BRANCH  22  23
ATOM     23  O   UNL     1       2.127   5.285  18.751  0.00  0.00    +0.000 OA
BRANCH  23  24
ATOM     24  C   UNL     1       2.255   4.278  19.663  0.00  0.00    +0.000 A 
ATOM     25  C   UNL     1       1.097   3.950  20.376  0.00  0.00    +0.000 A 
ATOM     26  C   UNL     1       1.134   2.950  21.352  0.00  0.00    +0.000 A 
ATOM     27  C   UNL     1       2.323   2.272  21.613  0.00  0.00    +0.000 A 
ATOM     28  C   UNL     1       3.463   2.557  20.869  0.00  0.00    +0.000 A 
ATOM     29  C   UNL     1       3.412   3.535  19.879  0.00  0.00    +0.000 A 
ATOM     30  F   UNL     1       4.505   3.711  19.119  0.00  0.00    +0.000 F 
ENDBRANCH  23  24
ENDBRANCH  22  23
ENDBRANCH  19  22
ENDBRANCH   1  18
TORSDOF 6
ENDMDL
MODEL 8
REMARK VINA RESULT:      -8.1      3.138      5.869
REMARK  Name = 
REMARK  7 active torsions:
REMARK  status: ('A' for Active; 'I' for Inactive)
REMARK    1  A    between atoms: C_1  and  C_2
REMARK    2  A    between atoms: C_4  and  C_5
REMARK    3  A    between atoms: C_5  and  N_6
REMARK    4  A    between atoms: C_5  and  C_18
REMARK    5  A    between atoms: C_7  and  C_9
REMARK    6  A    between atoms: C_9  and  O_10
REMARK    7  A    between atoms: O_10  and  C_11
REMARK                            x       y       z     vdW  Elec       q    Type
REMARK                         _______ _______ _______ _____ _____    ______ ____
ROOT
ATOM      1  C   UNL     1       5.335   6.087  16.936  0.00  0.00    +0.000 C 
ENDROOT
BRANCH   1   2
ATOM      2  C   UNL     1       4.227   6.474  17.906  0.00  0.00    +0.000 A 
ATOM      3  C   UNL     1       4.063   5.842  19.155  0.00  0.00    +0.000 A 
ATOM      4  C   UNL     1       3.089   6.284  20.055  0.00  0.00    +0.000 A 
ATOM      5  C   UNL     1       2.277   7.365  19.724  0.00  0.00    +0.000 A 
ATOM      6  C   UNL     1       2.439   8.009  18.495  0.00  0.00    +0.000 A 
ATOM      7  C   UNL     1       3.384   7.552  17.582  0.00  0.00    +0.000 A 
ATOM      8  O   UNL     1       1.717   9.113  18.121  0.00  0.00    +0.000 OA
ATOM      9  C   UNL     1       1.114   9.733  19.260  0.00  0.00    +0.000 C 
ATOM     10  C   UNL     1       0.415   8.690  20.117  0.00  0.00    +0.000 C 
ATOM     11  O   UNL     1       1.360   7.761  20.664  0.00  0.00    +0.000 OA
ENDBRANCH   1   2
BRANCH   1  15
ATOM     12  C   UNL     1       8.596   9.631  18.105  0.00  0.00    +0.000 C 
ATOM     13  C   UNL     1       7.901   8.357  17.859  0.00  0.00    +0.000 A 
ATOM     14  N   UNL     1       6.865   8.112  17.093  0.00  0.00    +0.000 NA
ATOM     15  C   UNL     1       6.561   6.804  17.416  0.00  0.00    +0.000 A 
ATOM     16  N   UNL     1       7.434   6.231  18.263  0.00  0.00    +0.000 NA
ATOM     17  O   UNL     1       8.302   7.277  18.589  0.00  0.00    +0.000 OA
ENDBRANCH   1  15
BRANCH   1  18
ATOM     18  N   UNL     1       5.420   4.635  16.759  0.00  0.00    +0.000 N 
ATOM     19  C   UNL     1       4.521   3.624  16.677  0.00  0.00    +0.000 C 
ATOM     20  O   UNL     1       4.973   2.482  16.548  0.00  0.00    +0.000 OA
ATOM     21  H   UNL     1       6.365   4.277  16.704  0.00  0.00    +0.000 HD
BRANCH  19  22
ATOM     22  C   UNL     1       3.019   3.850  16.713  0.00  0.00    +0.000 C 
BRANCH  22  23
ATOM     23  O   UNL     1       2.362   2.755  17.337  0.00  0.00    +0.000 OA
BRANCH  23  24
ATOM     24  C   UNL     1       2.166   2.841  18.684  0.00  0.00    +0.000 A 
ATOM     25  C   UNL     1       0.964   3.433  19.089  0.00  0.00    +0.000 A 
ATOM     26  C   UNL     1       0.683   3.590  20.450  0.00  0.00    +0.000 A 
ATOM     27  C   UNL     1       1.597   3.154  21.407  0.00  0.00    +0.000 A 
ATOM     28  C   UNL     1       2.768   2.516  21.010  0.00  0.00    +0.000 A 
ATOM     29  C   UNL     1       3.029   2.337  19.654  0.00  0.00    +0.000 A 
ATOM     30  F   UNL     1       4.119   1.632  19.316  0.00  0.00    +0.000 F 
ENDBRANCH  23  24
ENDBRANCH  22  23
ENDBRANCH  19  22
ENDBRANCH   1  18
TORSDOF 6
ENDMDL
MODEL 9
REMARK VINA RESULT:      -8.1      1.008      1.723
REMARK  Name = 
REMARK  7 active torsions:
REMARK  status: ('A' for Active; 'I' for Inactive)
REMARK    1  A    between atoms: C_1  and  C_2
REMARK    2  A    between atoms: C_4  and  C_5
REMARK    3  A    between atoms: C_5  and  N_6
REMARK    4  A    between atoms: C_5  and  C_18
REMARK    5  A    between atoms: C_7  and  C_9
REMARK    6  A    between atoms: C_9  and  O_10
REMARK    7  A    between atoms: O_10  and  C_11
REMARK                            x       y       z     vdW  Elec       q    Type
REMARK                         _______ _______ _______ _____ _____    ______ ____
ROOT
ATOM      1  C   UNL     1       3.783   6.778  18.203  0.00  0.00    +0.000 C 
ENDROOT
BRANCH   1   2
ATOM      2  C   UNL     1       2.736   7.774  18.677  0.00  0.00    +0.000 A 
ATOM      3  C   UNL     1       2.113   8.688  17.804  0.00  0.00    +0.000 A 
ATOM      4  C   UNL     1       1.092   9.528  18.259  0.00  0.00    +0.000 A 
ATOM      5  C   UNL     1       0.674   9.457  19.585  0.00  0.00    +0.000 A 
ATOM      6  C   UNL     1       1.274   8.546  20.458  0.00  0.00    +0.000 A 
ATOM      7  C   UNL     1       2.313   7.732  20.018  0.00  0.00    +0.000 A 
ATOM      8  O   UNL     1       0.880   8.378  21.760  0.00  0.00    +0.000 OA
ATOM      9  C   UNL     1      -0.425   8.925  21.969  0.00  0.00    +0.000 C 
ATOM     10  C   UNL     1      -0.507  10.325  21.381  0.00  0.00    +0.000 C 
ATOM     11  O   UNL     1      -0.348  10.292  19.958  0.00  0.00    +0.000 OA
ENDBRANCH   1   2
BRANCH   1  15
ATOM     12  C   UNL     1       1.185   2.560  18.327  0.00  0.00    +0.000 C 
ATOM     13  C   UNL     1       2.103   3.678  18.597  0.00  0.00    +0.000 A 
ATOM     14  N   UNL     1       2.053   4.916  18.165  0.00  0.00    +0.000 NA
ATOM     15  C   UNL     1       3.263   5.427  18.592  0.00  0.00    +0.000 A 
ATOM     16  N   UNL     1       3.983   4.578  19.345  0.00  0.00    +0.000 NA
ATOM     17  O   UNL     1       3.229   3.401  19.315  0.00  0.00    +0.000 OA
ENDBRANCH   1  15
BRANCH   1  18
ATOM     18  N   UNL     1       4.140   6.993  16.797  0.00  0.00    +0.000 N 
ATOM     19  C   UNL     1       5.119   6.543  15.976  0.00  0.00    +0.000 C 
ATOM     20  O   UNL     1       5.121   6.974  14.818  0.00  0.00    +0.000 OA
ATOM     21  H   UNL     1       3.538   7.645  16.311  0.00  0.00    +0.000 HD
BRANCH  19  22
ATOM     22  C   UNL     1       6.169   5.538  16.417  0.00  0.00    +0.000 C 
BRANCH  22  23
ATOM     23  O   UNL     1       7.242   5.490  15.485  0.00  0.00    +0.000 OA
BRANCH  23  24
ATOM     24  C   UNL     1       7.005   4.845  14.306  0.00  0.00    +0.000 A 
ATOM     25  C   UNL     1       5.924   3.955  14.304  0.00  0.00    +0.000 A 
ATOM     26  C   UNL     1       5.618   3.227  13.150  0.00  0.00    +0.000 A 
ATOM     27  C   UNL     1       6.384   3.389  11.997  0.00  0.00    +0.000 A 
ATOM     28  C   UNL     1       7.424   4.312  11.979  0.00  0.00    +0.000 A 
ATOM     29  C   UNL     1       7.707   5.055  13.123  0.00  0.00    +0.000 A 
ATOM     30  F   UNL     1       8.653   6.003  13.033  0.00  0.00    +0.000 F 
ENDBRANCH  23  24
ENDBRANCH  22  23
ENDBRANCH  19  22
ENDBRANCH   1  18
TORSDOF 6
ENDMDL
