MODEL 1
REMARK VINA RESULT:      -8.9      0.000      0.000
REMARK  Name = 
REMARK  7 active torsions:
REMARK  status: ('A' for Active; 'I' for Inactive)
REMARK    1  A    between atoms: C_1  and  C_2
REMARK    2  A    between atoms: C_5  and  C_6
REMARK    3  A    between atoms: C_8  and  N_9
REMARK    4  A    between atoms: C_10  and  C_12
REMARK    5  A    between atoms: N_14  and  C_15
REMARK    6  A    between atoms: C_17  and  C_18
REMARK    7  A    between atoms: C_26  and  C_27
REMARK                            x       y       z     vdW  Elec       q    Type
REMARK                         _______ _______ _______ _____ _____    ______ ____
ROOT
ATOM      1  N   UNL     1       1.686   8.862  17.718  0.00  0.00    +0.000 N 
ATOM      2  C   UNL     1       2.281   7.945  18.576  0.00  0.00    +0.000 C 
ATOM      3  O   UNL     1       2.090   7.893  19.786  0.00  0.00    +0.000 OA
ATOM      4  H   UNL     1       1.705   8.645  16.731  0.00  0.00    +0.000 HD
ENDROOT
BRANCH   1   7
ATOM      5  C   UNL     1      -1.249  11.161  18.204  0.00  0.00    +0.000 A 
ATOM      6  C   UNL     1      -0.460  10.060  17.819  0.00  0.00    +0.000 A 
ATOM      7  C   UNL     1       0.898   9.960  18.132  0.00  0.00    +0.000 A 
ATOM      8  C   UNL     1       1.480  10.970  18.893  0.00  0.00    +0.000 A 
ATOM      9  C   UNL     1       0.727  12.084  19.280  0.00  0.00    +0.000 A 
ATOM     10  C   UNL     1      -0.635  12.197  18.939  0.00  0.00    +0.000 A 
ATOM     11  C   UNL     1      -1.394  13.424  19.374  0.00  0.00    +0.000 C 
BRANCH   5  16
ATOM     12  C   UNL     1      -6.195  11.227  18.105  0.00  0.00    +0.000 C 
ATOM     13  C   UNL     1      -4.791  11.221  17.654  0.00  0.00    +0.000 A 
ATOM     14  C   UNL     1      -4.282  11.285  16.381  0.00  0.00    +0.000 A 
ATOM     15  O   UNL     1      -2.926  11.258  16.470  0.00  0.00    +0.000 OA
ATOM     16  C   UNL     1      -2.666  11.186  17.818  0.00  0.00    +0.000 A 
ATOM     17  N   UNL     1      -3.757  11.154  18.560  0.00  0.00    +0.000 NA
ENDBRANCH   5  16
ENDBRANCH   1   7
BRANCH   2  18
ATOM     18  C   UNL     1       3.157   6.974  17.937  0.00  0.00    +0.000 A 
ATOM     19  C   UNL     1       4.308   7.207  17.202  0.00  0.00    +0.000 A 
ATOM     20  N   UNL     1       4.841   5.980  16.933  0.00  0.00    +0.000 N 
ATOM     21  C   UNL     1       6.099   5.693  16.285  0.00  0.00    +0.000 C 
ATOM     22  N   UNL     1       4.096   4.962  17.378  0.00  0.00    +0.000 NA
ATOM     23  C   UNL     1       3.065   5.548  18.004  0.00  0.00    +0.000 A 
BRANCH  23  24
ATOM     24  C   UNL     1       2.006   4.701  18.685  0.00  0.00    +0.000 C 
ATOM     25  C   UNL     1       2.293   4.565  20.193  0.00  0.00    +0.000 C 
ATOM     26  C   UNL     1       1.309   3.633  20.895  0.00  0.00    +0.000 C 
ATOM     27  C   UNL     1       1.272   2.265  20.227  0.00  0.00    +0.000 C 
ATOM     28  C   UNL     1       0.889   2.394  18.757  0.00  0.00    +0.000 C 
ATOM     29  C   UNL     1       1.845   3.321  18.011  0.00  0.00    +0.000 C 
ENDBRANCH  23  24
ENDBRANCH   2  18
TORSDOF 4
ENDMDL
MODEL 2
REMARK VINA RESULT:      -8.8      2.948      3.512
REMARK  Name = 
REMARK  7 active torsions:
REMARK  status: ('A' for Active; 'I' for Inactive)
REMARK    1  A    between atoms: C_1  and  C_2
REMARK    2  A    between atoms: C_5  and  C_6
REMARK    3  A    between atoms: C_8  and  N_9
REMARK    4  A    between atoms: C_10  and  C_12
REMARK    5  A    between atoms: N_14  and  C_15
REMARK    6  A    between atoms: C_17  and  C_18
REMARK    7  A    between atoms: C_26  and  C_27
REMARK                            x       y       z     vdW  Elec       q    Type
REMARK                         _______ _______ _______ _____ _____    ______ ____
ROOT
ATOM      1  N   UNL     1       2.104   8.107  19.834  0.00  0.00    +0.000 N 
ATOM      2  C   UNL     1       2.138   8.068  18.445  0.00  0.00    +0.000 C 
ATOM      3  O   UNL     1       1.492   8.806  17.709  0.00  0.00    +0.000 OA
ATOM      4  H   UNL     1       2.861   7.650  20.324  0.00  0.00    +0.000 HD
ENDROOT
BRANCH   1   7
ATOM      5  C   UNL     1       0.244  11.072  21.206  0.00  0.00    +0.000 A 
ATOM      6  C   UNL     1       1.112  10.277  20.434  0.00  0.00    +0.000 A 
ATOM      7  C   UNL     1       1.211   8.893  20.598  0.00  0.00    +0.000 A 
ATOM      8  C   UNL     1       0.385   8.274  21.532  0.00  0.00    +0.000 A 
ATOM      9  C   UNL     1      -0.479   9.038  22.324  0.00  0.00    +0.000 A 
ATOM     10  C   UNL     1      -0.557  10.437  22.178  0.00  0.00    +0.000 A 
ATOM     11  C   UNL     1      -1.498  11.209  23.066  0.00  0.00    +0.000 C 
BRANCH   5  16
ATOM     12  C   UNL     1      -0.766  15.670  19.683  0.00  0.00    +0.000 C 
ATOM     13  C   UNL     1      -0.130  14.544  20.391  0.00  0.00    +0.000 A 
ATOM     14  C   UNL     1       0.886  14.553  21.313  0.00  0.00    +0.000 A 
ATOM     15  O   UNL     1       1.124  13.269  21.689  0.00  0.00    +0.000 OA
ATOM     16  C   UNL     1       0.218  12.522  20.973  0.00  0.00    +0.000 A 
ATOM     17  N   UNL     1      -0.546  13.249  20.178  0.00  0.00    +0.000 NA
ENDBRANCH   5  16
ENDBRANCH   1   7
BRANCH   2  18
ATOM     18  C   UNL     1       3.050   7.088  17.874  0.00  0.00    +0.000 A 
ATOM     19  C   UNL     1       4.206   7.313  17.143  0.00  0.00    +0.000 A 
ATOM     20  N   UNL     1       4.777   6.089  16.950  0.00  0.00    +0.000 N 
ATOM     21  C   UNL     1       6.052   5.802  16.337  0.00  0.00    +0.000 C 
ATOM     22  N   UNL     1       4.053   5.076  17.440  0.00  0.00    +0.000 NA
ATOM     23  C   UNL     1       2.996   5.665  18.017  0.00  0.00    +0.000 A 
BRANCH  23  24
ATOM     24  C   UNL     1       1.950   4.827  18.729  0.00  0.00    +0.000 C 
ATOM     25  C   UNL     1       2.285   4.679  20.225  0.00  0.00    +0.000 C 
ATOM     26  C   UNL     1       1.314   3.755  20.954  0.00  0.00    +0.000 C 
ATOM     27  C   UNL     1       1.237   2.392  20.281  0.00  0.00    +0.000 C 
ATOM     28  C   UNL     1       0.808   2.534  18.825  0.00  0.00    +0.000 C 
ATOM     29  C   UNL     1       1.750   3.454  18.052  0.00  0.00    +0.000 C 
ENDBRANCH  23  24
ENDBRANCH   2  18
TORSDOF 4
ENDMDL
MODEL 3
REMARK VINA RESULT:      -8.6      2.445      4.067
REMARK  Name = 
REMARK  7 active torsions:
REMARK  status: ('A' for Active; 'I' for Inactive)
REMARK    1  A    between atoms: C_1  and  C_2
REMARK    2  A    between atoms: C_5  and  C_6
REMARK    3  A    between atoms: C_8  and  N_9
REMARK    4  A    between atoms: C_10  and  C_12
REMARK    5  A    between atoms: N_14  and  C_15
REMARK    6  A    between atoms: C_17  and  C_18
REMARK    7  A    between atoms: C_26  and  C_27
REMARK                            x       y       z     vdW  Elec       q    Type
REMARK                         _______ _______ _______ _____ _____    ______ ____
ROOT
ATOM      1  N   UNL     1       2.103   8.814  17.596  0.00  0.00    +0.000 N 
ATOM      2  C   UNL     1       2.556   7.812  18.445  0.00  0.00    +0.000 C 
ATOM      3  O   UNL     1       2.309   7.748  19.645  0.00  0.00    +0.000 OA
ATOM      4  H   UNL     1       2.139   8.625  16.604  0.00  0.00    +0.000 HD
ENDROOT
BRANCH   1   7
ATOM      5  C   UNL     1       1.439  12.340  18.721  0.00  0.00    +0.000 A 
ATOM      6  C   UNL     1       2.099  11.178  18.279  0.00  0.00    +0.000 A 
ATOM      7  C   UNL     1       1.426   9.983  18.015  0.00  0.00    +0.000 A 
ATOM      8  C   UNL     1       0.041   9.957  18.151  0.00  0.00    +0.000 A 
ATOM      9  C   UNL     1      -0.644  11.091  18.601  0.00  0.00    +0.000 A 
ATOM     10  C   UNL     1       0.041  12.287  18.895  0.00  0.00    +0.000 A 
ATOM     11  C   UNL     1      -0.748  13.474  19.386  0.00  0.00    +0.000 C 
BRANCH   5  16
ATOM     12  C   UNL     1       3.884  16.632  18.449  0.00  0.00    +0.000 C 
ATOM     13  C   UNL     1       3.312  15.386  18.989  0.00  0.00    +0.000 A 
ATOM     14  C   UNL     1       3.353  14.887  20.267  0.00  0.00    +0.000 A 
ATOM     15  O   UNL     1       2.674  13.710  20.280  0.00  0.00    +0.000 OA
ATOM     16  C   UNL     1       2.233  13.547  18.988  0.00  0.00    +0.000 A 
ATOM     17  N   UNL     1       2.601  14.526  18.183  0.00  0.00    +0.000 NA
ENDBRANCH   5  16
ENDBRANCH   1   7
BRANCH   2  18
ATOM     18  C   UNL     1       3.343   6.766  17.808  0.00  0.00    +0.000 A 
ATOM     19  C   UNL     1       4.488   6.900  17.040  0.00  0.00    +0.000 A 
ATOM     20  N   UNL     1       4.925   5.632  16.786  0.00  0.00    +0.000 N 
ATOM     21  C   UNL     1       6.141   5.241  16.115  0.00  0.00    +0.000 C 
ATOM     22  N   UNL     1       4.121   4.681  17.274  0.00  0.00    +0.000 NA
ATOM     23  C   UNL     1       3.150   5.352  17.910  0.00  0.00    +0.000 A 
BRANCH  23  24
ATOM     24  C   UNL     1       2.052   4.599  18.637  0.00  0.00    +0.000 C 
ATOM     25  C   UNL     1       2.350   4.507  20.146  0.00  0.00    +0.000 C 
ATOM     26  C   UNL     1       1.321   3.665  20.896  0.00  0.00    +0.000 C 
ATOM     27  C   UNL     1       1.193   2.276  20.285  0.00  0.00    +0.000 C 
ATOM     28  C   UNL     1       0.800   2.369  18.815  0.00  0.00    +0.000 C 
ATOM     29  C   UNL     1       1.800   3.206  18.021  0.00  0.00    +0.000 C 
ENDBRANCH  23  24
ENDBRANCH   2  18
TORSDOF 4
ENDMDL
MODEL 4
REMARK VINA RESULT:      -8.5      2.207      3.883
REMARK  Name = 
REMARK  7 active torsions:
REMARK  status: ('A' for Active; 'I' for Inactive)
REMARK    1  A    between atoms: C_1  and  C_2
REMARK    2  A    between atoms: C_5  and  C_6
REMARK    3  A    between atoms: C_8  and  N_9
REMARK    4  A    between atoms: C_10  and  C_12
REMARK    5  A    between atoms: N_14  and  C_15
REMARK    6  A    between atoms: C_17  and  C_18
REMARK    7  A    between atoms: C_26  and  C_27
REMARK                            x       y       z     vdW  Elec       q    Type
REMARK                         _______ _______ _______ _____ _____    ______ ____
ROOT
ATOM      1  N   UNL     1       1.771   8.919  17.788  0.00  0.00    +0.000 N 
ATOM      2  C   UNL     1       2.334   7.943  18.601  0.00  0.00    +0.000 C 
ATOM      3  O   UNL     1       2.149   7.848  19.810  0.00  0.00    +0.000 OA
ATOM      4  H   UNL     1       1.774   8.744  16.793  0.00  0.00    +0.000 HD
ENDROOT
BRANCH   1   7
ATOM      5  C   UNL     1       0.925  12.250  19.313  0.00  0.00    +0.000 A 
ATOM      6  C   UNL     1       1.651  11.148  18.823  0.00  0.00    +0.000 A 
ATOM      7  C   UNL     1       1.033  10.032  18.254  0.00  0.00    +0.000 A 
ATOM      8  C   UNL     1      -0.353  10.032  18.127  0.00  0.00    +0.000 A 
ATOM      9  C   UNL     1      -1.105  11.107  18.615  0.00  0.00    +0.000 A 
ATOM     10  C   UNL     1      -0.482  12.219  19.216  0.00  0.00    +0.000 A 
ATOM     11  C   UNL     1      -1.343  13.342  19.734  0.00  0.00    +0.000 C 
BRANCH   5  16
ATOM     12  C   UNL     1       3.388  15.326  22.305  0.00  0.00    +0.000 C 
ATOM     13  C   UNL     1       2.732  14.776  21.104  0.00  0.00    +0.000 A 
ATOM     14  C   UNL     1       2.629  15.308  19.844  0.00  0.00    +0.000 A 
ATOM     15  O   UNL     1       1.941  14.427  19.071  0.00  0.00    +0.000 OA
ATOM     16  C   UNL     1       1.660  13.373  19.909  0.00  0.00    +0.000 A 
ATOM     17  N   UNL     1       2.111  13.548  21.137  0.00  0.00    +0.000 NA
ENDBRANCH   5  16
ENDBRANCH   1   7
BRANCH   2  18
ATOM     18  C   UNL     1       3.162   6.963  17.914  0.00  0.00    +0.000 A 
ATOM     19  C   UNL     1       4.289   7.183  17.139  0.00  0.00    +0.000 A 
ATOM     20  N   UNL     1       4.784   5.950  16.830  0.00  0.00    +0.000 N 
ATOM     21  C   UNL     1       6.009   5.646  16.130  0.00  0.00    +0.000 C 
ATOM     22  N   UNL     1       4.035   4.941  17.289  0.00  0.00    +0.000 NA
ATOM     23  C   UNL     1       3.041   5.539  17.963  0.00  0.00    +0.000 A 
BRANCH  23  24
ATOM     24  C   UNL     1       1.991   4.704  18.671  0.00  0.00    +0.000 C 
ATOM     25  C   UNL     1       2.314   4.568  20.172  0.00  0.00    +0.000 C 
ATOM     26  C   UNL     1       1.338   3.647  20.900  0.00  0.00    +0.000 C 
ATOM     27  C   UNL     1       1.270   2.278  20.236  0.00  0.00    +0.000 C 
ATOM     28  C   UNL     1       0.853   2.409  18.776  0.00  0.00    +0.000 C 
ATOM     29  C   UNL     1       1.799   3.325  18.004  0.00  0.00    +0.000 C 
ENDBRANCH  23  24
ENDBRANCH   2  18
TORSDOF 4
ENDMDL
MODEL 5
REMARK VINA RESULT:      -8.4      2.493      3.118
REMARK  Name = 
REMARK  7 active torsions:
REMARK  status: ('A' for Active; 'I' for Inactive)
REMARK    1  A    between atoms: C_1  and  C_2
REMARK    2  A    between atoms: C_5  and  C_6
REMARK    3  A    between atoms: C_8  and  N_9
REMARK    4  A    between atoms: C_10  and  C_12
REMARK    5  A    between atoms: N_14  and  C_15
REMARK    6  A    between atoms: C_17  and  C_18
REMARK    7  A    between atoms: C_26  and  C_27
REMARK                            x       y       z     vdW  Elec       q    Type
REMARK                         _______ _______ _______ _____ _____    ______ ____
ROOT
ATOM      1  N   UNL     1       2.257   7.770  19.445  0.00  0.00    +0.000 N 
ATOM      2  C   UNL     1       2.585   7.869  18.098  0.00  0.00    +0.000 C 
ATOM      3  O   UNL     1       2.279   8.808  17.371  0.00  0.00    +0.000 OA
ATOM      4  H   UNL     1       2.779   7.103  19.995  0.00  0.00    +0.000 HD
ENDROOT
BRANCH   1   7
ATOM      5  C   UNL     1       0.353  10.867  20.401  0.00  0.00    +0.000 A 
ATOM      6  C   UNL     1       1.188   9.970  19.710  0.00  0.00    +0.000 A 
ATOM      7  C   UNL     1       1.396   8.655  20.133  0.00  0.00    +0.000 A 
ATOM      8  C   UNL     1       0.712   8.204  21.259  0.00  0.00    +0.000 A 
ATOM      9  C   UNL     1      -0.115   9.075  21.977  0.00  0.00    +0.000 A 
ATOM     10  C   UNL     1      -0.301  10.410  21.564  0.00  0.00    +0.000 A 
ATOM     11  C   UNL     1      -1.195  11.305  22.382  0.00  0.00    +0.000 C 
BRANCH   5  16
ATOM     12  C   UNL     1       0.563  15.749  19.625  0.00  0.00    +0.000 C 
ATOM     13  C   UNL     1       0.230  14.323  19.454  0.00  0.00    +0.000 A 
ATOM     14  C   UNL     1      -0.493  13.708  18.463  0.00  0.00    +0.000 A 
ATOM     15  O   UNL     1      -0.522  12.376  18.731  0.00  0.00    +0.000 OA
ATOM     16  C   UNL     1       0.206  12.236  19.889  0.00  0.00    +0.000 A 
ATOM     17  N   UNL     1       0.667  13.381  20.357  0.00  0.00    +0.000 NA
ENDBRANCH   5  16
ENDBRANCH   1   7
BRANCH   2  18
ATOM     18  C   UNL     1       3.382   6.772  17.570  0.00  0.00    +0.000 A 
ATOM     19  C   UNL     1       4.534   6.838  16.804  0.00  0.00    +0.000 A 
ATOM     20  N   UNL     1       4.979   5.555  16.676  0.00  0.00    +0.000 N 
ATOM     21  C   UNL     1       6.204   5.108  16.056  0.00  0.00    +0.000 C 
ATOM     22  N   UNL     1       4.175   4.649  17.244  0.00  0.00    +0.000 NA
ATOM     23  C   UNL     1       3.195   5.373  17.804  0.00  0.00    +0.000 A 
BRANCH  23  24
ATOM     24  C   UNL     1       2.093   4.686  18.589  0.00  0.00    +0.000 C 
ATOM     25  C   UNL     1       2.447   4.608  20.086  0.00  0.00    +0.000 C 
ATOM     26  C   UNL     1       1.411   3.830  20.893  0.00  0.00    +0.000 C 
ATOM     27  C   UNL     1       1.194   2.437  20.316  0.00  0.00    +0.000 C 
ATOM     28  C   UNL     1       0.747   2.522  18.862  0.00  0.00    +0.000 C 
ATOM     29  C   UNL     1       1.751   3.295  18.012  0.00  0.00    +0.000 C 
ENDBRANCH  23  24
ENDBRANCH   2  18
TORSDOF 4
ENDMDL
MODEL 6
REMARK VINA RESULT:      -8.4      1.665      3.374
REMARK  Name = 
REMARK  7 active torsions:
REMARK  status: ('A' for Active; 'I' for Inactive)
REMARK    1  A    between atoms: C_1  and  C_2
REMARK    2  A    between atoms: C_5  and  C_6
REMARK    3  A    between atoms: C_8  and  N_9
REMARK    4  A    between atoms: C_10  and  C_12
REMARK    5  A    between atoms: N_14  and  C_15
REMARK    6  A    between atoms: C_17  and  C_18
REMARK    7  A    between atoms: C_26  and  C_27
REMARK                            x       y       z     vdW  Elec       q    Type
REMARK                         _______ _______ _______ _____ _____    ______ ____
ROOT
ATOM      1  N   UNL     1       1.424   8.570  19.931  0.00  0.00    +0.000 N 
ATOM      2  C   UNL     1       2.149   7.721  19.103  0.00  0.00    +0.000 C 
ATOM      3  O   UNL     1       2.551   8.013  17.982  0.00  0.00    +0.000 OA
ATOM      4  H   UNL     1       1.382   8.328  20.912  0.00  0.00    +0.000 HD
ENDROOT
BRANCH   1   7
ATOM      5  C   UNL     1      -0.841  11.221  18.525  0.00  0.00    +0.000 A 
ATOM      6  C   UNL     1      -0.333   9.973  18.935  0.00  0.00    +0.000 A 
ATOM      7  C   UNL     1       0.914   9.831  19.547  0.00  0.00    +0.000 A 
ATOM      8  C   UNL     1       1.663  10.977  19.801  0.00  0.00    +0.000 A 
ATOM      9  C   UNL     1       1.193  12.230  19.395  0.00  0.00    +0.000 A 
ATOM     10  C   UNL     1      -0.052  12.368  18.751  0.00  0.00    +0.000 A 
ATOM     11  C   UNL     1      -0.503  13.742  18.326  0.00  0.00    +0.000 C 
BRANCH   5  16
ATOM     12  C   UNL     1      -5.627  11.813  17.421  0.00  0.00    +0.000 C 
ATOM     13  C   UNL     1      -4.195  11.489  17.287  0.00  0.00    +0.000 A 
ATOM     14  C   UNL     1      -3.498  11.045  16.191  0.00  0.00    +0.000 A 
ATOM     15  O   UNL     1      -2.197  10.895  16.553  0.00  0.00    +0.000 OA
ATOM     16  C   UNL     1      -2.157  11.271  17.876  0.00  0.00    +0.000 A 
ATOM     17  N   UNL     1      -3.335  11.626  18.353  0.00  0.00    +0.000 NA
ENDBRANCH   5  16
ENDBRANCH   1   7
BRANCH   2  18
ATOM     18  C   UNL     1       2.459   6.416  19.670  0.00  0.00    +0.000 A 
ATOM     19  C   UNL     1       1.728   5.682  20.589  0.00  0.00    +0.000 A 
ATOM     20  N   UNL     1       2.359   4.478  20.701  0.00  0.00    +0.000 N 
ATOM     21  C   UNL     1       1.924   3.326  21.455  0.00  0.00    +0.000 C 
ATOM     22  N   UNL     1       3.480   4.390  19.976  0.00  0.00    +0.000 NA
ATOM     23  C   UNL     1       3.556   5.563  19.330  0.00  0.00    +0.000 A 
BRANCH  23  24
ATOM     24  C   UNL     1       4.695   5.828  18.364  0.00  0.00    +0.000 C 
ATOM     25  C   UNL     1       4.434   5.152  17.004  0.00  0.00    +0.000 C 
ATOM     26  C   UNL     1       5.606   5.307  16.038  0.00  0.00    +0.000 C 
ATOM     27  C   UNL     1       6.902   4.797  16.655  0.00  0.00    +0.000 C 
ATOM     28  C   UNL     1       7.209   5.539  17.951  0.00  0.00    +0.000 C 
ATOM     29  C   UNL     1       6.062   5.415  18.951  0.00  0.00    +0.000 C 
ENDBRANCH  23  24
ENDBRANCH   2  18
TORSDOF 4
ENDMDL
MODEL 7
REMARK VINA RESULT:      -8.3      0.992      1.102
REMARK  Name = 
REMARK  7 active torsions:
REMARK  status: ('A' for Active; 'I' for Inactive)
REMARK    1  A    between atoms: C_1  and  C_2
REMARK    2  A    between atoms: C_5  and  C_6
REMARK    3  A    between atoms: C_8  and  N_9
REMARK    4  A    between atoms: C_10  and  C_12
REMARK    5  A    between atoms: N_14  and  C_15
REMARK    6  A    between atoms: C_17  and  C_18
REMARK    7  A    between atoms: C_26  and  C_27
REMARK                            x       y       z     vdW  Elec       q    Type
REMARK                         _______ _______ _______ _____ _____    ______ ____
ROOT
ATOM      1  N   UNL     1       2.039   9.100  17.616  0.00  0.00    +0.000 N 
ATOM      2  C   UNL     1       2.414   8.063  18.461  0.00  0.00    +0.000 C 
ATOM      3  O   UNL     1       2.129   7.993  19.651  0.00  0.00    +0.000 OA
ATOM      4  H   UNL     1       2.095   8.925  16.622  0.00  0.00    +0.000 HD
ENDROOT
BRANCH   1   7
ATOM      5  C   UNL     1      -0.615  11.612  18.500  0.00  0.00    +0.000 A 
ATOM      6  C   UNL     1       0.022  10.420  18.108  0.00  0.00    +0.000 A 
ATOM      7  C   UNL     1       1.411  10.296  18.035  0.00  0.00    +0.000 A 
ATOM      8  C   UNL     1       2.195  11.384  18.409  0.00  0.00    +0.000 A 
ATOM      9  C   UNL     1       1.594  12.588  18.790  0.00  0.00    +0.000 A 
ATOM     10  C   UNL     1       0.192  12.720  18.835  0.00  0.00    +0.000 A 
ATOM     11  C   UNL     1      -0.401  14.044  19.244  0.00  0.00    +0.000 C 
BRANCH   5  16
ATOM     12  C   UNL     1      -5.447  11.339  17.476  0.00  0.00    +0.000 C 
ATOM     13  C   UNL     1      -4.188  11.572  18.206  0.00  0.00    +0.000 A 
ATOM     14  C   UNL     1      -3.991  11.979  19.502  0.00  0.00    +0.000 A 
ATOM     15  O   UNL     1      -2.652  12.042  19.723  0.00  0.00    +0.000 OA
ATOM     16  C   UNL     1      -2.083  11.653  18.534  0.00  0.00    +0.000 A 
ATOM     17  N   UNL     1      -2.969  11.370  17.598  0.00  0.00    +0.000 NA
ENDBRANCH   5  16
ENDBRANCH   1   7
BRANCH   2  18
ATOM     18  C   UNL     1       3.165   6.988  17.829  0.00  0.00    +0.000 A 
ATOM     19  C   UNL     1       4.233   7.085  16.952  0.00  0.00    +0.000 A 
ATOM     20  N   UNL     1       4.675   5.811  16.749  0.00  0.00    +0.000 N 
ATOM     21  C   UNL     1       5.835   5.393  15.998  0.00  0.00    +0.000 C 
ATOM     22  N   UNL     1       3.941   4.883  17.374  0.00  0.00    +0.000 NA
ATOM     23  C   UNL     1       3.017   5.582  18.048  0.00  0.00    +0.000 A 
BRANCH  23  24
ATOM     24  C   UNL     1       2.007   4.864  18.923  0.00  0.00    +0.000 C 
ATOM     25  C   UNL     1       2.558   4.656  20.347  0.00  0.00    +0.000 C 
ATOM     26  C   UNL     1       1.613   3.844  21.228  0.00  0.00    +0.000 C 
ATOM     27  C   UNL     1       1.267   2.508  20.583  0.00  0.00    +0.000 C 
ATOM     28  C   UNL     1       0.630   2.721  19.215  0.00  0.00    +0.000 C 
ATOM     29  C   UNL     1       1.538   3.533  18.296  0.00  0.00    +0.000 C 
ENDBRANCH  23  24
ENDBRANCH   2  18
TORSDOF 4
ENDMDL
MODEL 8
REMARK VINA RESULT:      -8.2      1.370      1.409
REMARK  Name = 
REMARK  7 active torsions:
REMARK  status: ('A' for Active; 'I' for Inactive)
REMARK    1  A    between atoms: C_1  and  C_2
REMARK    2  A    between atoms: C_5  and  C_6
REMARK    3  A    between atoms: C_8  and  N_9
REMARK    4  A    between atoms: C_10  and  C_12
REMARK    5  A    between atoms: N_14  and  C_15
REMARK    6  A    between atoms: C_17  and  C_18
REMARK    7  A    between atoms: C_26  and  C_27
REMARK                            x       y       z     vdW  Elec       q    Type
REMARK                         _______ _______ _______ _____ _____    ______ ____
ROOT
ATOM      1  N   UNL     1       2.150   8.129  19.240  0.00  0.00    +0.000 N 
ATOM      2  C   UNL     1       2.697   8.078  17.964  0.00  0.00    +0.000 C 
ATOM      3  O   UNL     1       2.481   8.897  17.077  0.00  0.00    +0.000 OA
ATOM      4  H   UNL     1       2.597   7.571  19.953  0.00  0.00    +0.000 HD
ENDROOT
BRANCH   1   7
ATOM      5  C   UNL     1      -0.887  10.346  19.207  0.00  0.00    +0.000 A 
ATOM      6  C   UNL     1       0.099   9.421  18.816  0.00  0.00    +0.000 A 
ATOM      7  C   UNL     1       1.150   9.040  19.653  0.00  0.00    +0.000 A 
ATOM      8  C   UNL     1       1.194   9.562  20.943  0.00  0.00    +0.000 A 
ATOM      9  C   UNL     1       0.236  10.493  21.359  0.00  0.00    +0.000 A 
ATOM     10  C   UNL     1      -0.806  10.899  20.502  0.00  0.00    +0.000 A 
ATOM     11  C   UNL     1      -1.804  11.913  21.001  0.00  0.00    +0.000 C 
BRANCH   5  16
ATOM     12  C   UNL     1      -5.040  11.880  16.998  0.00  0.00    +0.000 C 
ATOM     13  C   UNL     1      -3.685  11.331  17.194  0.00  0.00    +0.000 A 
ATOM     14  C   UNL     1      -2.772  10.904  16.263  0.00  0.00    +0.000 A 
ATOM     15  O   UNL     1      -1.660  10.490  16.924  0.00  0.00    +0.000 OA
ATOM     16  C   UNL     1      -1.947  10.697  18.253  0.00  0.00    +0.000 A 
ATOM     17  N   UNL     1      -3.153  11.193  18.456  0.00  0.00    +0.000 NA
ENDBRANCH   5  16
ENDBRANCH   1   7
BRANCH   2  18
ATOM     18  C   UNL     1       3.615   6.974  17.726  0.00  0.00    +0.000 A 
ATOM     19  C   UNL     1       4.884   7.016  17.172  0.00  0.00    +0.000 A 
ATOM     20  N   UNL     1       5.390   5.754  17.285  0.00  0.00    +0.000 N 
ATOM     21  C   UNL     1       6.722   5.309  16.952  0.00  0.00    +0.000 C 
ATOM     22  N   UNL     1       4.528   4.876  17.811  0.00  0.00    +0.000 NA
ATOM     23  C   UNL     1       3.438   5.603  18.096  0.00  0.00    +0.000 A 
BRANCH  23  24
ATOM     24  C   UNL     1       2.237   4.951  18.754  0.00  0.00    +0.000 C 
ATOM     25  C   UNL     1       2.499   4.691  20.250  0.00  0.00    +0.000 C 
ATOM     26  C   UNL     1       1.354   3.939  20.923  0.00  0.00    +0.000 C 
ATOM     27  C   UNL     1       1.044   2.638  20.195  0.00  0.00    +0.000 C 
ATOM     28  C   UNL     1       0.687   2.909  18.738  0.00  0.00    +0.000 C 
ATOM     29  C   UNL     1       1.803   3.663  18.021  0.00  0.00    +0.000 C 
ENDBRANCH  23  24
ENDBRANCH   2  18
TORSDOF 4
ENDMDL
MODEL 9
REMARK VINA RESULT:      -8.2      1.854      3.571
REMARK  Name = 
REMARK  7 active torsions:
REMARK  status: ('A' for Active; 'I' for Inactive)
REMARK    1  A    between atoms: C_1  and  C_2
REMARK    2  A    between atoms: C_5  and  C_6
REMARK    3  A    between atoms: C_8  and  N_9
REMARK    4  A    between atoms: C_10  and  C_12
REMARK    5  A    between atoms: N_14  and  C_15
REMARK    6  A    between atoms: C_17  and  C_18
REMARK    7  A    between atoms: C_26  and  C_27
REMARK                            x       y       z     vdW  Elec       q    Type
REMARK                         _______ _______ _______ _____ _____    ______ ____
ROOT
ATOM      1  N   UNL     1       1.430   8.338  20.073  0.00  0.00    +0.000 N 
ATOM      2  C   UNL     1       2.171   7.523  19.227  0.00  0.00    +0.000 C 
ATOM      3  O   UNL     1       2.550   7.841  18.105  0.00  0.00    +0.000 OA
ATOM      4  H   UNL     1       1.408   8.084  21.051  0.00  0.00    +0.000 HD
ENDROOT
BRANCH   1   7
ATOM      5  C   UNL     1      -0.775  10.926  18.468  0.00  0.00    +0.000 A 
ATOM      6  C   UNL     1      -0.228   9.689  18.857  0.00  0.00    +0.000 A 
ATOM      7  C   UNL     1       0.874   9.586  19.709  0.00  0.00    +0.000 A 
ATOM      8  C   UNL     1       1.423  10.755  20.229  0.00  0.00    +0.000 A 
ATOM      9  C   UNL     1       0.911  12.002  19.852  0.00  0.00    +0.000 A 
ATOM     10  C   UNL     1      -0.182  12.104  18.969  0.00  0.00    +0.000 A 
ATOM     11  C   UNL     1      -0.684  13.474  18.590  0.00  0.00    +0.000 C 
BRANCH   5  16
ATOM     12  C   UNL     1      -3.888  10.367  14.664  0.00  0.00    +0.000 C 
ATOM     13  C   UNL     1      -3.354  10.750  15.984  0.00  0.00    +0.000 A 
ATOM     14  C   UNL     1      -3.980  11.374  17.033  0.00  0.00    +0.000 A 
ATOM     15  O   UNL     1      -3.080  11.506  18.042  0.00  0.00    +0.000 OA
ATOM     16  C   UNL     1      -1.926  10.936  17.556  0.00  0.00    +0.000 A 
ATOM     17  N   UNL     1      -2.048  10.479  16.324  0.00  0.00    +0.000 NA
ENDBRANCH   5  16
ENDBRANCH   1   7
BRANCH   2  18
ATOM     18  C   UNL     1       2.532   6.223  19.774  0.00  0.00    +0.000 A 
ATOM     19  C   UNL     1       1.833   5.452  20.688  0.00  0.00    +0.000 A 
ATOM     20  N   UNL     1       2.506   4.269  20.781  0.00  0.00    +0.000 N 
ATOM     21  C   UNL     1       2.118   3.093  21.522  0.00  0.00    +0.000 C 
ATOM     22  N   UNL     1       3.625   4.231  20.048  0.00  0.00    +0.000 NA
ATOM     23  C   UNL     1       3.656   5.413  19.417  0.00  0.00    +0.000 A 
BRANCH  23  24
ATOM     24  C   UNL     1       4.778   5.731  18.447  0.00  0.00    +0.000 C 
ATOM     25  C   UNL     1       4.530   5.068  17.079  0.00  0.00    +0.000 C 
ATOM     26  C   UNL     1       5.690   5.277  16.108  0.00  0.00    +0.000 C 
ATOM     27  C   UNL     1       7.005   4.800  16.709  0.00  0.00    +0.000 C 
ATOM     28  C   UNL     1       7.297   5.531  18.014  0.00  0.00    +0.000 C 
ATOM     29  C   UNL     1       6.162   5.355  19.019  0.00  0.00    +0.000 C 
ENDBRANCH  23  24
ENDBRANCH   2  18
TORSDOF 4
ENDMDL
