MODEL 1
REMARK VINA RESULT:      -8.5      0.000      0.000
REMARK  Name = 
REMARK  4 active torsions:
REMARK  status: ('A' for Active; 'I' for Inactive)
REMARK    1  A    between atoms: C_2  and  C_16
REMARK    2  A    between atoms: N_3  and  C_4
REMARK    3  A    between atoms: N_7  and  C_8
REMARK    4  A    between atoms: C_18  and  N_19
REMARK                            x       y       z     vdW  Elec       q    Type
REMARK                         _______ _______ _______ _____ _____    ______ ____
ROOT
ATOM      1  O   UNL     1       8.231   6.737  18.846  0.00  0.00    +0.000 OA
ATOM      2  C   UNL     1       7.621   7.146  17.862  0.00  0.00    +0.000 C 
ATOM      3  N   UNL     1       7.592   8.451  17.418  0.00  0.00    +0.000 N 
ATOM      4  H   UNL     1       7.016   8.658  16.607  0.00  0.00    +0.000 HD
ENDROOT
BRANCH   2   5
ATOM      5  C   UNL     1       6.829   6.187  17.035  0.00  0.00    +0.000 A 
ATOM      6  C   UNL     1       5.636   5.710  17.559  0.00  0.00    +0.000 A 
ATOM      7  C   UNL     1       4.934   4.756  16.830  0.00  0.00    +0.000 A 
ATOM      8  C   UNL     1       5.451   4.324  15.604  0.00  0.00    +0.000 A 
ATOM      9  C   UNL     1       6.639   4.883  15.153  0.00  0.00    +0.000 A 
ATOM     10  N   UNL     1       7.347   5.813  15.836  0.00  0.00    +0.000 NA
BRANCH   7  11
ATOM     11  N   UNL     1       3.721   4.215  17.329  0.00  0.00    +0.000 N 
ATOM     12  C   UNL     1       2.611   4.900  17.780  0.00  0.00    +0.000 A 
ATOM     13  C   UNL     1       1.693   3.962  18.188  0.00  0.00    +0.000 A 
ATOM     14  C   UNL     1       2.321   2.734  17.945  0.00  0.00    +0.000 A 
ATOM     15  N   UNL     1       3.538   2.874  17.417  0.00  0.00    +0.000 NA
ENDBRANCH   7  11
ENDBRANCH   2   5
BRANCH   3  16
ATOM     16  C   UNL     1       8.300   9.469  18.025  0.00  0.00    +0.000 A 
ATOM     17  C   UNL     1       9.118   9.473  19.168  0.00  0.00    +0.000 A 
ATOM     18  N   UNL     1       9.635  10.676  19.423  0.00  0.00    +0.000 NA
ATOM     19  N   UNL     1       9.119  11.485  18.458  0.00  0.00    +0.000 N 
ATOM     20  C   UNL     1       8.340  10.765  17.574  0.00  0.00    +0.000 A 
BRANCH  19  21
ATOM     21  C   UNL     1       9.411  12.872  18.466  0.00  0.00    +0.000 A 
ATOM     22  C   UNL     1       8.691  13.722  19.326  0.00  0.00    +0.000 A 
ATOM     23  C   UNL     1       8.954  15.095  19.351  0.00  0.00    +0.000 A 
ATOM     24  C   UNL     1       9.932  15.632  18.518  0.00  0.00    +0.000 A 
ATOM     25  C   UNL     1      10.645  14.799  17.659  0.00  0.00    +0.000 A 
ATOM     26  C   UNL     1      10.384  13.428  17.635  0.00  0.00    +0.000 A 
ATOM     27  F   UNL     1      11.093  12.691  16.771  0.00  0.00    +0.000 F 
ENDBRANCH  19  21
ENDBRANCH   3  16
TORSDOF 4
ENDMDL
MODEL 2
REMARK VINA RESULT:      -8.3      0.925      1.318
REMARK  Name = 
REMARK  4 active torsions:
REMARK  status: ('A' for Active; 'I' for Inactive)
REMARK    1  A    between atoms: C_2  and  C_16
REMARK    2  A    between atoms: N_3  and  C_4
REMARK    3  A    between atoms: N_7  and  C_8
REMARK    4  A    between atoms: C_18  and  N_19
REMARK                            x       y       z     vdW  Elec       q    Type
REMARK                         _______ _______ _______ _____ _____    ______ ____
ROOT
ATOM      1  O   UNL     1       8.214   6.682  18.879  0.00  0.00    +0.000 OA
ATOM      2  C   UNL     1       7.621   7.091  17.885  0.00  0.00    +0.000 C 
ATOM      3  N   UNL     1       7.616   8.393  17.430  0.00  0.00    +0.000 N 
ATOM      4  H   UNL     1       7.052   8.602  16.611  0.00  0.00    +0.000 HD
ENDROOT
BRANCH   2   5
ATOM      5  C   UNL     1       6.825   6.137  17.057  0.00  0.00    +0.000 A 
ATOM      6  C   UNL     1       5.653   5.629  17.597  0.00  0.00    +0.000 A 
ATOM      7  C   UNL     1       4.950   4.679  16.864  0.00  0.00    +0.000 A 
ATOM      8  C   UNL     1       5.444   4.282  15.618  0.00  0.00    +0.000 A 
ATOM      9  C   UNL     1       6.613   4.869  15.152  0.00  0.00    +0.000 A 
ATOM     10  N   UNL     1       7.322   5.796  15.838  0.00  0.00    +0.000 NA
BRANCH   7  11
ATOM     11  N   UNL     1       3.758   4.108  17.380  0.00  0.00    +0.000 N 
ATOM     12  C   UNL     1       2.589   4.755  17.724  0.00  0.00    +0.000 A 
ATOM     13  C   UNL     1       1.720   3.802  18.199  0.00  0.00    +0.000 A 
ATOM     14  C   UNL     1       2.437   2.602  18.104  0.00  0.00    +0.000 A 
ATOM     15  N   UNL     1       3.660   2.773  17.601  0.00  0.00    +0.000 NA
ENDBRANCH   7  11
ENDBRANCH   2   5
BRANCH   3  16
ATOM     16  C   UNL     1       8.331   9.406  18.038  0.00  0.00    +0.000 A 
ATOM     17  C   UNL     1       9.038   9.440  19.252  0.00  0.00    +0.000 A 
ATOM     18  N   UNL     1       9.608  10.624  19.479  0.00  0.00    +0.000 NA
ATOM     19  N   UNL     1       9.238  11.393  18.420  0.00  0.00    +0.000 N 
ATOM     20  C   UNL     1       8.498  10.663  17.512  0.00  0.00    +0.000 A 
BRANCH  19  21
ATOM     21  C   UNL     1       9.620  12.759  18.369  0.00  0.00    +0.000 A 
ATOM     22  C   UNL     1      10.540  13.180  17.391  0.00  0.00    +0.000 A 
ATOM     23  C   UNL     1      10.938  14.518  17.321  0.00  0.00    +0.000 A 
ATOM     24  C   UNL     1      10.426  15.445  18.225  0.00  0.00    +0.000 A 
ATOM     25  C   UNL     1       9.519  15.035  19.200  0.00  0.00    +0.000 A 
ATOM     26  C   UNL     1       9.121  13.700  19.269  0.00  0.00    +0.000 A 
ATOM     27  F   UNL     1       8.262  13.373  20.244  0.00  0.00    +0.000 F 
ENDBRANCH  19  21
ENDBRANCH   3  16
TORSDOF 4
ENDMDL
MODEL 3
REMARK VINA RESULT:      -8.1      6.054      7.795
REMARK  Name = 
REMARK  4 active torsions:
REMARK  status: ('A' for Active; 'I' for Inactive)
REMARK    1  A    between atoms: C_2  and  C_16
REMARK    2  A    between atoms: N_3  and  C_4
REMARK    3  A    between atoms: N_7  and  C_8
REMARK    4  A    between atoms: C_18  and  N_19
REMARK                            x       y       z     vdW  Elec       q    Type
REMARK                         _______ _______ _______ _____ _____    ______ ____
ROOT
ATOM      1  O   UNL     1       2.708   5.367  17.853  0.00  0.00    +0.000 OA
ATOM      2  C   UNL     1       3.667   6.133  17.823  0.00  0.00    +0.000 C 
ATOM      3  N   UNL     1       3.639   7.472  18.152  0.00  0.00    +0.000 N 
ATOM      4  H   UNL     1       4.502   7.999  18.049  0.00  0.00    +0.000 HD
ENDROOT
BRANCH   2   5
ATOM      5  C   UNL     1       5.006   5.621  17.407  0.00  0.00    +0.000 A 
ATOM      6  C   UNL     1       5.246   5.458  16.050  0.00  0.00    +0.000 A 
ATOM      7  C   UNL     1       6.461   4.905  15.660  0.00  0.00    +0.000 A 
ATOM      8  C   UNL     1       7.389   4.545  16.642  0.00  0.00    +0.000 A 
ATOM      9  C   UNL     1       7.066   4.773  17.973  0.00  0.00    +0.000 A 
ATOM     10  N   UNL     1       5.894   5.309  18.387  0.00  0.00    +0.000 NA
BRANCH   7  11
ATOM     11  N   UNL     1       6.749   4.693  14.287  0.00  0.00    +0.000 N 
ATOM     12  C   UNL     1       6.166   3.783  13.429  0.00  0.00    +0.000 A 
ATOM     13  C   UNL     1       6.780   3.923  12.208  0.00  0.00    +0.000 A 
ATOM     14  C   UNL     1       7.720   4.943  12.407  0.00  0.00    +0.000 A 
ATOM     15  N   UNL     1       7.702   5.422  13.652  0.00  0.00    +0.000 NA
ENDBRANCH   7  11
ENDBRANCH   2   5
BRANCH   3  16
ATOM     16  C   UNL     1       2.503   8.113  18.604  0.00  0.00    +0.000 A 
ATOM     17  C   UNL     1       1.878   8.111  19.862  0.00  0.00    +0.000 A 
ATOM     18  N   UNL     1       0.788   8.879  19.894  0.00  0.00    +0.000 NA
ATOM     19  N   UNL     1       0.669   9.362  18.627  0.00  0.00    +0.000 N 
ATOM     20  C   UNL     1       1.723   8.944  17.838  0.00  0.00    +0.000 A 
BRANCH  19  21
ATOM     21  C   UNL     1      -0.439  10.175  18.280  0.00  0.00    +0.000 A 
ATOM     22  C   UNL     1      -1.404   9.678  17.384  0.00  0.00    +0.000 A 
ATOM     23  C   UNL     1      -2.504  10.460  17.019  0.00  0.00    +0.000 A 
ATOM     24  C   UNL     1      -2.650  11.742  17.541  0.00  0.00    +0.000 A 
ATOM     25  C   UNL     1      -1.696  12.245  18.424  0.00  0.00    +0.000 A 
ATOM     26  C   UNL     1      -0.599  11.464  18.788  0.00  0.00    +0.000 A 
ATOM     27  F   UNL     1       0.288  12.018  19.626  0.00  0.00    +0.000 F 
ENDBRANCH  19  21
ENDBRANCH   3  16
TORSDOF 4
ENDMDL
MODEL 4
REMARK VINA RESULT:      -8.1      6.215      7.854
REMARK  Name = 
REMARK  4 active torsions:
REMARK  status: ('A' for Active; 'I' for Inactive)
REMARK    1  A    between atoms: C_2  and  C_16
REMARK    2  A    between atoms: N_3  and  C_4
REMARK    3  A    between atoms: N_7  and  C_8
REMARK    4  A    between atoms: C_18  and  N_19
REMARK                            x       y       z     vdW  Elec       q    Type
REMARK                         _______ _______ _______ _____ _____    ______ ____
ROOT
ATOM      1  O   UNL     1       2.269   5.735  18.338  0.00  0.00    +0.000 OA
ATOM      2  C   UNL     1       3.240   6.460  18.138  0.00  0.00    +0.000 C 
ATOM      3  N   UNL     1       3.239   7.838  18.185  0.00  0.00    +0.000 N 
ATOM      4  H   UNL     1       4.107   8.316  17.963  0.00  0.00    +0.000 HD
ENDROOT
BRANCH   2   5
ATOM      5  C   UNL     1       4.563   5.847  17.816  0.00  0.00    +0.000 A 
ATOM      6  C   UNL     1       4.887   5.666  16.479  0.00  0.00    +0.000 A 
ATOM      7  C   UNL     1       6.081   5.022  16.174  0.00  0.00    +0.000 A 
ATOM      8  C   UNL     1       6.907   4.594  17.219  0.00  0.00    +0.000 A 
ATOM      9  C   UNL     1       6.507   4.847  18.524  0.00  0.00    +0.000 A 
ATOM     10  N   UNL     1       5.352   5.470  18.856  0.00  0.00    +0.000 NA
BRANCH   7  11
ATOM     11  N   UNL     1       6.450   4.788  14.824  0.00  0.00    +0.000 N 
ATOM     12  C   UNL     1       5.849   3.940  13.917  0.00  0.00    +0.000 A 
ATOM     13  C   UNL     1       6.563   4.024  12.746  0.00  0.00    +0.000 A 
ATOM     14  C   UNL     1       7.578   4.949  13.024  0.00  0.00    +0.000 A 
ATOM     15  N   UNL     1       7.512   5.425  14.269  0.00  0.00    +0.000 NA
ENDBRANCH   7  11
ENDBRANCH   2   5
BRANCH   3  16
ATOM     16  C   UNL     1       2.121   8.579  18.512  0.00  0.00    +0.000 A 
ATOM     17  C   UNL     1       1.138   9.176  17.704  0.00  0.00    +0.000 A 
ATOM     18  N   UNL     1       0.203   9.807  18.416  0.00  0.00    +0.000 NA
ATOM     19  N   UNL     1       0.597   9.658  19.710  0.00  0.00    +0.000 N 
ATOM     20  C   UNL     1       1.735   8.881  19.795  0.00  0.00    +0.000 A 
BRANCH  19  21
ATOM     21  C   UNL     1      -0.144  10.273  20.752  0.00  0.00    +0.000 A 
ATOM     22  C   UNL     1      -0.866  11.450  20.480  0.00  0.00    +0.000 A 
ATOM     23  C   UNL     1      -1.600  12.081  21.488  0.00  0.00    +0.000 A 
ATOM     24  C   UNL     1      -1.618  11.547  22.774  0.00  0.00    +0.000 A 
ATOM     25  C   UNL     1      -0.901  10.385  23.054  0.00  0.00    +0.000 A 
ATOM     26  C   UNL     1      -0.169   9.756  22.046  0.00  0.00    +0.000 A 
ATOM     27  F   UNL     1       0.512   8.655  22.390  0.00  0.00    +0.000 F 
ENDBRANCH  19  21
ENDBRANCH   3  16
TORSDOF 4
ENDMDL
MODEL 5
REMARK VINA RESULT:      -8.1      6.329      9.180
REMARK  Name = 
REMARK  4 active torsions:
REMARK  status: ('A' for Active; 'I' for Inactive)
REMARK    1  A    between atoms: C_2  and  C_16
REMARK    2  A    between atoms: N_3  and  C_4
REMARK    3  A    between atoms: N_7  and  C_8
REMARK    4  A    between atoms: C_18  and  N_19
REMARK                            x       y       z     vdW  Elec       q    Type
REMARK                         _______ _______ _______ _____ _____    ______ ____
ROOT
ATOM      1  O   UNL     1       1.298   8.774  21.073  0.00  0.00    +0.000 OA
ATOM      2  C   UNL     1       1.100   9.227  19.949  0.00  0.00    +0.000 C 
ATOM      3  N   UNL     1       1.627   8.730  18.776  0.00  0.00    +0.000 N 
ATOM      4  H   UNL     1       1.409   9.224  17.916  0.00  0.00    +0.000 HD
ENDROOT
BRANCH   2   5
ATOM      5  C   UNL     1       0.213  10.416  19.780  0.00  0.00    +0.000 A 
ATOM      6  C   UNL     1      -0.870  10.301  18.921  0.00  0.00    +0.000 A 
ATOM      7  C   UNL     1      -1.653  11.429  18.697  0.00  0.00    +0.000 A 
ATOM      8  C   UNL     1      -1.324  12.623  19.346  0.00  0.00    +0.000 A 
ATOM      9  C   UNL     1      -0.235  12.629  20.208  0.00  0.00    +0.000 A 
ATOM     10  N   UNL     1       0.547  11.551  20.450  0.00  0.00    +0.000 NA
BRANCH   7  11
ATOM     11  N   UNL     1      -2.758  11.374  17.809  0.00  0.00    +0.000 N 
ATOM     12  C   UNL     1      -4.088  11.604  18.097  0.00  0.00    +0.000 A 
ATOM     13  C   UNL     1      -4.795  11.414  16.934  0.00  0.00    +0.000 A 
ATOM     14  C   UNL     1      -3.820  11.077  15.986  0.00  0.00    +0.000 A 
ATOM     15  N   UNL     1      -2.589  11.062  16.499  0.00  0.00    +0.000 NA
ENDBRANCH   7  11
ENDBRANCH   2   5
BRANCH   3  16
ATOM     16  C   UNL     1       2.432   7.608  18.728  0.00  0.00    +0.000 A 
ATOM     17  C   UNL     1       2.437   6.439  19.508  0.00  0.00    +0.000 A 
ATOM     18  N   UNL     1       3.382   5.577  19.131  0.00  0.00    +0.000 NA
ATOM     19  N   UNL     1       4.034   6.202  18.113  0.00  0.00    +0.000 N 
ATOM     20  C   UNL     1       3.447   7.418  17.824  0.00  0.00    +0.000 A 
BRANCH  19  21
ATOM     21  C   UNL     1       5.160   5.587  17.510  0.00  0.00    +0.000 A 
ATOM     22  C   UNL     1       5.091   5.198  16.159  0.00  0.00    +0.000 A 
ATOM     23  C   UNL     1       6.184   4.585  15.540  0.00  0.00    +0.000 A 
ATOM     24  C   UNL     1       7.352   4.352  16.261  0.00  0.00    +0.000 A 
ATOM     25  C   UNL     1       7.427   4.729  17.601  0.00  0.00    +0.000 A 
ATOM     26  C   UNL     1       6.336   5.342  18.218  0.00  0.00    +0.000 A 
ATOM     27  F   UNL     1       6.471   5.659  19.513  0.00  0.00    +0.000 F 
ENDBRANCH  19  21
ENDBRANCH   3  16
TORSDOF 4
ENDMDL
MODEL 6
REMARK VINA RESULT:      -8.0      6.068      7.679
REMARK  Name = 
REMARK  4 active torsions:
REMARK  status: ('A' for Active; 'I' for Inactive)
REMARK    1  A    between atoms: C_2  and  C_16
REMARK    2  A    between atoms: N_3  and  C_4
REMARK    3  A    between atoms: N_7  and  C_8
REMARK    4  A    between atoms: C_18  and  N_19
REMARK                            x       y       z     vdW  Elec       q    Type
REMARK                         _______ _______ _______ _____ _____    ______ ____
ROOT
ATOM      1  O   UNL     1       2.939   5.513  18.764  0.00  0.00    +0.000 OA
ATOM      2  C   UNL     1       3.753   6.242  18.204  0.00  0.00    +0.000 C 
ATOM      3  N   UNL     1       3.590   7.589  17.956  0.00  0.00    +0.000 N 
ATOM      4  H   UNL     1       4.331   8.067  17.452  0.00  0.00    +0.000 HD
ENDROOT
BRANCH   2   5
ATOM      5  C   UNL     1       5.053   5.675  17.737  0.00  0.00    +0.000 A 
ATOM      6  C   UNL     1       5.244   5.528  16.371  0.00  0.00    +0.000 A 
ATOM      7  C   UNL     1       6.418   4.925  15.933  0.00  0.00    +0.000 A 
ATOM      8  C   UNL     1       7.357   4.502  16.880  0.00  0.00    +0.000 A 
ATOM      9  C   UNL     1       7.084   4.718  18.224  0.00  0.00    +0.000 A 
ATOM     10  N   UNL     1       5.953   5.301  18.684  0.00  0.00    +0.000 NA
BRANCH   7  11
ATOM     11  N   UNL     1       6.654   4.728  14.548  0.00  0.00    +0.000 N 
ATOM     12  C   UNL     1       6.000   3.866  13.692  0.00  0.00    +0.000 A 
ATOM     13  C   UNL     1       6.584   4.000  12.456  0.00  0.00    +0.000 A 
ATOM     14  C   UNL     1       7.580   4.966  12.645  0.00  0.00    +0.000 A 
ATOM     15  N   UNL     1       7.623   5.420  13.899  0.00  0.00    +0.000 NA
ENDBRANCH   7  11
ENDBRANCH   2   5
BRANCH   3  16
ATOM     16  C   UNL     1       2.474   8.298  18.355  0.00  0.00    +0.000 A 
ATOM     17  C   UNL     1       1.471   8.942  17.610  0.00  0.00    +0.000 A 
ATOM     18  N   UNL     1       0.548   9.516  18.382  0.00  0.00    +0.000 NA
ATOM     19  N   UNL     1       0.969   9.282  19.655  0.00  0.00    +0.000 N 
ATOM     20  C   UNL     1       2.114   8.509  19.663  0.00  0.00    +0.000 A 
BRANCH  19  21
ATOM     21  C   UNL     1       0.247   9.820  20.750  0.00  0.00    +0.000 A 
ATOM     22  C   UNL     1       0.116   9.060  21.928  0.00  0.00    +0.000 A 
ATOM     23  C   UNL     1      -0.595   9.563  23.022  0.00  0.00    +0.000 A 
ATOM     24  C   UNL     1      -1.184  10.822  22.950  0.00  0.00    +0.000 A 
ATOM     25  C   UNL     1      -1.065  11.579  21.785  0.00  0.00    +0.000 A 
ATOM     26  C   UNL     1      -0.354  11.077  20.694  0.00  0.00    +0.000 A 
ATOM     27  F   UNL     1      -0.297  11.849  19.601  0.00  0.00    +0.000 F 
ENDBRANCH  19  21
ENDBRANCH   3  16
TORSDOF 4
ENDMDL
MODEL 7
REMARK VINA RESULT:      -7.9      6.593      9.409
REMARK  Name = 
REMARK  4 active torsions:
REMARK  status: ('A' for Active; 'I' for Inactive)
REMARK    1  A    between atoms: C_2  and  C_16
REMARK    2  A    between atoms: N_3  and  C_4
REMARK    3  A    between atoms: N_7  and  C_8
REMARK    4  A    between atoms: C_18  and  N_19
REMARK                            x       y       z     vdW  Elec       q    Type
REMARK                         _______ _______ _______ _____ _____    ______ ____
ROOT
ATOM      1  O   UNL     1       1.245   8.723  21.329  0.00  0.00    +0.000 OA
ATOM      2  C   UNL     1       0.962   9.181  20.225  0.00  0.00    +0.000 C 
ATOM      3  N   UNL     1       1.452   8.731  19.017  0.00  0.00    +0.000 N 
ATOM      4  H   UNL     1       1.160   9.226  18.179  0.00  0.00    +0.000 HD
ENDROOT
BRANCH   2   5
ATOM      5  C   UNL     1       0.004  10.321  20.124  0.00  0.00    +0.000 A 
ATOM      6  C   UNL     1      -0.982  10.257  19.151  0.00  0.00    +0.000 A 
ATOM      7  C   UNL     1      -1.827  11.351  18.998  0.00  0.00    +0.000 A 
ATOM      8  C   UNL     1      -1.656  12.461  19.831  0.00  0.00    +0.000 A 
ATOM      9  C   UNL     1      -0.656  12.418  20.794  0.00  0.00    +0.000 A 
ATOM     10  N   UNL     1       0.183  11.371  20.969  0.00  0.00    +0.000 NA
BRANCH   7  11
ATOM     11  N   UNL     1      -2.837  11.349  18.002  0.00  0.00    +0.000 N 
ATOM     12  C   UNL     1      -2.712  11.012  16.670  0.00  0.00    +0.000 A 
ATOM     13  C   UNL     1      -3.946  11.182  16.089  0.00  0.00    +0.000 A 
ATOM     14  C   UNL     1      -4.766  11.618  17.138  0.00  0.00    +0.000 A 
ATOM     15  N   UNL     1      -4.111  11.710  18.297  0.00  0.00    +0.000 NA
ENDBRANCH   7  11
ENDBRANCH   2   5
BRANCH   3  16
ATOM     16  C   UNL     1       2.313   7.657  18.906  0.00  0.00    +0.000 A 
ATOM     17  C   UNL     1       2.540   6.562  19.758  0.00  0.00    +0.000 A 
ATOM     18  N   UNL     1       3.462   5.725  19.280  0.00  0.00    +0.000 NA
ATOM     19  N   UNL     1       3.876   6.296  18.116  0.00  0.00    +0.000 N 
ATOM     20  C   UNL     1       3.162   7.447  17.848  0.00  0.00    +0.000 A 
BRANCH  19  21
ATOM     21  C   UNL     1       4.918   5.696  17.364  0.00  0.00    +0.000 A 
ATOM     22  C   UNL     1       6.179   6.319  17.316  0.00  0.00    +0.000 A 
ATOM     23  C   UNL     1       7.223   5.754  16.579  0.00  0.00    +0.000 A 
ATOM     24  C   UNL     1       7.019   4.566  15.881  0.00  0.00    +0.000 A 
ATOM     25  C   UNL     1       5.772   3.946  15.917  0.00  0.00    +0.000 A 
ATOM     26  C   UNL     1       4.730   4.510  16.655  0.00  0.00    +0.000 A 
ATOM     27  F   UNL     1       3.553   3.871  16.629  0.00  0.00    +0.000 F 
ENDBRANCH  19  21
ENDBRANCH   3  16
TORSDOF 4
ENDMDL
MODEL 8
REMARK VINA RESULT:      -7.8      6.357      8.272
REMARK  Name = 
REMARK  4 active torsions:
REMARK  status: ('A' for Active; 'I' for Inactive)
REMARK    1  A    between atoms: C_2  and  C_16
REMARK    2  A    between atoms: N_3  and  C_4
REMARK    3  A    between atoms: N_7  and  C_8
REMARK    4  A    between atoms: C_18  and  N_19
REMARK                            x       y       z     vdW  Elec       q    Type
REMARK                         _______ _______ _______ _____ _____    ______ ____
ROOT
ATOM      1  O   UNL     1       2.391   8.323  18.559  0.00  0.00    +0.000 OA
ATOM      2  C   UNL     1       2.249   7.292  19.209  0.00  0.00    +0.000 C 
ATOM      3  N   UNL     1       1.734   7.210  20.486  0.00  0.00    +0.000 N 
ATOM      4  H   UNL     1       1.704   6.293  20.922  0.00  0.00    +0.000 HD
ENDROOT
BRANCH   2   5
ATOM      5  C   UNL     1       2.645   5.982  18.611  0.00  0.00    +0.000 A 
ATOM      6  C   UNL     1       3.769   5.953  17.799  0.00  0.00    +0.000 A 
ATOM      7  C   UNL     1       4.097   4.754  17.174  0.00  0.00    +0.000 A 
ATOM      8  C   UNL     1       3.291   3.633  17.393  0.00  0.00    +0.000 A 
ATOM      9  C   UNL     1       2.202   3.757  18.245  0.00  0.00    +0.000 A 
ATOM     10  N   UNL     1       1.855   4.907  18.869  0.00  0.00    +0.000 NA
BRANCH   7  11
ATOM     11  N   UNL     1       5.222   4.674  16.313  0.00  0.00    +0.000 N 
ATOM     12  C   UNL     1       5.233   4.457  14.951  0.00  0.00    +0.000 A 
ATOM     13  C   UNL     1       6.547   4.435  14.552  0.00  0.00    +0.000 A 
ATOM     14  C   UNL     1       7.271   4.653  15.731  0.00  0.00    +0.000 A 
ATOM     15  N   UNL     1       6.483   4.811  16.796  0.00  0.00    +0.000 NA
ENDBRANCH   7  11
ENDBRANCH   2   5
BRANCH   3  16
ATOM     16  C   UNL     1       1.272   8.308  21.183  0.00  0.00    +0.000 A 
ATOM     17  C   UNL     1       1.720   8.904  22.374  0.00  0.00    +0.000 A 
ATOM     18  N   UNL     1       0.998   9.971  22.717  0.00  0.00    +0.000 NA
ATOM     19  N   UNL     1       0.034  10.057  21.760  0.00  0.00    +0.000 N 
ATOM     20  C   UNL     1       0.206   9.083  20.796  0.00  0.00    +0.000 A 
BRANCH  19  21
ATOM     21  C   UNL     1      -0.968  11.056  21.850  0.00  0.00    +0.000 A 
ATOM     22  C   UNL     1      -1.609  11.278  23.083  0.00  0.00    +0.000 A 
ATOM     23  C   UNL     1      -2.604  12.252  23.201  0.00  0.00    +0.000 A 
ATOM     24  C   UNL     1      -2.971  13.010  22.092  0.00  0.00    +0.000 A 
ATOM     25  C   UNL     1      -2.345  12.793  20.866  0.00  0.00    +0.000 A 
ATOM     26  C   UNL     1      -1.351  11.821  20.749  0.00  0.00    +0.000 A 
ATOM     27  F   UNL     1      -0.807  11.652  19.537  0.00  0.00    +0.000 F 
ENDBRANCH  19  21
ENDBRANCH   3  16
TORSDOF 4
ENDMDL
MODEL 9
REMARK VINA RESULT:      -7.8      6.368      9.221
REMARK  Name = 
REMARK  4 active torsions:
REMARK  status: ('A' for Active; 'I' for Inactive)
REMARK    1  A    between atoms: C_2  and  C_16
REMARK    2  A    between atoms: N_3  and  C_4
REMARK    3  A    between atoms: N_7  and  C_8
REMARK    4  A    between atoms: C_18  and  N_19
REMARK                            x       y       z     vdW  Elec       q    Type
REMARK                         _______ _______ _______ _____ _____    ______ ____
ROOT
ATOM      1  O   UNL     1       2.026   9.403  17.409  0.00  0.00    +0.000 OA
ATOM      2  C   UNL     1       1.442   9.336  18.488  0.00  0.00    +0.000 C 
ATOM      3  N   UNL     1       1.564   8.315  19.406  0.00  0.00    +0.000 N 
ATOM      4  H   UNL     1       0.995   8.368  20.246  0.00  0.00    +0.000 HD
ENDROOT
BRANCH   2   5
ATOM      5  C   UNL     1       0.512  10.432  18.892  0.00  0.00    +0.000 A 
ATOM      6  C   UNL     1      -0.770  10.423  18.364  0.00  0.00    +0.000 A 
ATOM      7  C   UNL     1      -1.615  11.484  18.672  0.00  0.00    +0.000 A 
ATOM      8  C   UNL     1      -1.144  12.506  19.503  0.00  0.00    +0.000 A 
ATOM      9  C   UNL     1       0.148  12.410  20.003  0.00  0.00    +0.000 A 
ATOM     10  N   UNL     1       0.995  11.392  19.723  0.00  0.00    +0.000 NA
BRANCH   7  11
ATOM     11  N   UNL     1      -2.929  11.538  18.140  0.00  0.00    +0.000 N 
ATOM     12  C   UNL     1      -3.341  11.202  16.867  0.00  0.00    +0.000 A 
ATOM     13  C   UNL     1      -4.693  11.438  16.801  0.00  0.00    +0.000 A 
ATOM     14  C   UNL     1      -5.025  11.911  18.077  0.00  0.00    +0.000 A 
ATOM     15  N   UNL     1      -3.972  11.964  18.895  0.00  0.00    +0.000 NA
ENDBRANCH   7  11
ENDBRANCH   2   5
BRANCH   3  16
ATOM     16  C   UNL     1       2.411   7.239  19.229  0.00  0.00    +0.000 A 
ATOM     17  C   UNL     1       2.508   6.015  19.913  0.00  0.00    +0.000 A 
ATOM     18  N   UNL     1       3.467   5.229  19.422  0.00  0.00    +0.000 NA
ATOM     19  N   UNL     1       4.036   5.960  18.426  0.00  0.00    +0.000 N 
ATOM     20  C   UNL     1       3.385   7.167  18.264  0.00  0.00    +0.000 A 
BRANCH  19  21
ATOM     21  C   UNL     1       5.155   5.447  17.721  0.00  0.00    +0.000 A 
ATOM     22  C   UNL     1       5.028   5.153  16.350  0.00  0.00    +0.000 A 
ATOM     23  C   UNL     1       6.111   4.641  15.631  0.00  0.00    +0.000 A 
ATOM     24  C   UNL     1       7.327   4.414  16.270  0.00  0.00    +0.000 A 
ATOM     25  C   UNL     1       7.460   4.697  17.628  0.00  0.00    +0.000 A 
ATOM     26  C   UNL     1       6.378   5.210  18.346  0.00  0.00    +0.000 A 
ATOM     27  F   UNL     1       6.571   5.439  19.651  0.00  0.00    +0.000 F 
ENDBRANCH  19  21
ENDBRANCH   3  16
TORSDOF 4
ENDMDL
