MODEL 1
REMARK VINA RESULT:      -8.2      0.000      0.000
REMARK  Name = 
REMARK  5 active torsions:
REMARK  status: ('A' for Active; 'I' for Inactive)
REMARK    1  A    between atoms: C_2  and  O_3
REMARK    2  A    between atoms: C_2  and  C_4
REMARK    3  A    between atoms: C_6  and  S_7
REMARK    4  A    between atoms: S_7  and  N_10
REMARK    5  A    between atoms: N_10  and  C_11
REMARK                            x       y       z     vdW  Elec       q    Type
REMARK                         _______ _______ _______ _____ _____    ______ ____
ROOT
ATOM      1  S   UNL     1       2.630   4.524  19.666  0.00  0.00    +0.000 S 
ATOM      2  O   UNL     1       1.393   4.531  18.918  0.00  0.00    +0.000 OA
ATOM      3  O   UNL     1       2.954   3.469  20.598  0.00  0.00    +0.000 OA
ENDROOT
BRANCH   1   6
ATOM      4  C   UNL     1       6.288   5.160  18.010  0.00  0.00    +0.000 A 
ATOM      5  C   UNL     1       5.209   5.096  18.911  0.00  0.00    +0.000 A 
ATOM      6  C   UNL     1       3.975   4.586  18.497  0.00  0.00    +0.000 A 
ATOM      7  C   UNL     1       3.805   4.112  17.197  0.00  0.00    +0.000 A 
ATOM      8  C   UNL     1       4.880   4.157  16.306  0.00  0.00    +0.000 A 
ATOM      9  C   UNL     1       6.118   4.683  16.704  0.00  0.00    +0.000 A 
ATOM     10 CL   UNL     1       7.369   4.724  15.514  0.00  0.00    +0.000 Cl
BRANCH   4  12
ATOM     11  O   UNL     1       7.850   6.920  18.147  0.00  0.00    +0.000 OA
ATOM     12  C   UNL     1       7.520   5.807  18.527  0.00  0.00    +0.000 C 
BRANCH  12  13
ATOM     13  O   UNL     1       8.187   5.135  19.481  0.00  0.00    +0.000 OA
ATOM     14  H   UNL     1       8.233   4.165  19.366  0.00  0.00    +0.000 HD
ENDBRANCH  12  13
ENDBRANCH   4  12
ENDBRANCH   1   6
BRANCH   1  15
ATOM     15  N   UNL     1       2.774   5.980  20.510  0.00  0.00    +0.000 N 
ATOM     16  H   UNL     1       3.636   6.049  21.049  0.00  0.00    +0.000 HD
BRANCH  15  17
ATOM     17  C   UNL     1       2.238   7.163  19.937  0.00  0.00    +0.000 A 
ATOM     18  C   UNL     1       2.507   7.467  18.591  0.00  0.00    +0.000 A 
ATOM     19  C   UNL     1       1.936   8.593  17.992  0.00  0.00    +0.000 A 
ATOM     20  C   UNL     1       1.131   9.395  18.775  0.00  0.00    +0.000 A 
ATOM     21  C   UNL     1       0.884   9.104  20.098  0.00  0.00    +0.000 A 
ATOM     22  C   UNL     1       1.413   7.986  20.706  0.00  0.00    +0.000 A 
ATOM     23  O   UNL     1       0.081  10.028  20.690  0.00  0.00    +0.000 OA
ATOM     24  C   UNL     1      -0.140  10.916  19.585  0.00  0.00    +0.000 C 
ATOM     25  F   UNL     1      -1.474  11.001  19.360  0.00  0.00    +0.000 F 
ATOM     26  F   UNL     1       0.299  12.152  19.927  0.00  0.00    +0.000 F 
ATOM     27  O   UNL     1       0.503  10.528  18.363  0.00  0.00    +0.000 OA
ENDBRANCH  15  17
ENDBRANCH   1  15
TORSDOF 5
ENDMDL
MODEL 2
REMARK VINA RESULT:      -8.2      5.258      7.843
REMARK  Name = 
REMARK  5 active torsions:
REMARK  status: ('A' for Active; 'I' for Inactive)
REMARK    1  A    between atoms: C_2  and  O_3
REMARK    2  A    between atoms: C_2  and  C_4
REMARK    3  A    between atoms: C_6  and  S_7
REMARK    4  A    between atoms: S_7  and  N_10
REMARK    5  A    between atoms: N_10  and  C_11
REMARK                            x       y       z     vdW  Elec       q    Type
REMARK                         _______ _______ _______ _____ _____    ______ ____
ROOT
ATOM      1  S   UNL     1       6.665   6.245  17.403  0.00  0.00    +0.000 S 
ATOM      2  O   UNL     1       6.298   7.260  16.441  0.00  0.00    +0.000 OA
ATOM      3  O   UNL     1       7.469   6.548  18.565  0.00  0.00    +0.000 OA
ENDROOT
BRANCH   1   6
ATOM      4  C   UNL     1       4.032   3.584  18.988  0.00  0.00    +0.000 A 
ATOM      5  C   UNL     1       5.202   4.194  18.500  0.00  0.00    +0.000 A 
ATOM      6  C   UNL     1       5.163   5.505  18.015  0.00  0.00    +0.000 A 
ATOM      7  C   UNL     1       3.973   6.231  18.032  0.00  0.00    +0.000 A 
ATOM      8  C   UNL     1       2.813   5.633  18.533  0.00  0.00    +0.000 A 
ATOM      9  C   UNL     1       2.836   4.312  19.005  0.00  0.00    +0.000 A 
ATOM     10 CL   UNL     1       1.341   3.658  19.570  0.00  0.00    +0.000 Cl
BRANCH   4  12
ATOM     11  O   UNL     1       4.813   1.845  20.375  0.00  0.00    +0.000 OA
ATOM     12  C   UNL     1       4.168   2.160  19.387  0.00  0.00    +0.000 C 
BRANCH  12  13
ATOM     13  O   UNL     1       3.479   1.270  18.652  0.00  0.00    +0.000 OA
ATOM     14  H   UNL     1       3.566   1.360  17.683  0.00  0.00    +0.000 HD
ENDBRANCH  12  13
ENDBRANCH   4  12
ENDBRANCH   1   6
BRANCH   1  15
ATOM     15  N   UNL     1       7.432   4.973  16.599  0.00  0.00    +0.000 N 
ATOM     16  H   UNL     1       7.611   4.168  17.198  0.00  0.00    +0.000 HD
BRANCH  15  17
ATOM     17  C   UNL     1       7.130   4.743  15.231  0.00  0.00    +0.000 A 
ATOM     18  C   UNL     1       7.995   5.233  14.236  0.00  0.00    +0.000 A 
ATOM     19  C   UNL     1       7.747   4.961  12.887  0.00  0.00    +0.000 A 
ATOM     20  C   UNL     1       6.622   4.226  12.579  0.00  0.00    +0.000 A 
ATOM     21  C   UNL     1       5.767   3.762  13.555  0.00  0.00    +0.000 A 
ATOM     22  C   UNL     1       6.001   3.993  14.893  0.00  0.00    +0.000 A 
ATOM     23  O   UNL     1       4.713   3.076  13.037  0.00  0.00    +0.000 OA
ATOM     24  C   UNL     1       5.017   3.166  11.638  0.00  0.00    +0.000 C 
ATOM     25  F   UNL     1       5.116   1.910  11.137  0.00  0.00    +0.000 F 
ATOM     26  F   UNL     1       3.984   3.779  11.009  0.00  0.00    +0.000 F 
ATOM     27  O   UNL     1       6.224   3.876  11.327  0.00  0.00    +0.000 OA
ENDBRANCH  15  17
ENDBRANCH   1  15
TORSDOF 5
ENDMDL
MODEL 3
REMARK VINA RESULT:      -8.1      3.744      5.176
REMARK  Name = 
REMARK  5 active torsions:
REMARK  status: ('A' for Active; 'I' for Inactive)
REMARK    1  A    between atoms: C_2  and  O_3
REMARK    2  A    between atoms: C_2  and  C_4
REMARK    3  A    between atoms: C_6  and  S_7
REMARK    4  A    between atoms: S_7  and  N_10
REMARK    5  A    between atoms: N_10  and  C_11
REMARK                            x       y       z     vdW  Elec       q    Type
REMARK                         _______ _______ _______ _____ _____    ______ ____
ROOT
ATOM      1  S   UNL     1       0.866   8.960  21.468  0.00  0.00    +0.000 S 
ATOM      2  O   UNL     1      -0.528   8.684  21.736  0.00  0.00    +0.000 OA
ATOM      3  O   UNL     1       1.807   9.243  22.528  0.00  0.00    +0.000 OA
ENDROOT
BRANCH   1   6
ATOM      4  C   UNL     1       1.815   5.166  20.357  0.00  0.00    +0.000 A 
ATOM      5  C   UNL     1       1.300   6.280  21.045  0.00  0.00    +0.000 A 
ATOM      6  C   UNL     1       1.533   7.573  20.567  0.00  0.00    +0.000 A 
ATOM      7  C   UNL     1       2.255   7.774  19.392  0.00  0.00    +0.000 A 
ATOM      8  C   UNL     1       2.752   6.668  18.696  0.00  0.00    +0.000 A 
ATOM      9  C   UNL     1       2.540   5.367  19.176  0.00  0.00    +0.000 A 
ATOM     10 CL   UNL     1       3.226   4.075  18.258  0.00  0.00    +0.000 Cl
BRANCH   4  12
ATOM     11  O   UNL     1       2.218   3.525  22.001  0.00  0.00    +0.000 OA
ATOM     12  C   UNL     1       1.590   3.849  21.004  0.00  0.00    +0.000 C 
BRANCH  12  13
ATOM     13  O   UNL     1       0.612   3.091  20.481  0.00  0.00    +0.000 OA
ATOM     14  H   UNL     1      -0.299   3.422  20.609  0.00  0.00    +0.000 HD
ENDBRANCH  12  13
ENDBRANCH   4  12
ENDBRANCH   1   6
BRANCH   1  15
ATOM     15  N   UNL     1       0.976  10.235  20.367  0.00  0.00    +0.000 N 
ATOM     16  H   UNL     1       1.884  10.294  19.908  0.00  0.00    +0.000 HD
BRANCH  15  17
ATOM     17  C   UNL     1      -0.179  10.608  19.630  0.00  0.00    +0.000 A 
ATOM     18  C   UNL     1      -1.011  11.635  20.112  0.00  0.00    +0.000 A 
ATOM     19  C   UNL     1      -2.115  12.058  19.368  0.00  0.00    +0.000 A 
ATOM     20  C   UNL     1      -2.365  11.417  18.173  0.00  0.00    +0.000 A 
ATOM     21  C   UNL     1      -1.558  10.400  17.711  0.00  0.00    +0.000 A 
ATOM     22  C   UNL     1      -0.448   9.981  18.412  0.00  0.00    +0.000 A 
ATOM     23  O   UNL     1      -1.990   9.895  16.525  0.00  0.00    +0.000 OA
ATOM     24  C   UNL     1      -3.146  10.716  16.306  0.00  0.00    +0.000 C 
ATOM     25  F   UNL     1      -3.000  11.360  15.122  0.00  0.00    +0.000 F 
ATOM     26  F   UNL     1      -4.234   9.913  16.206  0.00  0.00    +0.000 F 
ATOM     27  O   UNL     1      -3.394  11.692  17.328  0.00  0.00    +0.000 OA
ENDBRANCH  15  17
ENDBRANCH   1  15
TORSDOF 5
ENDMDL
MODEL 4
REMARK VINA RESULT:      -7.8      0.905      1.623
REMARK  Name = 
REMARK  5 active torsions:
REMARK  status: ('A' for Active; 'I' for Inactive)
REMARK    1  A    between atoms: C_2  and  O_3
REMARK    2  A    between atoms: C_2  and  C_4
REMARK    3  A    between atoms: C_6  and  S_7
REMARK    4  A    between atoms: S_7  and  N_10
REMARK    5  A    between atoms: N_10  and  C_11
REMARK                            x       y       z     vdW  Elec       q    Type
REMARK                         _______ _______ _______ _____ _____    ______ ____
ROOT
ATOM      1  S   UNL     1       2.865   4.646  19.281  0.00  0.00    +0.000 S 
ATOM      2  O   UNL     1       1.586   4.770  18.619  0.00  0.00    +0.000 OA
ATOM      3  O   UNL     1       3.193   3.504  20.103  0.00  0.00    +0.000 OA
ENDROOT
BRANCH   1   6
ATOM      4  C   UNL     1       6.245   5.693  17.279  0.00  0.00    +0.000 A 
ATOM      5  C   UNL     1       5.228   5.592  18.245  0.00  0.00    +0.000 A 
ATOM      6  C   UNL     1       4.136   4.744  18.035  0.00  0.00    +0.000 A 
ATOM      7  C   UNL     1       4.055   3.970  16.878  0.00  0.00    +0.000 A 
ATOM      8  C   UNL     1       5.073   4.053  15.925  0.00  0.00    +0.000 A 
ATOM      9  C   UNL     1       6.164   4.915  16.117  0.00  0.00    +0.000 A 
ATOM     10 CL   UNL     1       7.349   4.967  14.862  0.00  0.00    +0.000 Cl
BRANCH   4  12
ATOM     11  O   UNL     1       7.438   7.681  16.855  0.00  0.00    +0.000 OA
ATOM     12  C   UNL     1       7.304   6.693  17.562  0.00  0.00    +0.000 C 
BRANCH  12  13
ATOM     13  O   UNL     1       8.035   6.486  18.671  0.00  0.00    +0.000 OA
ATOM     14  H   UNL     1       7.615   6.751  19.512  0.00  0.00    +0.000 HD
ENDBRANCH  12  13
ENDBRANCH   4  12
ENDBRANCH   1   6
BRANCH   1  15
ATOM     15  N   UNL     1       3.133   6.019  20.227  0.00  0.00    +0.000 N 
ATOM     16  H   UNL     1       4.121   6.229  20.361  0.00  0.00    +0.000 HD
BRANCH  15  17
ATOM     17  C   UNL     1       2.218   7.101  20.142  0.00  0.00    +0.000 A 
ATOM     18  C   UNL     1       1.367   7.380  21.225  0.00  0.00    +0.000 A 
ATOM     19  C   UNL     1       0.505   8.480  21.184  0.00  0.00    +0.000 A 
ATOM     20  C   UNL     1       0.509   9.252  20.042  0.00  0.00    +0.000 A 
ATOM     21  C   UNL     1       1.331   8.967  18.974  0.00  0.00    +0.000 A 
ATOM     22  C   UNL     1       2.209   7.904  18.999  0.00  0.00    +0.000 A 
ATOM     23  O   UNL     1       1.166   9.840  17.945  0.00  0.00    +0.000 OA
ATOM     24  C   UNL     1       0.155  10.694  18.498  0.00  0.00    +0.000 C 
ATOM     25  F   UNL     1       0.626  11.966  18.514  0.00  0.00    +0.000 F 
ATOM     26  F   UNL     1      -0.929  10.667  17.685  0.00  0.00    +0.000 F 
ATOM     27  O   UNL     1      -0.265  10.349  19.826  0.00  0.00    +0.000 OA
ENDBRANCH  15  17
ENDBRANCH   1  15
TORSDOF 5
ENDMDL
MODEL 5
REMARK VINA RESULT:      -7.8      2.375      3.226
REMARK  Name = 
REMARK  5 active torsions:
REMARK  status: ('A' for Active; 'I' for Inactive)
REMARK    1  A    between atoms: C_2  and  O_3
REMARK    2  A    between atoms: C_2  and  C_4
REMARK    3  A    between atoms: C_6  and  S_7
REMARK    4  A    between atoms: S_7  and  N_10
REMARK    5  A    between atoms: N_10  and  C_11
REMARK                            x       y       z     vdW  Elec       q    Type
REMARK                         _______ _______ _______ _____ _____    ______ ____
ROOT
ATOM      1  S   UNL     1       3.791   2.522  18.941  0.00  0.00    +0.000 S 
ATOM      2  O   UNL     1       3.934   1.448  17.982  0.00  0.00    +0.000 OA
ATOM      3  O   UNL     1       4.005   2.317  20.355  0.00  0.00    +0.000 OA
ENDROOT
BRANCH   1   6
ATOM      4  C   UNL     1       6.080   5.015  16.690  0.00  0.00    +0.000 A 
ATOM      5  C   UNL     1       5.212   3.988  17.103  0.00  0.00    +0.000 A 
ATOM      6  C   UNL     1       4.892   3.837  18.455  0.00  0.00    +0.000 A 
ATOM      7  C   UNL     1       5.406   4.717  19.407  0.00  0.00    +0.000 A 
ATOM      8  C   UNL     1       6.254   5.750  18.997  0.00  0.00    +0.000 A 
ATOM      9  C   UNL     1       6.597   5.899  17.645  0.00  0.00    +0.000 A 
ATOM     10 CL   UNL     1       7.678   7.188  17.251  0.00  0.00    +0.000 Cl
BRANCH   4  12
ATOM     11  O   UNL     1       7.573   5.230  14.878  0.00  0.00    +0.000 OA
ATOM     12  C   UNL     1       6.427   5.023  15.246  0.00  0.00    +0.000 C 
BRANCH  12  13
ATOM     13  O   UNL     1       5.434   4.710  14.396  0.00  0.00    +0.000 OA
ATOM     14  H   UNL     1       5.534   5.043  13.483  0.00  0.00    +0.000 HD
ENDBRANCH  12  13
ENDBRANCH   4  12
ENDBRANCH   1   6
BRANCH   1  15
ATOM     15  N   UNL     1       2.257   3.209  18.775  0.00  0.00    +0.000 N 
ATOM     16  H   UNL     1       1.502   2.571  19.023  0.00  0.00    +0.000 HD
BRANCH  15  17
ATOM     17  C   UNL     1       2.090   4.592  19.047  0.00  0.00    +0.000 A 
ATOM     18  C   UNL     1       1.950   5.028  20.376  0.00  0.00    +0.000 A 
ATOM     19  C   UNL     1       1.849   6.391  20.667  0.00  0.00    +0.000 A 
ATOM     20  C   UNL     1       1.866   7.274  19.608  0.00  0.00    +0.000 A 
ATOM     21  C   UNL     1       1.986   6.843  18.305  0.00  0.00    +0.000 A 
ATOM     22  C   UNL     1       2.113   5.507  17.992  0.00  0.00    +0.000 A 
ATOM     23  O   UNL     1       1.965   7.872  17.415  0.00  0.00    +0.000 OA
ATOM     24  C   UNL     1       1.823   8.980  18.314  0.00  0.00    +0.000 C 
ATOM     25  F   UNL     1       2.865   9.826  18.125  0.00  0.00    +0.000 F 
ATOM     26  F   UNL     1       0.687   9.651  18.000  0.00  0.00    +0.000 F 
ATOM     27  O   UNL     1       1.771   8.626  19.704  0.00  0.00    +0.000 OA
ENDBRANCH  15  17
ENDBRANCH   1  15
TORSDOF 5
ENDMDL
MODEL 6
REMARK VINA RESULT:      -7.8      3.009      3.842
REMARK  Name = 
REMARK  5 active torsions:
REMARK  status: ('A' for Active; 'I' for Inactive)
REMARK    1  A    between atoms: C_2  and  O_3
REMARK    2  A    between atoms: C_2  and  C_4
REMARK    3  A    between atoms: C_6  and  S_7
REMARK    4  A    between atoms: S_7  and  N_10
REMARK    5  A    between atoms: N_10  and  C_11
REMARK                            x       y       z     vdW  Elec       q    Type
REMARK                         _______ _______ _______ _____ _____    ______ ____
ROOT
ATOM      1  S   UNL     1       4.033   3.653  17.421  0.00  0.00    +0.000 S 
ATOM      2  O   UNL     1       2.697   3.905  16.930  0.00  0.00    +0.000 OA
ATOM      3  O   UNL     1       4.446   2.345  17.875  0.00  0.00    +0.000 OA
ENDROOT
BRANCH   1   6
ATOM      4  C   UNL     1       5.892   3.970  13.820  0.00  0.00    +0.000 A 
ATOM      5  C   UNL     1       5.001   3.619  14.850  0.00  0.00    +0.000 A 
ATOM      6  C   UNL     1       5.182   4.122  16.142  0.00  0.00    +0.000 A 
ATOM      7  C   UNL     1       6.232   4.997  16.419  0.00  0.00    +0.000 A 
ATOM      8  C   UNL     1       7.108   5.362  15.393  0.00  0.00    +0.000 A 
ATOM      9  C   UNL     1       6.947   4.849  14.098  0.00  0.00    +0.000 A 
ATOM     10 CL   UNL     1       8.105   5.337  12.914  0.00  0.00    +0.000 Cl
BRANCH   4  12
ATOM     11  O   UNL     1       4.636   3.502  11.880  0.00  0.00    +0.000 OA
ATOM     12  C   UNL     1       5.661   3.303  12.514  0.00  0.00    +0.000 C 
BRANCH  12  13
ATOM     13  O   UNL     1       6.671   2.548  12.047  0.00  0.00    +0.000 OA
ATOM     14  H   UNL     1       7.508   2.600  12.548  0.00  0.00    +0.000 HD
ENDBRANCH  12  13
ENDBRANCH   4  12
ENDBRANCH   1   6
BRANCH   1  15
ATOM     15  N   UNL     1       4.374   4.733  18.674  0.00  0.00    +0.000 N 
ATOM     16  H   UNL     1       5.372   4.880  18.818  0.00  0.00    +0.000 HD
BRANCH  15  17
ATOM     17  C   UNL     1       3.491   5.821  18.903  0.00  0.00    +0.000 A 
ATOM     18  C   UNL     1       2.777   5.896  20.112  0.00  0.00    +0.000 A 
ATOM     19  C   UNL     1       1.954   6.993  20.380  0.00  0.00    +0.000 A 
ATOM     20  C   UNL     1       1.852   7.969  19.411  0.00  0.00    +0.000 A 
ATOM     21  C   UNL     1       2.539   7.884  18.221  0.00  0.00    +0.000 A 
ATOM     22  C   UNL     1       3.379   6.828  17.941  0.00  0.00    +0.000 A 
ATOM     23  O   UNL     1       2.287   8.940  17.401  0.00  0.00    +0.000 OA
ATOM     24  C   UNL     1       1.374   9.683  18.221  0.00  0.00    +0.000 C 
ATOM     25  F   UNL     1       1.884  10.923  18.421  0.00  0.00    +0.000 F 
ATOM     26  F   UNL     1       0.204   9.823  17.550  0.00  0.00    +0.000 F 
ATOM     27  O   UNL     1       1.096   9.094  19.499  0.00  0.00    +0.000 OA
ENDBRANCH  15  17
ENDBRANCH   1  15
TORSDOF 5
ENDMDL
MODEL 7
REMARK VINA RESULT:      -7.7      4.187      5.594
REMARK  Name = 
REMARK  5 active torsions:
REMARK  status: ('A' for Active; 'I' for Inactive)
REMARK    1  A    between atoms: C_2  and  O_3
REMARK    2  A    between atoms: C_2  and  C_4
REMARK    3  A    between atoms: C_6  and  S_7
REMARK    4  A    between atoms: S_7  and  N_10
REMARK    5  A    between atoms: N_10  and  C_11
REMARK                            x       y       z     vdW  Elec       q    Type
REMARK                         _______ _______ _______ _____ _____    ______ ____
ROOT
ATOM      1  S   UNL     1       6.943   5.587  17.849  0.00  0.00    +0.000 S 
ATOM      2  O   UNL     1       7.078   4.487  18.777  0.00  0.00    +0.000 OA
ATOM      3  O   UNL     1       8.000   6.550  17.647  0.00  0.00    +0.000 OA
ENDROOT
BRANCH   1   6
ATOM      4  C   UNL     1       7.089   4.771  13.869  0.00  0.00    +0.000 A 
ATOM      5  C   UNL     1       7.356   5.292  15.149  0.00  0.00    +0.000 A 
ATOM      6  C   UNL     1       6.577   4.904  16.244  0.00  0.00    +0.000 A 
ATOM      7  C   UNL     1       5.545   3.980  16.086  0.00  0.00    +0.000 A 
ATOM      8  C   UNL     1       5.290   3.448  14.819  0.00  0.00    +0.000 A 
ATOM      9  C   UNL     1       6.053   3.843  13.710  0.00  0.00    +0.000 A 
ATOM     10 CL   UNL     1       5.632   3.150  12.185  0.00  0.00    +0.000 Cl
BRANCH   4  12
ATOM     11  O   UNL     1       7.581   5.177  11.599  0.00  0.00    +0.000 OA
ATOM     12  C   UNL     1       7.915   5.324  12.765  0.00  0.00    +0.000 C 
BRANCH  12  13
ATOM     13  O   UNL     1       8.984   6.051  13.131  0.00  0.00    +0.000 OA
ATOM     14  H   UNL     1       8.827   7.008  13.252  0.00  0.00    +0.000 HD
ENDBRANCH  12  13
ENDBRANCH   4  12
ENDBRANCH   1   6
BRANCH   1  15
ATOM     15  N   UNL     1       5.551   6.465  18.231  0.00  0.00    +0.000 N 
ATOM     16  H   UNL     1       5.493   7.358  17.743  0.00  0.00    +0.000 HD
BRANCH  15  17
ATOM     17  C   UNL     1       4.348   5.763  18.502  0.00  0.00    +0.000 A 
ATOM     18  C   UNL     1       3.178   6.088  17.794  0.00  0.00    +0.000 A 
ATOM     19  C   UNL     1       2.001   5.363  18.002  0.00  0.00    +0.000 A 
ATOM     20  C   UNL     1       2.030   4.350  18.936  0.00  0.00    +0.000 A 
ATOM     21  C   UNL     1       3.173   4.045  19.641  0.00  0.00    +0.000 A 
ATOM     22  C   UNL     1       4.354   4.725  19.438  0.00  0.00    +0.000 A 
ATOM     23  O   UNL     1       2.982   3.027  20.522  0.00  0.00    +0.000 OA
ATOM     24  C   UNL     1       1.599   2.737  20.278  0.00  0.00    +0.000 C 
ATOM     25  F   UNL     1       1.489   1.438  19.906  0.00  0.00    +0.000 F 
ATOM     26  F   UNL     1       0.912   2.893  21.436  0.00  0.00    +0.000 F 
ATOM     27  O   UNL     1       0.981   3.553  19.271  0.00  0.00    +0.000 OA
ENDBRANCH  15  17
ENDBRANCH   1  15
TORSDOF 5
ENDMDL
MODEL 8
REMARK VINA RESULT:      -7.7      3.639      6.170
REMARK  Name = 
REMARK  5 active torsions:
REMARK  status: ('A' for Active; 'I' for Inactive)
REMARK    1  A    between atoms: C_2  and  O_3
REMARK    2  A    between atoms: C_2  and  C_4
REMARK    3  A    between atoms: C_6  and  S_7
REMARK    4  A    between atoms: S_7  and  N_10
REMARK    5  A    between atoms: N_10  and  C_11
REMARK                            x       y       z     vdW  Elec       q    Type
REMARK                         _______ _______ _______ _____ _____    ______ ____
ROOT
ATOM      1  S   UNL     1       2.480   2.797  18.036  0.00  0.00    +0.000 S 
ATOM      2  O   UNL     1       1.802   1.767  18.791  0.00  0.00    +0.000 OA
ATOM      3  O   UNL     1       2.182   3.044  16.644  0.00  0.00    +0.000 OA
ENDROOT
BRANCH   1   6
ATOM      4  C   UNL     1       2.191   6.777  18.810  0.00  0.00    +0.000 A 
ATOM      5  C   UNL     1       2.379   5.539  18.168  0.00  0.00    +0.000 A 
ATOM      6  C   UNL     1       2.231   4.346  18.882  0.00  0.00    +0.000 A 
ATOM      7  C   UNL     1       1.872   4.367  20.229  0.00  0.00    +0.000 A 
ATOM      8  C   UNL     1       1.666   5.595  20.864  0.00  0.00    +0.000 A 
ATOM      9  C   UNL     1       1.830   6.799  20.163  0.00  0.00    +0.000 A 
ATOM     10 CL   UNL     1       1.586   8.260  21.051  0.00  0.00    +0.000 Cl
BRANCH   4  12
ATOM     11  O   UNL     1       3.561   8.145  17.464  0.00  0.00    +0.000 OA
ATOM     12  C   UNL     1       2.468   7.979  17.983  0.00  0.00    +0.000 C 
BRANCH  12  13
ATOM     13  O   UNL     1       1.431   8.809  17.779  0.00  0.00    +0.000 OA
ATOM     14  H   UNL     1       1.319   9.134  16.864  0.00  0.00    +0.000 HD
ENDBRANCH  12  13
ENDBRANCH   4  12
ENDBRANCH   1   6
BRANCH   1  15
ATOM     15  N   UNL     1       4.147   2.552  18.141  0.00  0.00    +0.000 N 
ATOM     16  H   UNL     1       4.421   1.581  17.999  0.00  0.00    +0.000 HD
BRANCH  15  17
ATOM     17  C   UNL     1       5.022   3.574  17.688  0.00  0.00    +0.000 A 
ATOM     18  C   UNL     1       5.436   3.591  16.344  0.00  0.00    +0.000 A 
ATOM     19  C   UNL     1       6.245   4.625  15.865  0.00  0.00    +0.000 A 
ATOM     20  C   UNL     1       6.635   5.598  16.761  0.00  0.00    +0.000 A 
ATOM     21  C   UNL     1       6.243   5.570  18.081  0.00  0.00    +0.000 A 
ATOM     22  C   UNL     1       5.424   4.577  18.573  0.00  0.00    +0.000 A 
ATOM     23  O   UNL     1       6.750   6.611  18.794  0.00  0.00    +0.000 OA
ATOM     24  C   UNL     1       7.493   7.283  17.767  0.00  0.00    +0.000 C 
ATOM     25  F   UNL     1       7.033   8.554  17.663  0.00  0.00    +0.000 F 
ATOM     26  F   UNL     1       8.794   7.345  18.143  0.00  0.00    +0.000 F 
ATOM     27  O   UNL     1       7.424   6.667  16.473  0.00  0.00    +0.000 OA
ENDBRANCH  15  17
ENDBRANCH   1  15
TORSDOF 5
ENDMDL
MODEL 9
REMARK VINA RESULT:      -7.6      4.455      7.379
REMARK  Name = 
REMARK  5 active torsions:
REMARK  status: ('A' for Active; 'I' for Inactive)
REMARK    1  A    between atoms: C_2  and  O_3
REMARK    2  A    between atoms: C_2  and  C_4
REMARK    3  A    between atoms: C_6  and  S_7
REMARK    4  A    between atoms: S_7  and  N_10
REMARK    5  A    between atoms: N_10  and  C_11
REMARK                            x       y       z     vdW  Elec       q    Type
REMARK                         _______ _______ _______ _____ _____    ______ ____
ROOT
ATOM      1  S   UNL     1       2.408   5.510  19.979  0.00  0.00    +0.000 S 
ATOM      2  O   UNL     1       2.232   4.965  21.307  0.00  0.00    +0.000 OA
ATOM      3  O   UNL     1       1.818   4.891  18.814  0.00  0.00    +0.000 OA
ENDROOT
BRANCH   1   6
ATOM      4  C   UNL     1       0.901   9.065  21.249  0.00  0.00    +0.000 A 
ATOM      5  C   UNL     1       1.369   7.740  21.203  0.00  0.00    +0.000 A 
ATOM      6  C   UNL     1       1.824   7.194  19.998  0.00  0.00    +0.000 A 
ATOM      7  C   UNL     1       1.843   7.964  18.836  0.00  0.00    +0.000 A 
ATOM      8  C   UNL     1       1.396   9.287  18.883  0.00  0.00    +0.000 A 
ATOM      9  C   UNL     1       0.919   9.839  20.081  0.00  0.00    +0.000 A 
ATOM     10 CL   UNL     1       0.358  11.471  20.022  0.00  0.00    +0.000 Cl
BRANCH   4  12
ATOM     11  O   UNL     1      -0.839   9.742  22.689  0.00  0.00    +0.000 OA
ATOM     12  C   UNL     1       0.353   9.509  22.556  0.00  0.00    +0.000 C 
BRANCH  12  13
ATOM     13  O   UNL     1       1.223   9.554  23.579  0.00  0.00    +0.000 OA
ATOM     14  H   UNL     1       1.366  10.435  23.978  0.00  0.00    +0.000 HD
ENDBRANCH  12  13
ENDBRANCH   4  12
ENDBRANCH   1   6
BRANCH   1  15
ATOM     15  N   UNL     1       4.060   5.668  19.662  0.00  0.00    +0.000 N 
ATOM     16  H   UNL     1       4.648   5.212  20.358  0.00  0.00    +0.000 HD
BRANCH  15  17
ATOM     17  C   UNL     1       4.502   5.690  18.314  0.00  0.00    +0.000 A 
ATOM     18  C   UNL     1       4.625   6.919  17.641  0.00  0.00    +0.000 A 
ATOM     19  C   UNL     1       5.120   6.965  16.335  0.00  0.00    +0.000 A 
ATOM     20  C   UNL     1       5.452   5.769  15.735  0.00  0.00    +0.000 A 
ATOM     21  C   UNL     1       5.314   4.565  16.390  0.00  0.00    +0.000 A 
ATOM     22  C   UNL     1       4.853   4.493  17.686  0.00  0.00    +0.000 A 
ATOM     23  O   UNL     1       5.681   3.509  15.615  0.00  0.00    +0.000 OA
ATOM     24  C   UNL     1       6.063   4.196  14.415  0.00  0.00    +0.000 C 
ATOM     25  F   UNL     1       7.352   3.889  14.133  0.00  0.00    +0.000 F 
ATOM     26  F   UNL     1       5.298   3.741  13.392  0.00  0.00    +0.000 F 
ATOM     27  O   UNL     1       5.938   5.625  14.474  0.00  0.00    +0.000 OA
ENDBRANCH  15  17
ENDBRANCH   1  15
TORSDOF 5
ENDMDL
