MODEL 1
REMARK VINA RESULT:      -8.9      0.000      0.000
REMARK  Name = 
REMARK  5 active torsions:
REMARK  status: ('A' for Active; 'I' for Inactive)
REMARK    1  A    between atoms: C_6  and  C_7
REMARK    2  A    between atoms: C_10  and  S_11
REMARK    3  A    between atoms: S_11  and  C_12
REMARK    4  A    between atoms: C_12  and  C_13
REMARK    5  A    between atoms: C_16  and  C_17
REMARK                            x       y       z     vdW  Elec       q    Type
REMARK                         _______ _______ _______ _____ _____    ______ ____
ROOT
ATOM      1  S   UNL     1       7.282   5.271  18.417  0.00  0.00    +0.000 S 
ENDROOT
BRANCH   1   5
ATOM      2  C   UNL     1       8.441   8.919  18.226  0.00  0.00    +0.000 A 
ATOM      3  N   UNL     1       7.774   8.859  17.091  0.00  0.00    +0.000 NA
ATOM      4  N   UNL     1       7.274   7.579  16.995  0.00  0.00    +0.000 NA
ATOM      5  C   UNL     1       7.662   6.936  18.078  0.00  0.00    +0.000 A 
ATOM      6  O   UNL     1       8.413   7.731  18.913  0.00  0.00    +0.000 OA
BRANCH   2  12
ATOM      7  C   UNL     1       9.205  10.312  20.188  0.00  0.00    +0.000 A 
ATOM      8  C   UNL     1       9.939  11.391  20.706  0.00  0.00    +0.000 A 
ATOM      9  C   UNL     1      10.633  12.186  19.818  0.00  0.00    +0.000 A 
ATOM     10  C   UNL     1      10.612  11.941  18.468  0.00  0.00    +0.000 A 
ATOM     11  C   UNL     1       9.903  10.886  17.932  0.00  0.00    +0.000 A 
ATOM     12  C   UNL     1       9.180  10.045  18.798  0.00  0.00    +0.000 A 
ATOM     13  O   UNL     1      11.356  12.836  17.765  0.00  0.00    +0.000 OA
ATOM     14  C   UNL     1      11.838  13.685  18.828  0.00  0.00    +0.000 C 
ATOM     15  O   UNL     1      11.396  13.266  20.136  0.00  0.00    +0.000 OA
ENDBRANCH   2  12
ENDBRANCH   1   5
BRANCH   1  16
ATOM     16  C   UNL     1       6.078   4.943  17.089  0.00  0.00    +0.000 C 
BRANCH  16  17
ATOM     17  C   UNL     1       4.687   5.271  17.499  0.00  0.00    +0.000 A 
ATOM     18  N   UNL     1       3.614   4.511  17.464  0.00  0.00    +0.000 NA
ATOM     19  N   UNL     1       2.599   5.246  18.038  0.00  0.00    +0.000 NA
ATOM     20  C   UNL     1       3.106   6.415  18.394  0.00  0.00    +0.000 A 
ATOM     21  O   UNL     1       4.448   6.495  18.077  0.00  0.00    +0.000 OA
BRANCH  20  22
ATOM     22  C   UNL     1       2.332   7.447  19.032  0.00  0.00    +0.000 A 
ATOM     23  C   UNL     1       1.994   7.512  20.373  0.00  0.00    +0.000 A 
ATOM     24  C   UNL     1       1.185   8.647  20.689  0.00  0.00    +0.000 A 
ATOM     25  C   UNL     1       0.943   9.413  19.567  0.00  0.00    +0.000 A 
ATOM     26  S   UNL     1       1.693   8.785  18.172  0.00  0.00    +0.000 S 
ATOM     27  C   UNL     1       0.074  10.636  19.532  0.00  0.00    +0.000 C 
ATOM     28  C   UNL     1      -0.235  11.135  20.955  0.00  0.00    +0.000 C 
ATOM     29  C   UNL     1      -0.543   9.983  21.922  0.00  0.00    +0.000 C 
ATOM     30  C   UNL     1       0.643   9.014  22.038  0.00  0.00    +0.000 C 
ENDBRANCH  20  22
ENDBRANCH  16  17
ENDBRANCH   1  16
TORSDOF 5
ENDMDL
MODEL 2
REMARK VINA RESULT:      -8.6      0.920      1.377
REMARK  Name = 
REMARK  5 active torsions:
REMARK  status: ('A' for Active; 'I' for Inactive)
REMARK    1  A    between atoms: C_6  and  C_7
REMARK    2  A    between atoms: C_10  and  S_11
REMARK    3  A    between atoms: S_11  and  C_12
REMARK    4  A    between atoms: C_12  and  C_13
REMARK    5  A    between atoms: C_16  and  C_17
REMARK                            x       y       z     vdW  Elec       q    Type
REMARK                         _______ _______ _______ _____ _____    ______ ____
ROOT
ATOM      1  S   UNL     1       7.624   5.388  18.668  0.00  0.00    +0.000 S 
ENDROOT
BRANCH   1   5
ATOM      2  C   UNL     1       8.467   9.102  18.245  0.00  0.00    +0.000 A 
ATOM      3  N   UNL     1       7.901   8.888  17.074  0.00  0.00    +0.000 NA
ATOM      4  N   UNL     1       7.526   7.563  17.054  0.00  0.00    +0.000 NA
ATOM      5  C   UNL     1       7.881   7.049  18.213  0.00  0.00    +0.000 A 
ATOM      6  O   UNL     1       8.489   7.976  19.029  0.00  0.00    +0.000 OA
BRANCH   2  12
ATOM      7  C   UNL     1       9.557  10.439  20.089  0.00  0.00    +0.000 A 
ATOM      8  C   UNL     1      10.131  11.632  20.555  0.00  0.00    +0.000 A 
ATOM      9  C   UNL     1      10.190  12.703  19.688  0.00  0.00    +0.000 A 
ATOM     10  C   UNL     1       9.702  12.618  18.408  0.00  0.00    +0.000 A 
ATOM     11  C   UNL     1       9.136  11.456  17.923  0.00  0.00    +0.000 A 
ATOM     12  C   UNL     1       9.055  10.335  18.769  0.00  0.00    +0.000 A 
ATOM     13  O   UNL     1       9.851  13.777  17.715  0.00  0.00    +0.000 OA
ATOM     14  C   UNL     1      10.477  14.612  18.713  0.00  0.00    +0.000 C 
ATOM     15  O   UNL     1      10.711  13.929  19.962  0.00  0.00    +0.000 OA
ENDBRANCH   2  12
ENDBRANCH   1   5
BRANCH   1  16
ATOM     16  C   UNL     1       6.571   4.840  17.285  0.00  0.00    +0.000 C 
BRANCH  16  17
ATOM     17  C   UNL     1       5.135   5.142  17.518  0.00  0.00    +0.000 A 
ATOM     18  N   UNL     1       4.087   4.366  17.344  0.00  0.00    +0.000 NA
ATOM     19  N   UNL     1       2.997   5.079  17.789  0.00  0.00    +0.000 NA
ATOM     20  C   UNL     1       3.435   6.252  18.214  0.00  0.00    +0.000 A 
ATOM     21  O   UNL     1       4.805   6.357  18.069  0.00  0.00    +0.000 OA
BRANCH  20  22
ATOM     22  C   UNL     1       2.570   7.267  18.756  0.00  0.00    +0.000 A 
ATOM     23  C   UNL     1       2.110   8.396  18.097  0.00  0.00    +0.000 A 
ATOM     24  C   UNL     1       1.295   9.229  18.922  0.00  0.00    +0.000 A 
ATOM     25  C   UNL     1       1.159   8.696  20.188  0.00  0.00    +0.000 A 
ATOM     26  S   UNL     1       1.979   7.212  20.364  0.00  0.00    +0.000 S 
ATOM     27  C   UNL     1       0.425   9.349  21.322  0.00  0.00    +0.000 C 
ATOM     28  C   UNL     1      -0.448  10.512  20.818  0.00  0.00    +0.000 C 
ATOM     29  C   UNL     1       0.268  11.361  19.757  0.00  0.00    +0.000 C 
ATOM     30  C   UNL     1       0.645  10.521  18.526  0.00  0.00    +0.000 C 
ENDBRANCH  20  22
ENDBRANCH  16  17
ENDBRANCH   1  16
TORSDOF 5
ENDMDL
MODEL 3
REMARK VINA RESULT:      -8.6      1.461      2.013
REMARK  Name = 
REMARK  5 active torsions:
REMARK  status: ('A' for Active; 'I' for Inactive)
REMARK    1  A    between atoms: C_6  and  C_7
REMARK    2  A    between atoms: C_10  and  S_11
REMARK    3  A    between atoms: S_11  and  C_12
REMARK    4  A    between atoms: C_12  and  C_13
REMARK    5  A    between atoms: C_16  and  C_17
REMARK                            x       y       z     vdW  Elec       q    Type
REMARK                         _______ _______ _______ _____ _____    ______ ____
ROOT
ATOM      1  S   UNL     1       6.026   5.934  16.264  0.00  0.00    +0.000 S 
ENDROOT
BRANCH   1   5
ATOM      2  C   UNL     1       8.173   8.458  18.188  0.00  0.00    +0.000 A 
ATOM      3  N   UNL     1       8.460   7.376  18.884  0.00  0.00    +0.000 NA
ATOM      4  N   UNL     1       7.753   6.341  18.312  0.00  0.00    +0.000 NA
ATOM      5  C   UNL     1       7.080   6.852  17.302  0.00  0.00    +0.000 A 
ATOM      6  O   UNL     1       7.301   8.203  17.161  0.00  0.00    +0.000 OA
BRANCH   2  12
ATOM      7  C   UNL     1       8.290  10.889  17.519  0.00  0.00    +0.000 A 
ATOM      8  C   UNL     1       8.744  12.197  17.750  0.00  0.00    +0.000 A 
ATOM      9  C   UNL     1       9.549  12.419  18.848  0.00  0.00    +0.000 A 
ATOM     10  C   UNL     1       9.903  11.399  19.695  0.00  0.00    +0.000 A 
ATOM     11  C   UNL     1       9.468  10.105  19.494  0.00  0.00    +0.000 A 
ATOM     12  C   UNL     1       8.643   9.829  18.388  0.00  0.00    +0.000 A 
ATOM     13  O   UNL     1      10.699  11.820  20.713  0.00  0.00    +0.000 OA
ATOM     14  C   UNL     1      10.820  13.223  20.401  0.00  0.00    +0.000 C 
ATOM     15  O   UNL     1      10.076  13.613  19.228  0.00  0.00    +0.000 OA
ENDBRANCH   2  12
ENDBRANCH   1   5
BRANCH   1  16
ATOM     16  C   UNL     1       5.506   4.623  17.418  0.00  0.00    +0.000 C 
BRANCH  16  17
ATOM     17  C   UNL     1       4.384   5.056  18.291  0.00  0.00    +0.000 A 
ATOM     18  N   UNL     1       3.800   4.403  19.273  0.00  0.00    +0.000 NA
ATOM     19  N   UNL     1       2.883   5.270  19.825  0.00  0.00    +0.000 NA
ATOM     20  C   UNL     1       2.956   6.407  19.153  0.00  0.00    +0.000 A 
ATOM     21  O   UNL     1       3.906   6.337  18.152  0.00  0.00    +0.000 OA
BRANCH  20  22
ATOM     22  C   UNL     1       2.139   7.554  19.454  0.00  0.00    +0.000 A 
ATOM     23  C   UNL     1       1.822   8.589  18.590  0.00  0.00    +0.000 A 
ATOM     24  C   UNL     1       1.020   9.600  19.203  0.00  0.00    +0.000 A 
ATOM     25  C   UNL     1       0.748   9.289  20.520  0.00  0.00    +0.000 A 
ATOM     26  S   UNL     1       1.429   7.801  20.995  0.00  0.00    +0.000 S 
ATOM     27  C   UNL     1      -0.011  10.167  21.471  0.00  0.00    +0.000 C 
ATOM     28  C   UNL     1      -0.747  11.290  20.719  0.00  0.00    +0.000 C 
ATOM     29  C   UNL     1       0.112  11.904  19.604  0.00  0.00    +0.000 C 
ATOM     30  C   UNL     1       0.508  10.852  18.556  0.00  0.00    +0.000 C 
ENDBRANCH  20  22
ENDBRANCH  16  17
ENDBRANCH   1  16
TORSDOF 5
ENDMDL
MODEL 4
REMARK VINA RESULT:      -8.5      2.264      8.148
REMARK  Name = 
REMARK  5 active torsions:
REMARK  status: ('A' for Active; 'I' for Inactive)
REMARK    1  A    between atoms: C_6  and  C_7
REMARK    2  A    between atoms: C_10  and  S_11
REMARK    3  A    between atoms: S_11  and  C_12
REMARK    4  A    between atoms: C_12  and  C_13
REMARK    5  A    between atoms: C_16  and  C_17
REMARK                            x       y       z     vdW  Elec       q    Type
REMARK                         _______ _______ _______ _____ _____    ______ ____
ROOT
ATOM      1  S   UNL     1       7.145   4.541  17.571  0.00  0.00    +0.000 S 
ENDROOT
BRANCH   1   5
ATOM      2  C   UNL     1       3.632   5.907  18.263  0.00  0.00    +0.000 A 
ATOM      3  N   UNL     1       3.299   4.829  17.583  0.00  0.00    +0.000 NA
ATOM      4  N   UNL     1       4.476   4.197  17.244  0.00  0.00    +0.000 NA
ATOM      5  C   UNL     1       5.455   4.926  17.741  0.00  0.00    +0.000 A 
ATOM      6  O   UNL     1       4.990   6.036  18.407  0.00  0.00    +0.000 OA
BRANCH   2  12
ATOM      7  C   UNL     1       2.218   6.830  20.140  0.00  0.00    +0.000 A 
ATOM      8  C   UNL     1       1.402   7.842  20.668  0.00  0.00    +0.000 A 
ATOM      9  C   UNL     1       1.143   8.942  19.878  0.00  0.00    +0.000 A 
ATOM     10  C   UNL     1       1.660   9.053  18.611  0.00  0.00    +0.000 A 
ATOM     11  C   UNL     1       2.469   8.076  18.069  0.00  0.00    +0.000 A 
ATOM     12  C   UNL     1       2.763   6.934  18.838  0.00  0.00    +0.000 A 
ATOM     13  O   UNL     1       1.289  10.207  17.996  0.00  0.00    +0.000 OA
ATOM     14  C   UNL     1       0.463  10.806  19.017  0.00  0.00    +0.000 C 
ATOM     15  O   UNL     1       0.381  10.015  20.221  0.00  0.00    +0.000 OA
ENDBRANCH   2  12
ENDBRANCH   1   5
BRANCH   1  16
ATOM     16  C   UNL     1       7.856   5.681  18.802  0.00  0.00    +0.000 C 
BRANCH  16  17
ATOM     17  C   UNL     1       8.022   7.056  18.263  0.00  0.00    +0.000 A 
ATOM     18  N   UNL     1       7.633   7.542  17.104  0.00  0.00    +0.000 NA
ATOM     19  N   UNL     1       7.940   8.885  17.124  0.00  0.00    +0.000 NA
ATOM     20  C   UNL     1       8.498   9.148  18.294  0.00  0.00    +0.000 A 
ATOM     21  O   UNL     1       8.579   8.013  19.077  0.00  0.00    +0.000 OA
BRANCH  20  22
ATOM     22  C   UNL     1       8.949  10.462  18.674  0.00  0.00    +0.000 A 
ATOM     23  C   UNL     1       8.884  11.610  17.902  0.00  0.00    +0.000 A 
ATOM     24  C   UNL     1       9.449  12.750  18.552  0.00  0.00    +0.000 A 
ATOM     25  C   UNL     1       9.920  12.425  19.807  0.00  0.00    +0.000 A 
ATOM     26  S   UNL     1       9.665  10.785  20.197  0.00  0.00    +0.000 S 
ATOM     27  C   UNL     1      10.633  13.370  20.730  0.00  0.00    +0.000 C 
ATOM     28  C   UNL     1      10.472  14.827  20.260  0.00  0.00    +0.000 C 
ATOM     29  C   UNL     1      10.610  14.966  18.737  0.00  0.00    +0.000 C 
ATOM     30  C   UNL     1       9.545  14.141  17.999  0.00  0.00    +0.000 C 
ENDBRANCH  20  22
ENDBRANCH  16  17
ENDBRANCH   1  16
TORSDOF 5
ENDMDL
MODEL 5
REMARK VINA RESULT:      -8.4      2.254      8.427
REMARK  Name = 
REMARK  5 active torsions:
REMARK  status: ('A' for Active; 'I' for Inactive)
REMARK    1  A    between atoms: C_6  and  C_7
REMARK    2  A    between atoms: C_10  and  S_11
REMARK    3  A    between atoms: S_11  and  C_12
REMARK    4  A    between atoms: C_12  and  C_13
REMARK    5  A    between atoms: C_16  and  C_17
REMARK                            x       y       z     vdW  Elec       q    Type
REMARK                         _______ _______ _______ _____ _____    ______ ____
ROOT
ATOM      1  S   UNL     1       5.982   4.736  16.964  0.00  0.00    +0.000 S 
ENDROOT
BRANCH   1   5
ATOM      2  C   UNL     1       2.963   6.444  18.592  0.00  0.00    +0.000 A 
ATOM      3  N   UNL     1       2.675   5.193  18.893  0.00  0.00    +0.000 NA
ATOM      4  N   UNL     1       3.687   4.419  18.369  0.00  0.00    +0.000 NA
ATOM      5  C   UNL     1       4.531   5.242  17.784  0.00  0.00    +0.000 A 
ATOM      6  O   UNL     1       4.134   6.555  17.887  0.00  0.00    +0.000 OA
BRANCH   2  12
ATOM      7  C   UNL     1       1.889   8.625  17.912  0.00  0.00    +0.000 A 
ATOM      8  C   UNL     1       1.146   9.771  18.234  0.00  0.00    +0.000 A 
ATOM      9  C   UNL     1       0.737   9.931  19.541  0.00  0.00    +0.000 A 
ATOM     10  C   UNL     1       1.043   9.005  20.507  0.00  0.00    +0.000 A 
ATOM     11  C   UNL     1       1.768   7.867  20.217  0.00  0.00    +0.000 A 
ATOM     12  C   UNL     1       2.206   7.659  18.897  0.00  0.00    +0.000 A 
ATOM     13  O   UNL     1       0.553   9.344  21.728  0.00  0.00    +0.000 OA
ATOM     14  C   UNL     1      -0.087  10.602  21.425  0.00  0.00    +0.000 C 
ATOM     15  O   UNL     1       0.011  10.970  20.033  0.00  0.00    +0.000 OA
ENDBRANCH   2  12
ENDBRANCH   1   5
BRANCH   1  16
ATOM     16  C   UNL     1       6.594   6.349  16.376  0.00  0.00    +0.000 C 
BRANCH  16  17
ATOM     17  C   UNL     1       7.369   7.069  17.421  0.00  0.00    +0.000 A 
ATOM     18  N   UNL     1       7.917   6.594  18.519  0.00  0.00    +0.000 NA
ATOM     19  N   UNL     1       8.598   7.642  19.097  0.00  0.00    +0.000 NA
ATOM     20  C   UNL     1       8.432   8.702  18.322  0.00  0.00    +0.000 A 
ATOM     21  O   UNL     1       7.651   8.399  17.223  0.00  0.00    +0.000 OA
BRANCH  20  22
ATOM     22  C   UNL     1       9.007   9.989  18.612  0.00  0.00    +0.000 A 
ATOM     23  C   UNL     1       9.445  10.922  17.687  0.00  0.00    +0.000 A 
ATOM     24  C   UNL     1      10.002  12.089  18.295  0.00  0.00    +0.000 A 
ATOM     25  C   UNL     1       9.960  12.002  19.671  0.00  0.00    +0.000 A 
ATOM     26  S   UNL     1       9.245  10.552  20.213  0.00  0.00    +0.000 S 
ATOM     27  C   UNL     1      10.523  13.023  20.615  0.00  0.00    +0.000 C 
ATOM     28  C   UNL     1      10.841  14.338  19.881  0.00  0.00    +0.000 C 
ATOM     29  C   UNL     1      11.490  14.097  18.511  0.00  0.00    +0.000 C 
ATOM     30  C   UNL     1      10.569  13.284  17.588  0.00  0.00    +0.000 C 
ENDBRANCH  20  22
ENDBRANCH  16  17
ENDBRANCH   1  16
TORSDOF 5
ENDMDL
MODEL 6
REMARK VINA RESULT:      -8.4      1.571      2.155
REMARK  Name = 
REMARK  5 active torsions:
REMARK  status: ('A' for Active; 'I' for Inactive)
REMARK    1  A    between atoms: C_6  and  C_7
REMARK    2  A    between atoms: C_10  and  S_11
REMARK    3  A    between atoms: S_11  and  C_12
REMARK    4  A    between atoms: C_12  and  C_13
REMARK    5  A    between atoms: C_16  and  C_17
REMARK                            x       y       z     vdW  Elec       q    Type
REMARK                         _______ _______ _______ _____ _____    ______ ____
ROOT
ATOM      1  S   UNL     1       6.225   5.734  16.207  0.00  0.00    +0.000 S 
ENDROOT
BRANCH   1   5
ATOM      2  C   UNL     1       8.221   8.318  18.212  0.00  0.00    +0.000 A 
ATOM      3  N   UNL     1       8.493   7.249  18.933  0.00  0.00    +0.000 NA
ATOM      4  N   UNL     1       7.836   6.194  18.337  0.00  0.00    +0.000 NA
ATOM      5  C   UNL     1       7.207   6.682  17.288  0.00  0.00    +0.000 A 
ATOM      6  O   UNL     1       7.408   8.036  17.144  0.00  0.00    +0.000 OA
BRANCH   2  12
ATOM      7  C   UNL     1       8.328  10.745  17.523  0.00  0.00    +0.000 A 
ATOM      8  C   UNL     1       8.743  12.063  17.763  0.00  0.00    +0.000 A 
ATOM      9  C   UNL     1       9.484  12.312  18.899  0.00  0.00    +0.000 A 
ATOM     10  C   UNL     1       9.812  11.307  19.775  0.00  0.00    +0.000 A 
ATOM     11  C   UNL     1       9.413  10.003  19.567  0.00  0.00    +0.000 A 
ATOM     12  C   UNL     1       8.653   9.700  18.421  0.00  0.00    +0.000 A 
ATOM     13  O   UNL     1      10.545  11.754  20.829  0.00  0.00    +0.000 OA
ATOM     14  C   UNL     1      10.655  13.157  20.509  0.00  0.00    +0.000 C 
ATOM     15  O   UNL     1       9.967  13.520  19.294  0.00  0.00    +0.000 OA
ENDBRANCH   2  12
ENDBRANCH   1   5
BRANCH   1  16
ATOM     16  C   UNL     1       4.764   6.815  16.073  0.00  0.00    +0.000 C 
BRANCH  16  17
ATOM     17  C   UNL     1       3.878   6.710  17.262  0.00  0.00    +0.000 A 
ATOM     18  N   UNL     1       3.655   5.671  18.038  0.00  0.00    +0.000 NA
ATOM     19  N   UNL     1       2.832   6.112  19.051  0.00  0.00    +0.000 NA
ATOM     20  C   UNL     1       2.596   7.396  18.841  0.00  0.00    +0.000 A 
ATOM     21  O   UNL     1       3.243   7.844  17.705  0.00  0.00    +0.000 OA
BRANCH  20  22
ATOM     22  C   UNL     1       1.771   8.197  19.707  0.00  0.00    +0.000 A 
ATOM     23  C   UNL     1       1.168   9.402  19.385  0.00  0.00    +0.000 A 
ATOM     24  C   UNL     1       0.441   9.969  20.477  0.00  0.00    +0.000 A 
ATOM     25  C   UNL     1       0.513   9.164  21.595  0.00  0.00    +0.000 A 
ATOM     26  S   UNL     1       1.420   7.747  21.323  0.00  0.00    +0.000 S 
ATOM     27  C   UNL     1      -0.080   9.494  22.933  0.00  0.00    +0.000 C 
ATOM     28  C   UNL     1      -1.071  10.667  22.823  0.00  0.00    +0.000 C 
ATOM     29  C   UNL     1      -0.556  11.780  21.899  0.00  0.00    +0.000 C 
ATOM     30  C   UNL     1      -0.321  11.261  20.472  0.00  0.00    +0.000 C 
ENDBRANCH  20  22
ENDBRANCH  16  17
ENDBRANCH   1  16
TORSDOF 5
ENDMDL
MODEL 7
REMARK VINA RESULT:      -8.4      2.185      8.199
REMARK  Name = 
REMARK  5 active torsions:
REMARK  status: ('A' for Active; 'I' for Inactive)
REMARK    1  A    between atoms: C_6  and  C_7
REMARK    2  A    between atoms: C_10  and  S_11
REMARK    3  A    between atoms: S_11  and  C_12
REMARK    4  A    between atoms: C_12  and  C_13
REMARK    5  A    between atoms: C_16  and  C_17
REMARK                            x       y       z     vdW  Elec       q    Type
REMARK                         _______ _______ _______ _____ _____    ______ ____
ROOT
ATOM      1  S   UNL     1       6.958   4.601  17.768  0.00  0.00    +0.000 S 
ENDROOT
BRANCH   1   5
ATOM      2  C   UNL     1       3.459   5.883  18.663  0.00  0.00    +0.000 A 
ATOM      3  N   UNL     1       3.123   4.715  18.155  0.00  0.00    +0.000 NA
ATOM      4  N   UNL     1       4.294   4.100  17.771  0.00  0.00    +0.000 NA
ATOM      5  C   UNL     1       5.274   4.928  18.070  0.00  0.00    +0.000 A 
ATOM      6  O   UNL     1       4.815   6.090  18.646  0.00  0.00    +0.000 OA
BRANCH   2  12
ATOM      7  C   UNL     1       2.022   6.861  20.494  0.00  0.00    +0.000 A 
ATOM      8  C   UNL     1       1.210   7.895  20.986  0.00  0.00    +0.000 A 
ATOM      9  C   UNL     1       0.984   8.984  20.170  0.00  0.00    +0.000 A 
ATOM     10  C   UNL     1       1.527   9.064  18.913  0.00  0.00    +0.000 A 
ATOM     11  C   UNL     1       2.332   8.064  18.405  0.00  0.00    +0.000 A 
ATOM     12  C   UNL     1       2.594   6.934  19.201  0.00  0.00    +0.000 A 
ATOM     13  O   UNL     1       1.185  10.211  18.269  0.00  0.00    +0.000 OA
ATOM     14  C   UNL     1       0.348  10.840  19.262  0.00  0.00    +0.000 C 
ATOM     15  O   UNL     1       0.231  10.074  20.478  0.00  0.00    +0.000 OA
ENDBRANCH   2  12
ENDBRANCH   1   5
BRANCH   1  16
ATOM     16  C   UNL     1       7.723   5.800  18.907  0.00  0.00    +0.000 C 
BRANCH  16  17
ATOM     17  C   UNL     1       7.902   7.135  18.280  0.00  0.00    +0.000 A 
ATOM     18  N   UNL     1       7.440   7.577  17.130  0.00  0.00    +0.000 NA
ATOM     19  N   UNL     1       7.802   8.903  17.049  0.00  0.00    +0.000 NA
ATOM     20  C   UNL     1       8.465   9.203  18.154  0.00  0.00    +0.000 A 
ATOM     21  O   UNL     1       8.562   8.108  18.991  0.00  0.00    +0.000 OA
BRANCH  20  22
ATOM     22  C   UNL     1       8.999  10.513  18.422  0.00  0.00    +0.000 A 
ATOM     23  C   UNL     1      10.033  10.818  19.292  0.00  0.00    +0.000 A 
ATOM     24  C   UNL     1      10.305  12.219  19.363  0.00  0.00    +0.000 A 
ATOM     25  C   UNL     1       9.464  12.932  18.533  0.00  0.00    +0.000 A 
ATOM     26  S   UNL     1       8.388  11.928  17.673  0.00  0.00    +0.000 S 
ATOM     27  C   UNL     1       9.435  14.428  18.418  0.00  0.00    +0.000 C 
ATOM     28  C   UNL     1      10.680  15.056  19.070  0.00  0.00    +0.000 C 
ATOM     29  C   UNL     1      11.045  14.380  20.400  0.00  0.00    +0.000 C 
ATOM     30  C   UNL     1      11.350  12.887  20.206  0.00  0.00    +0.000 C 
ENDBRANCH  20  22
ENDBRANCH  16  17
ENDBRANCH   1  16
TORSDOF 5
ENDMDL
MODEL 8
REMARK VINA RESULT:      -8.2      1.443      1.806
REMARK  Name = 
REMARK  5 active torsions:
REMARK  status: ('A' for Active; 'I' for Inactive)
REMARK    1  A    between atoms: C_6  and  C_7
REMARK    2  A    between atoms: C_10  and  S_11
REMARK    3  A    between atoms: S_11  and  C_12
REMARK    4  A    between atoms: C_12  and  C_13
REMARK    5  A    between atoms: C_16  and  C_17
REMARK                            x       y       z     vdW  Elec       q    Type
REMARK                         _______ _______ _______ _____ _____    ______ ____
ROOT
ATOM      1  S   UNL     1       6.000   6.242  16.159  0.00  0.00    +0.000 S 
ENDROOT
BRANCH   1   5
ATOM      2  C   UNL     1       8.255   8.487  18.294  0.00  0.00    +0.000 A 
ATOM      3  N   UNL     1       8.493   7.336  18.890  0.00  0.00    +0.000 NA
ATOM      4  N   UNL     1       7.742   6.388  18.231  0.00  0.00    +0.000 NA
ATOM      5  C   UNL     1       7.093   7.017  17.271  0.00  0.00    +0.000 A 
ATOM      6  O   UNL     1       7.374   8.363  17.250  0.00  0.00    +0.000 OA
BRANCH   2  12
ATOM      7  C   UNL     1       9.496  10.082  19.808  0.00  0.00    +0.000 A 
ATOM      8  C   UNL     1      10.007  11.361  20.076  0.00  0.00    +0.000 A 
ATOM      9  C   UNL     1       9.793  12.352  19.140  0.00  0.00    +0.000 A 
ATOM     10  C   UNL     1       9.101  12.106  17.981  0.00  0.00    +0.000 A 
ATOM     11  C   UNL     1       8.592  10.857  17.691  0.00  0.00    +0.000 A 
ATOM     12  C   UNL     1       8.786   9.813  18.613  0.00  0.00    +0.000 A 
ATOM     13  O   UNL     1       8.997  13.209  17.193  0.00  0.00    +0.000 OA
ATOM     14  C   UNL     1       9.691  14.185  17.998  0.00  0.00    +0.000 C 
ATOM     15  O   UNL     1      10.214  13.641  19.228  0.00  0.00    +0.000 OA
ENDBRANCH   2  12
ENDBRANCH   1   5
BRANCH   1  16
ATOM     16  C   UNL     1       5.324   4.936  17.235  0.00  0.00    +0.000 C 
BRANCH  16  17
ATOM     17  C   UNL     1       4.067   5.356  17.907  0.00  0.00    +0.000 A 
ATOM     18  N   UNL     1       3.132   4.609  18.453  0.00  0.00    +0.000 NA
ATOM     19  N   UNL     1       2.225   5.476  19.022  0.00  0.00    +0.000 NA
ATOM     20  C   UNL     1       2.654   6.707  18.794  0.00  0.00    +0.000 A 
ATOM     21  O   UNL     1       3.839   6.699  18.083  0.00  0.00    +0.000 OA
BRANCH  20  22
ATOM     22  C   UNL     1       1.957   7.881  19.248  0.00  0.00    +0.000 A 
ATOM     23  C   UNL     1       1.658   9.004  18.494  0.00  0.00    +0.000 A 
ATOM     24  C   UNL     1       0.987  10.017  19.246  0.00  0.00    +0.000 A 
ATOM     25  C   UNL     1       0.793   9.620  20.553  0.00  0.00    +0.000 A 
ATOM     26  S   UNL     1       1.388   8.052  20.856  0.00  0.00    +0.000 S 
ATOM     27  C   UNL     1       0.180  10.469  21.628  0.00  0.00    +0.000 C 
ATOM     28  C   UNL     1      -0.519  11.702  21.027  0.00  0.00    +0.000 C 
ATOM     29  C   UNL     1       0.298  12.341  19.895  0.00  0.00    +0.000 C 
ATOM     30  C   UNL     1       0.528  11.352  18.741  0.00  0.00    +0.000 C 
ENDBRANCH  20  22
ENDBRANCH  16  17
ENDBRANCH   1  16
TORSDOF 5
ENDMDL
MODEL 9
REMARK VINA RESULT:      -8.2      1.664      2.074
REMARK  Name = 
REMARK  5 active torsions:
REMARK  status: ('A' for Active; 'I' for Inactive)
REMARK    1  A    between atoms: C_6  and  C_7
REMARK    2  A    between atoms: C_10  and  S_11
REMARK    3  A    between atoms: S_11  and  C_12
REMARK    4  A    between atoms: C_12  and  C_13
REMARK    5  A    between atoms: C_16  and  C_17
REMARK                            x       y       z     vdW  Elec       q    Type
REMARK                         _______ _______ _______ _____ _____    ______ ____
ROOT
ATOM      1  S   UNL     1       6.177   5.828  16.232  0.00  0.00    +0.000 S 
ENDROOT
BRANCH   1   5
ATOM      2  C   UNL     1       8.220   8.321  18.304  0.00  0.00    +0.000 A 
ATOM      3  N   UNL     1       8.468   7.230  18.999  0.00  0.00    +0.000 NA
ATOM      4  N   UNL     1       7.792   6.203  18.376  0.00  0.00    +0.000 NA
ATOM      5  C   UNL     1       7.175   6.730  17.338  0.00  0.00    +0.000 A 
ATOM      6  O   UNL     1       7.404   8.082  17.228  0.00  0.00    +0.000 OA
BRANCH   2  12
ATOM      7  C   UNL     1       9.556  10.020  19.610  0.00  0.00    +0.000 A 
ATOM      8  C   UNL     1       9.992  11.340  19.805  0.00  0.00    +0.000 A 
ATOM      9  C   UNL     1       9.538  12.307  18.932  0.00  0.00    +0.000 A 
ATOM     10  C   UNL     1       8.684  12.000  17.903  0.00  0.00    +0.000 A 
ATOM     11  C   UNL     1       8.243  10.711  17.685  0.00  0.00    +0.000 A 
ATOM     12  C   UNL     1       8.680   9.689  18.548  0.00  0.00    +0.000 A 
ATOM     13  O   UNL     1       8.353  13.089  17.159  0.00  0.00    +0.000 OA
ATOM     14  C   UNL     1       9.086  14.123  17.849  0.00  0.00    +0.000 C 
ATOM     15  O   UNL     1       9.855  13.629  18.965  0.00  0.00    +0.000 OA
ENDBRANCH   2  12
ENDBRANCH   1   5
BRANCH   1  16
ATOM     16  C   UNL     1       4.761   6.965  16.082  0.00  0.00    +0.000 C 
BRANCH  16  17
ATOM     17  C   UNL     1       3.816   6.837  17.222  0.00  0.00    +0.000 A 
ATOM     18  N   UNL     1       3.477   5.760  17.898  0.00  0.00    +0.000 NA
ATOM     19  N   UNL     1       2.644   6.183  18.910  0.00  0.00    +0.000 NA
ATOM     20  C   UNL     1       2.518   7.495  18.800  0.00  0.00    +0.000 A 
ATOM     21  O   UNL     1       3.250   7.980  17.733  0.00  0.00    +0.000 OA
BRANCH  20  22
ATOM     22  C   UNL     1       1.718   8.288  19.696  0.00  0.00    +0.000 A 
ATOM     23  C   UNL     1       1.123   9.506  19.410  0.00  0.00    +0.000 A 
ATOM     24  C   UNL     1       0.423  10.059  20.525  0.00  0.00    +0.000 A 
ATOM     25  C   UNL     1       0.506   9.231  21.626  0.00  0.00    +0.000 A 
ATOM     26  S   UNL     1       1.391   7.809  21.309  0.00  0.00    +0.000 S 
ATOM     27  C   UNL     1      -0.060   9.541  22.980  0.00  0.00    +0.000 C 
ATOM     28  C   UNL     1      -1.038  10.727  22.912  0.00  0.00    +0.000 C 
ATOM     29  C   UNL     1      -0.527  11.852  22.001  0.00  0.00    +0.000 C 
ATOM     30  C   UNL     1      -0.324  11.359  20.559  0.00  0.00    +0.000 C 
ENDBRANCH  20  22
ENDBRANCH  16  17
ENDBRANCH   1  16
TORSDOF 5
ENDMDL
