MODEL 1
REMARK VINA RESULT:      -8.7      0.000      0.000
REMARK  Name = 
REMARK  8 active torsions:
REMARK  status: ('A' for Active; 'I' for Inactive)
REMARK    1  A    between atoms: C_1  and  C_2
REMARK    2  A    between atoms: C_5  and  C_6
REMARK    3  A    between atoms: C_7  and  N_8
REMARK    4  A    between atoms: C_9  and  C_11
REMARK    5  A    between atoms: C_11  and  C_12
REMARK    6  A    between atoms: C_11  and  S_13
REMARK    7  A    between atoms: S_13  and  C_14
REMARK    8  A    between atoms: C_16  and  C_17
REMARK                            x       y       z     vdW  Elec       q    Type
REMARK                         _______ _______ _______ _____ _____    ______ ____
ROOT
ATOM      1  S   UNL     1       3.634   3.499  17.420  0.00  0.00    +0.000 S 
ENDROOT
BRANCH   1   2
ATOM      2  C   UNL     1       5.291   4.104  17.059  0.00  0.00    +0.000 A 
ATOM      3  N   UNL     1       5.967   4.587  18.114  0.00  0.00    +0.000 NA
ATOM      4  C   UNL     1       7.142   5.205  17.881  0.00  0.00    +0.000 A 
ATOM      5  N   UNL     1       7.651   5.366  16.640  0.00  0.00    +0.000 NA
ATOM      6  C   UNL     1       6.981   4.855  15.603  0.00  0.00    +0.000 A 
ATOM      7  C   UNL     1       7.501   5.047  14.329  0.00  0.00    +0.000 A 
ATOM      8  C   UNL     1       6.883   4.527  13.189  0.00  0.00    +0.000 A 
ATOM      9  C   UNL     1       5.725   3.774  13.320  0.00  0.00    +0.000 A 
ATOM     10  C   UNL     1       5.172   3.588  14.587  0.00  0.00    +0.000 A 
ATOM     11  C   UNL     1       5.780   4.152  15.742  0.00  0.00    +0.000 A 
BRANCH   4  12
ATOM     12  C   UNL     1       7.937   5.760  19.069  0.00  0.00    +0.000 C 
ATOM     13  F   UNL     1       8.475   6.996  18.846  0.00  0.00    +0.000 F 
ATOM     14  F   UNL     1       7.176   5.901  20.197  0.00  0.00    +0.000 F 
ATOM     15  F   UNL     1       8.987   4.965  19.431  0.00  0.00    +0.000 F 
ENDBRANCH   4  12
ENDBRANCH   1   2
BRANCH   1  16
ATOM     16  C   UNL     1       3.264   4.347  19.011  0.00  0.00    +0.000 C 
ATOM     17  C   UNL     1       2.651   3.345  19.986  0.00  0.00    +0.000 C 
BRANCH  16  19
ATOM     18  N   UNL     1       2.517   6.578  19.771  0.00  0.00    +0.000 N 
ATOM     19  C   UNL     1       2.299   5.540  18.890  0.00  0.00    +0.000 C 
ATOM     20  O   UNL     1       1.513   5.544  17.947  0.00  0.00    +0.000 OA
ATOM     21  H   UNL     1       3.347   6.463  20.339  0.00  0.00    +0.000 HD
BRANCH  18  28
ATOM     22  C   UNL     1      -0.141   9.225  22.934  0.00  0.00    +0.000 C 
ATOM     23  C   UNL     1       0.491   9.103  21.580  0.00  0.00    +0.000 A 
ATOM     24  C   UNL     1       0.397  10.146  20.667  0.00  0.00    +0.000 A 
ATOM     25  C   UNL     1       0.989  10.024  19.414  0.00  0.00    +0.000 A 
ATOM     26  C   UNL     1       1.694   8.863  19.027  0.00  0.00    +0.000 A 
ATOM     27  C   UNL     1       2.221   8.874  17.622  0.00  0.00    +0.000 C 
ATOM     28  C   UNL     1       1.830   7.810  19.950  0.00  0.00    +0.000 A 
ATOM     29  C   UNL     1       1.200   7.945  21.212  0.00  0.00    +0.000 A 
ENDBRANCH  18  28
ENDBRANCH  16  19
ENDBRANCH   1  16
TORSDOF 5
ENDMDL
MODEL 2
REMARK VINA RESULT:      -8.3      3.194      4.241
REMARK  Name = 
REMARK  8 active torsions:
REMARK  status: ('A' for Active; 'I' for Inactive)
REMARK    1  A    between atoms: C_1  and  C_2
REMARK    2  A    between atoms: C_5  and  C_6
REMARK    3  A    between atoms: C_7  and  N_8
REMARK    4  A    between atoms: C_9  and  C_11
REMARK    5  A    between atoms: C_11  and  C_12
REMARK    6  A    between atoms: C_11  and  S_13
REMARK    7  A    between atoms: S_13  and  C_14
REMARK    8  A    between atoms: C_16  and  C_17
REMARK                            x       y       z     vdW  Elec       q    Type
REMARK                         _______ _______ _______ _____ _____    ______ ____
ROOT
ATOM      1  S   UNL     1       2.471   6.563  17.588  0.00  0.00    +0.000 S 
ENDROOT
BRANCH   1   2
ATOM      2  C   UNL     1       3.832   5.510  18.117  0.00  0.00    +0.000 A 
ATOM      3  N   UNL     1       3.470   4.345  18.679  0.00  0.00    +0.000 NA
ATOM      4  C   UNL     1       4.434   3.592  19.244  0.00  0.00    +0.000 A 
ATOM      5  N   UNL     1       5.731   3.966  19.277  0.00  0.00    +0.000 NA
ATOM      6  C   UNL     1       6.081   5.113  18.688  0.00  0.00    +0.000 A 
ATOM      7  C   UNL     1       7.414   5.501  18.749  0.00  0.00    +0.000 A 
ATOM      8  C   UNL     1       7.874   6.671  18.141  0.00  0.00    +0.000 A 
ATOM      9  C   UNL     1       6.989   7.469  17.431  0.00  0.00    +0.000 A 
ATOM     10  C   UNL     1       5.642   7.112  17.376  0.00  0.00    +0.000 A 
ATOM     11  C   UNL     1       5.166   5.942  18.031  0.00  0.00    +0.000 A 
BRANCH   4  12
ATOM     12  C   UNL     1       4.048   2.254  19.888  0.00  0.00    +0.000 C 
ATOM     13  F   UNL     1       3.992   1.211  19.007  0.00  0.00    +0.000 F 
ATOM     14  F   UNL     1       4.929   1.857  20.855  0.00  0.00    +0.000 F 
ATOM     15  F   UNL     1       2.824   2.284  20.496  0.00  0.00    +0.000 F 
ENDBRANCH   4  12
ENDBRANCH   1   2
BRANCH   1  16
ATOM     16  C   UNL     1       2.449   7.840  18.913  0.00  0.00    +0.000 C 
ATOM     17  C   UNL     1       1.892   7.228  20.195  0.00  0.00    +0.000 C 
BRANCH  16  19
ATOM     18  N   UNL     1       0.646   9.425  19.507  0.00  0.00    +0.000 N 
ATOM     19  C   UNL     1       1.612   9.089  18.583  0.00  0.00    +0.000 C 
ATOM     20  O   UNL     1       1.951   9.762  17.613  0.00  0.00    +0.000 OA
ATOM     21  H   UNL     1       0.663   8.850  20.341  0.00  0.00    +0.000 HD
BRANCH  18  28
ATOM     22  C   UNL     1      -0.880  13.349  22.028  0.00  0.00    +0.000 C 
ATOM     23  C   UNL     1      -1.033  12.452  20.835  0.00  0.00    +0.000 A 
ATOM     24  C   UNL     1      -2.002  12.723  19.877  0.00  0.00    +0.000 A 
ATOM     25  C   UNL     1      -2.135  11.887  18.773  0.00  0.00    +0.000 A 
ATOM     26  C   UNL     1      -1.309  10.757  18.584  0.00  0.00    +0.000 A 
ATOM     27  C   UNL     1      -1.624   9.932  17.370  0.00  0.00    +0.000 C 
ATOM     28  C   UNL     1      -0.300  10.486  19.525  0.00  0.00    +0.000 A 
ATOM     29  C   UNL     1      -0.196  11.336  20.654  0.00  0.00    +0.000 A 
ENDBRANCH  18  28
ENDBRANCH  16  19
ENDBRANCH   1  16
TORSDOF 5
ENDMDL
MODEL 3
REMARK VINA RESULT:      -8.3      2.806      4.126
REMARK  Name = 
REMARK  8 active torsions:
REMARK  status: ('A' for Active; 'I' for Inactive)
REMARK    1  A    between atoms: C_1  and  C_2
REMARK    2  A    between atoms: C_5  and  C_6
REMARK    3  A    between atoms: C_7  and  N_8
REMARK    4  A    between atoms: C_9  and  C_11
REMARK    5  A    between atoms: C_11  and  C_12
REMARK    6  A    between atoms: C_11  and  S_13
REMARK    7  A    between atoms: S_13  and  C_14
REMARK    8  A    between atoms: C_16  and  C_17
REMARK                            x       y       z     vdW  Elec       q    Type
REMARK                         _______ _______ _______ _____ _____    ______ ____
ROOT
ATOM      1  S   UNL     1       2.652   7.044  17.479  0.00  0.00    +0.000 S 
ENDROOT
BRANCH   1   2
ATOM      2  C   UNL     1       3.707   5.788  18.220  0.00  0.00    +0.000 A 
ATOM      3  N   UNL     1       4.998   6.133  18.359  0.00  0.00    +0.000 NA
ATOM      4  C   UNL     1       5.866   5.179  18.750  0.00  0.00    +0.000 A 
ATOM      5  N   UNL     1       5.494   3.904  18.992  0.00  0.00    +0.000 NA
ATOM      6  C   UNL     1       4.202   3.582  18.878  0.00  0.00    +0.000 A 
ATOM      7  C   UNL     1       3.832   2.262  19.105  0.00  0.00    +0.000 A 
ATOM      8  C   UNL     1       2.503   1.841  19.033  0.00  0.00    +0.000 A 
ATOM      9  C   UNL     1       1.506   2.764  18.749  0.00  0.00    +0.000 A 
ATOM     10  C   UNL     1       1.855   4.089  18.494  0.00  0.00    +0.000 A 
ATOM     11  C   UNL     1       3.214   4.508  18.527  0.00  0.00    +0.000 A 
BRANCH   4  12
ATOM     12  C   UNL     1       7.345   5.548  18.922  0.00  0.00    +0.000 C 
ATOM     13  F   UNL     1       7.751   5.617  20.225  0.00  0.00    +0.000 F 
ATOM     14  F   UNL     1       8.189   4.647  18.333  0.00  0.00    +0.000 F 
ATOM     15  F   UNL     1       7.663   6.760  18.376  0.00  0.00    +0.000 F 
ENDBRANCH   4  12
ENDBRANCH   1   2
BRANCH   1  16
ATOM     16  C   UNL     1       2.443   8.228  18.873  0.00  0.00    +0.000 C 
ATOM     17  C   UNL     1       1.915   7.481  20.095  0.00  0.00    +0.000 C 
BRANCH  16  19
ATOM     18  N   UNL     1       0.454   9.563  19.481  0.00  0.00    +0.000 N 
ATOM     19  C   UNL     1       1.485   9.396  18.582  0.00  0.00    +0.000 C 
ATOM     20  O   UNL     1       1.781  10.163  17.670  0.00  0.00    +0.000 OA
ATOM     21  H   UNL     1       0.504   8.942  20.279  0.00  0.00    +0.000 HD
BRANCH  18  28
ATOM     22  C   UNL     1      -1.612  13.107  22.175  0.00  0.00    +0.000 C 
ATOM     23  C   UNL     1      -1.611  12.287  20.919  0.00  0.00    +0.000 A 
ATOM     24  C   UNL     1      -2.562  12.519  19.932  0.00  0.00    +0.000 A 
ATOM     25  C   UNL     1      -2.551  11.755  18.770  0.00  0.00    +0.000 A 
ATOM     26  C   UNL     1      -1.597  10.738  18.549  0.00  0.00    +0.000 A 
ATOM     27  C   UNL     1      -1.763   9.973  17.268  0.00  0.00    +0.000 C 
ATOM     28  C   UNL     1      -0.605  10.512  19.521  0.00  0.00    +0.000 A 
ATOM     29  C   UNL     1      -0.648  11.285  20.708  0.00  0.00    +0.000 A 
ENDBRANCH  18  28
ENDBRANCH  16  19
ENDBRANCH   1  16
TORSDOF 5
ENDMDL
MODEL 4
REMARK VINA RESULT:      -8.3      2.893      4.899
REMARK  Name = 
REMARK  8 active torsions:
REMARK  status: ('A' for Active; 'I' for Inactive)
REMARK    1  A    between atoms: C_1  and  C_2
REMARK    2  A    between atoms: C_5  and  C_6
REMARK    3  A    between atoms: C_7  and  N_8
REMARK    4  A    between atoms: C_9  and  C_11
REMARK    5  A    between atoms: C_11  and  C_12
REMARK    6  A    between atoms: C_11  and  S_13
REMARK    7  A    between atoms: S_13  and  C_14
REMARK    8  A    between atoms: C_16  and  C_17
REMARK                            x       y       z     vdW  Elec       q    Type
REMARK                         _______ _______ _______ _____ _____    ______ ____
ROOT
ATOM      1  S   UNL     1       2.344   7.054  17.633  0.00  0.00    +0.000 S 
ENDROOT
BRANCH   1   2
ATOM      2  C   UNL     1       3.436   5.882  18.454  0.00  0.00    +0.000 A 
ATOM      3  N   UNL     1       4.744   6.187  18.407  0.00  0.00    +0.000 NA
ATOM      4  C   UNL     1       5.621   5.269  18.856  0.00  0.00    +0.000 A 
ATOM      5  N   UNL     1       5.241   4.063  19.333  0.00  0.00    +0.000 NA
ATOM      6  C   UNL     1       3.936   3.785  19.400  0.00  0.00    +0.000 A 
ATOM      7  C   UNL     1       3.556   2.534  19.869  0.00  0.00    +0.000 A 
ATOM      8  C   UNL     1       2.215   2.166  19.998  0.00  0.00    +0.000 A 
ATOM      9  C   UNL     1       1.219   3.076  19.672  0.00  0.00    +0.000 A 
ATOM     10  C   UNL     1       1.577   4.329  19.177  0.00  0.00    +0.000 A 
ATOM     11  C   UNL     1       2.943   4.688  19.008  0.00  0.00    +0.000 A 
BRANCH   4  12
ATOM     12  C   UNL     1       7.120   5.594  18.819  0.00  0.00    +0.000 C 
ATOM     13  F   UNL     1       7.873   4.664  18.159  0.00  0.00    +0.000 F 
ATOM     14  F   UNL     1       7.390   6.780  18.193  0.00  0.00    +0.000 F 
ATOM     15  F   UNL     1       7.677   5.700  20.062  0.00  0.00    +0.000 F 
ENDBRANCH   4  12
ENDBRANCH   1   2
BRANCH   1  16
ATOM     16  C   UNL     1       2.307   8.442  18.840  0.00  0.00    +0.000 C 
ATOM     17  C   UNL     1       1.864   7.915  20.203  0.00  0.00    +0.000 C 
BRANCH  16  19
ATOM     18  N   UNL     1       0.022   9.326  18.512  0.00  0.00    +0.000 N 
ATOM     19  C   UNL     1       1.371   9.601  18.454  0.00  0.00    +0.000 C 
ATOM     20  O   UNL     1       1.877  10.703  18.263  0.00  0.00    +0.000 OA
ATOM     21  H   UNL     1      -0.192   8.409  18.888  0.00  0.00    +0.000 HD
BRANCH  18  28
ATOM     22  C   UNL     1      -3.441  10.266  15.164  0.00  0.00    +0.000 C 
ATOM     23  C   UNL     1      -2.832  10.574  16.499  0.00  0.00    +0.000 A 
ATOM     24  C   UNL     1      -3.398  11.542  17.319  0.00  0.00    +0.000 A 
ATOM     25  C   UNL     1      -2.828  11.819  18.557  0.00  0.00    +0.000 A 
ATOM     26  C   UNL     1      -1.677  11.144  19.022  0.00  0.00    +0.000 A 
ATOM     27  C   UNL     1      -1.161  11.604  20.353  0.00  0.00    +0.000 C 
ATOM     28  C   UNL     1      -1.110  10.136  18.221  0.00  0.00    +0.000 A 
ATOM     29  C   UNL     1      -1.693   9.885  16.954  0.00  0.00    +0.000 A 
ENDBRANCH  18  28
ENDBRANCH  16  19
ENDBRANCH   1  16
TORSDOF 5
ENDMDL
MODEL 5
REMARK VINA RESULT:      -8.3      3.842      5.727
REMARK  Name = 
REMARK  8 active torsions:
REMARK  status: ('A' for Active; 'I' for Inactive)
REMARK    1  A    between atoms: C_1  and  C_2
REMARK    2  A    between atoms: C_5  and  C_6
REMARK    3  A    between atoms: C_7  and  N_8
REMARK    4  A    between atoms: C_9  and  C_11
REMARK    5  A    between atoms: C_11  and  C_12
REMARK    6  A    between atoms: C_11  and  S_13
REMARK    7  A    between atoms: S_13  and  C_14
REMARK    8  A    between atoms: C_16  and  C_17
REMARK                            x       y       z     vdW  Elec       q    Type
REMARK                         _______ _______ _______ _____ _____    ______ ____
ROOT
ATOM      1  S   UNL     1       1.922   8.232  19.764  0.00  0.00    +0.000 S 
ENDROOT
BRANCH   1   2
ATOM      2  C   UNL     1       2.670   6.816  18.941  0.00  0.00    +0.000 A 
ATOM      3  N   UNL     1       3.586   7.116  18.004  0.00  0.00    +0.000 NA
ATOM      4  C   UNL     1       4.057   6.111  17.240  0.00  0.00    +0.000 A 
ATOM      5  N   UNL     1       3.638   4.833  17.369  0.00  0.00    +0.000 NA
ATOM      6  C   UNL     1       2.748   4.546  18.324  0.00  0.00    +0.000 A 
ATOM      7  C   UNL     1       2.306   3.233  18.434  0.00  0.00    +0.000 A 
ATOM      8  C   UNL     1       1.397   2.837  19.417  0.00  0.00    +0.000 A 
ATOM      9  C   UNL     1       0.930   3.766  20.335  0.00  0.00    +0.000 A 
ATOM     10  C   UNL     1       1.342   5.094  20.230  0.00  0.00    +0.000 A 
ATOM     11  C   UNL     1       2.236   5.506  19.203  0.00  0.00    +0.000 A 
BRANCH   4  12
ATOM     12  C   UNL     1       5.108   6.425  16.167  0.00  0.00    +0.000 C 
ATOM     13  F   UNL     1       5.589   5.320  15.523  0.00  0.00    +0.000 F 
ATOM     14  F   UNL     1       4.627   7.235  15.175  0.00  0.00    +0.000 F 
ATOM     15  F   UNL     1       6.207   7.066  16.665  0.00  0.00    +0.000 F 
ENDBRANCH   4  12
ENDBRANCH   1   2
BRANCH   1  16
ATOM     16  C   UNL     1       1.209   9.159  18.343  0.00  0.00    +0.000 C 
ATOM     17  C   UNL     1       2.156  10.291  17.952  0.00  0.00    +0.000 C 
BRANCH  16  19
ATOM     18  N   UNL     1      -0.942  10.032  17.493  0.00  0.00    +0.000 N 
ATOM     19  C   UNL     1      -0.177   9.771  18.610  0.00  0.00    +0.000 C 
ATOM     20  O   UNL     1      -0.550   9.851  19.777  0.00  0.00    +0.000 OA
ATOM     21  H   UNL     1      -0.526   9.706  16.629  0.00  0.00    +0.000 HD
BRANCH  18  28
ATOM     22  C   UNL     1      -4.442  12.547  19.840  0.00  0.00    +0.000 C 
ATOM     23  C   UNL     1      -3.976  11.861  18.590  0.00  0.00    +0.000 A 
ATOM     24  C   UNL     1      -4.778  11.852  17.456  0.00  0.00    +0.000 A 
ATOM     25  C   UNL     1      -4.336  11.215  16.301  0.00  0.00    +0.000 A 
ATOM     26  C   UNL     1      -3.083  10.567  16.235  0.00  0.00    +0.000 A 
ATOM     27  C   UNL     1      -2.786   9.883  14.933  0.00  0.00    +0.000 C 
ATOM     28  C   UNL     1      -2.241  10.595  17.362  0.00  0.00    +0.000 A 
ATOM     29  C   UNL     1      -2.720  11.229  18.535  0.00  0.00    +0.000 A 
ENDBRANCH  18  28
ENDBRANCH  16  19
ENDBRANCH   1  16
TORSDOF 5
ENDMDL
MODEL 6
REMARK VINA RESULT:      -8.2      2.650      4.702
REMARK  Name = 
REMARK  8 active torsions:
REMARK  status: ('A' for Active; 'I' for Inactive)
REMARK    1  A    between atoms: C_1  and  C_2
REMARK    2  A    between atoms: C_5  and  C_6
REMARK    3  A    between atoms: C_7  and  N_8
REMARK    4  A    between atoms: C_9  and  C_11
REMARK    5  A    between atoms: C_11  and  C_12
REMARK    6  A    between atoms: C_11  and  S_13
REMARK    7  A    between atoms: S_13  and  C_14
REMARK    8  A    between atoms: C_16  and  C_17
REMARK                            x       y       z     vdW  Elec       q    Type
REMARK                         _______ _______ _______ _____ _____    ______ ____
ROOT
ATOM      1  S   UNL     1       2.503   6.608  17.679  0.00  0.00    +0.000 S 
ENDROOT
BRANCH   1   2
ATOM      2  C   UNL     1       3.763   5.586  18.459  0.00  0.00    +0.000 A 
ATOM      3  N   UNL     1       5.031   5.899  18.144  0.00  0.00    +0.000 NA
ATOM      4  C   UNL     1       6.007   5.070  18.562  0.00  0.00    +0.000 A 
ATOM      5  N   UNL     1       5.760   3.943  19.265  0.00  0.00    +0.000 NA
ATOM      6  C   UNL     1       4.497   3.659  19.596  0.00  0.00    +0.000 A 
ATOM      7  C   UNL     1       4.251   2.486  20.297  0.00  0.00    +0.000 A 
ATOM      8  C   UNL     1       2.966   2.122  20.707  0.00  0.00    +0.000 A 
ATOM      9  C   UNL     1       1.895   2.960  20.431  0.00  0.00    +0.000 A 
ATOM     10  C   UNL     1       2.114   4.131  19.707  0.00  0.00    +0.000 A 
ATOM     11  C   UNL     1       3.417   4.481  19.255  0.00  0.00    +0.000 A 
BRANCH   4  12
ATOM     12  C   UNL     1       7.464   5.407  18.220  0.00  0.00    +0.000 C 
ATOM     13  F   UNL     1       8.154   5.986  19.248  0.00  0.00    +0.000 F 
ATOM     14  F   UNL     1       8.197   4.306  17.875  0.00  0.00    +0.000 F 
ATOM     15  F   UNL     1       7.582   6.272  17.169  0.00  0.00    +0.000 F 
ENDBRANCH   4  12
ENDBRANCH   1   2
BRANCH   1  16
ATOM     16  C   UNL     1       2.459   8.069  18.798  0.00  0.00    +0.000 C 
ATOM     17  C   UNL     1       1.962   7.636  20.175  0.00  0.00    +0.000 C 
BRANCH  16  19
ATOM     18  N   UNL     1       0.334   9.325  18.928  0.00  0.00    +0.000 N 
ATOM     19  C   UNL     1       1.562   9.220  18.311  0.00  0.00    +0.000 C 
ATOM     20  O   UNL     1       2.049  10.030  17.526  0.00  0.00    +0.000 OA
ATOM     21  H   UNL     1       0.206   8.674  19.694  0.00  0.00    +0.000 HD
BRANCH  18  28
ATOM     22  C   UNL     1      -3.219  10.681  15.827  0.00  0.00    +0.000 C 
ATOM     23  C   UNL     1      -2.508  10.888  17.131  0.00  0.00    +0.000 A 
ATOM     24  C   UNL     1      -2.937  11.873  18.012  0.00  0.00    +0.000 A 
ATOM     25  C   UNL     1      -2.273  12.056  19.221  0.00  0.00    +0.000 A 
ATOM     26  C   UNL     1      -1.163  11.266  19.594  0.00  0.00    +0.000 A 
ATOM     27  C   UNL     1      -0.530  11.633  20.904  0.00  0.00    +0.000 C 
ATOM     28  C   UNL     1      -0.735  10.241  18.730  0.00  0.00    +0.000 A 
ATOM     29  C   UNL     1      -1.411  10.087  17.494  0.00  0.00    +0.000 A 
ENDBRANCH  18  28
ENDBRANCH  16  19
ENDBRANCH   1  16
TORSDOF 5
ENDMDL
MODEL 7
REMARK VINA RESULT:      -8.2      3.206      4.578
REMARK  Name = 
REMARK  8 active torsions:
REMARK  status: ('A' for Active; 'I' for Inactive)
REMARK    1  A    between atoms: C_1  and  C_2
REMARK    2  A    between atoms: C_5  and  C_6
REMARK    3  A    between atoms: C_7  and  N_8
REMARK    4  A    between atoms: C_9  and  C_11
REMARK    5  A    between atoms: C_11  and  C_12
REMARK    6  A    between atoms: C_11  and  S_13
REMARK    7  A    between atoms: S_13  and  C_14
REMARK    8  A    between atoms: C_16  and  C_17
REMARK                            x       y       z     vdW  Elec       q    Type
REMARK                         _______ _______ _______ _____ _____    ______ ____
ROOT
ATOM      1  S   UNL     1       2.492   6.538  17.548  0.00  0.00    +0.000 S 
ENDROOT
BRANCH   1   2
ATOM      2  C   UNL     1       3.853   5.512  18.127  0.00  0.00    +0.000 A 
ATOM      3  N   UNL     1       3.492   4.358  18.711  0.00  0.00    +0.000 NA
ATOM      4  C   UNL     1       4.453   3.628  19.312  0.00  0.00    +0.000 A 
ATOM      5  N   UNL     1       5.746   4.017  19.361  0.00  0.00    +0.000 NA
ATOM      6  C   UNL     1       6.095   5.153  18.750  0.00  0.00    +0.000 A 
ATOM      7  C   UNL     1       7.422   5.556  18.826  0.00  0.00    +0.000 A 
ATOM      8  C   UNL     1       7.882   6.715  18.198  0.00  0.00    +0.000 A 
ATOM      9  C   UNL     1       7.003   7.487  17.452  0.00  0.00    +0.000 A 
ATOM     10  C   UNL     1       5.661   7.115  17.382  0.00  0.00    +0.000 A 
ATOM     11  C   UNL     1       5.185   5.956  18.056  0.00  0.00    +0.000 A 
BRANCH   4  12
ATOM     12  C   UNL     1       4.068   2.303  19.982  0.00  0.00    +0.000 C 
ATOM     13  F   UNL     1       3.029   2.409  20.864  0.00  0.00    +0.000 F 
ATOM     14  F   UNL     1       3.676   1.349  19.084  0.00  0.00    +0.000 F 
ATOM     15  F   UNL     1       5.093   1.742  20.690  0.00  0.00    +0.000 F 
ENDBRANCH   4  12
ENDBRANCH   1   2
BRANCH   1  16
ATOM     16  C   UNL     1       2.532   7.929  18.752  0.00  0.00    +0.000 C 
ATOM     17  C   UNL     1       2.045   7.434  20.112  0.00  0.00    +0.000 C 
BRANCH  16  19
ATOM     18  N   UNL     1       0.450   9.243  18.984  0.00  0.00    +0.000 N 
ATOM     19  C   UNL     1       1.673   9.143  18.355  0.00  0.00    +0.000 C 
ATOM     20  O   UNL     1       2.185   9.991  17.629  0.00  0.00    +0.000 OA
ATOM     21  H   UNL     1       0.302   8.543  19.701  0.00  0.00    +0.000 HD
BRANCH  18  28
ATOM     22  C   UNL     1      -3.147  10.857  16.062  0.00  0.00    +0.000 C 
ATOM     23  C   UNL     1      -2.386  10.984  17.349  0.00  0.00    +0.000 A 
ATOM     24  C   UNL     1      -2.746  11.949  18.281  0.00  0.00    +0.000 A 
ATOM     25  C   UNL     1      -2.035  12.058  19.472  0.00  0.00    +0.000 A 
ATOM     26  C   UNL     1      -0.946  11.212  19.776  0.00  0.00    +0.000 A 
ATOM     27  C   UNL     1      -0.256  11.501  21.077  0.00  0.00    +0.000 C 
ATOM     28  C   UNL     1      -0.588  10.206  18.859  0.00  0.00    +0.000 A 
ATOM     29  C   UNL     1      -1.310  10.127  17.642  0.00  0.00    +0.000 A 
ENDBRANCH  18  28
ENDBRANCH  16  19
ENDBRANCH   1  16
TORSDOF 5
ENDMDL
MODEL 8
REMARK VINA RESULT:      -8.2      2.795      4.253
REMARK  Name = 
REMARK  8 active torsions:
REMARK  status: ('A' for Active; 'I' for Inactive)
REMARK    1  A    between atoms: C_1  and  C_2
REMARK    2  A    between atoms: C_5  and  C_6
REMARK    3  A    between atoms: C_7  and  N_8
REMARK    4  A    between atoms: C_9  and  C_11
REMARK    5  A    between atoms: C_11  and  C_12
REMARK    6  A    between atoms: C_11  and  S_13
REMARK    7  A    between atoms: S_13  and  C_14
REMARK    8  A    between atoms: C_16  and  C_17
REMARK                            x       y       z     vdW  Elec       q    Type
REMARK                         _______ _______ _______ _____ _____    ______ ____
ROOT
ATOM      1  S   UNL     1       3.052   7.299  17.175  0.00  0.00    +0.000 S 
ENDROOT
BRANCH   1   2
ATOM      2  C   UNL     1       3.983   5.974  17.960  0.00  0.00    +0.000 A 
ATOM      3  N   UNL     1       5.273   6.251  18.210  0.00  0.00    +0.000 NA
ATOM      4  C   UNL     1       6.061   5.246  18.642  0.00  0.00    +0.000 A 
ATOM      5  N   UNL     1       5.609   3.985  18.817  0.00  0.00    +0.000 NA
ATOM      6  C   UNL     1       4.317   3.731  18.592  0.00  0.00    +0.000 A 
ATOM      7  C   UNL     1       3.867   2.426  18.752  0.00  0.00    +0.000 A 
ATOM      8  C   UNL     1       2.529   2.074  18.564  0.00  0.00    +0.000 A 
ATOM      9  C   UNL     1       1.603   3.052  18.229  0.00  0.00    +0.000 A 
ATOM     10  C   UNL     1       2.035   4.364  18.040  0.00  0.00    +0.000 A 
ATOM     11  C   UNL     1       3.406   4.714  18.192  0.00  0.00    +0.000 A 
BRANCH   4  12
ATOM     12  C   UNL     1       7.537   5.536  18.940  0.00  0.00    +0.000 C 
ATOM     13  F   UNL     1       7.964   6.753  18.489  0.00  0.00    +0.000 F 
ATOM     14  F   UNL     1       7.819   5.533  20.278  0.00  0.00    +0.000 F 
ATOM     15  F   UNL     1       8.387   4.622  18.383  0.00  0.00    +0.000 F 
ENDBRANCH   4  12
ENDBRANCH   1   2
BRANCH   1  16
ATOM     16  C   UNL     1       2.657   8.382  18.609  0.00  0.00    +0.000 C 
ATOM     17  C   UNL     1       2.079   7.533  19.739  0.00  0.00    +0.000 C 
BRANCH  16  19
ATOM     18  N   UNL     1       0.502   9.506  19.062  0.00  0.00    +0.000 N 
ATOM     19  C   UNL     1       1.653   9.508  18.303  0.00  0.00    +0.000 C 
ATOM     20  O   UNL     1       2.004  10.388  17.523  0.00  0.00    +0.000 OA
ATOM     21  H   UNL     1       0.496   8.806  19.793  0.00  0.00    +0.000 HD
BRANCH  18  28
ATOM     22  C   UNL     1      -3.570  10.689  16.590  0.00  0.00    +0.000 C 
ATOM     23  C   UNL     1      -2.666  10.931  17.763  0.00  0.00    +0.000 A 
ATOM     24  C   UNL     1      -2.990  11.896  18.708  0.00  0.00    +0.000 A 
ATOM     25  C   UNL     1      -2.147  12.112  19.793  0.00  0.00    +0.000 A 
ATOM     26  C   UNL     1      -0.955  11.376  19.974  0.00  0.00    +0.000 A 
ATOM     27  C   UNL     1      -0.134  11.775  21.166  0.00  0.00    +0.000 C 
ATOM     28  C   UNL     1      -0.627  10.371  19.047  0.00  0.00    +0.000 A 
ATOM     29  C   UNL     1      -1.488  10.183  17.937  0.00  0.00    +0.000 A 
ENDBRANCH  18  28
ENDBRANCH  16  19
ENDBRANCH   1  16
TORSDOF 5
ENDMDL
MODEL 9
REMARK VINA RESULT:      -8.2      2.807      4.231
REMARK  Name = 
REMARK  8 active torsions:
REMARK  status: ('A' for Active; 'I' for Inactive)
REMARK    1  A    between atoms: C_1  and  C_2
REMARK    2  A    between atoms: C_5  and  C_6
REMARK    3  A    between atoms: C_7  and  N_8
REMARK    4  A    between atoms: C_9  and  C_11
REMARK    5  A    between atoms: C_11  and  C_12
REMARK    6  A    between atoms: C_11  and  S_13
REMARK    7  A    between atoms: S_13  and  C_14
REMARK    8  A    between atoms: C_16  and  C_17
REMARK                            x       y       z     vdW  Elec       q    Type
REMARK                         _______ _______ _______ _____ _____    ______ ____
ROOT
ATOM      1  S   UNL     1       2.429   7.139  18.339  0.00  0.00    +0.000 S 
ENDROOT
BRANCH   1   2
ATOM      2  C   UNL     1       3.571   5.768  18.578  0.00  0.00    +0.000 A 
ATOM      3  N   UNL     1       4.865   6.113  18.687  0.00  0.00    +0.000 NA
ATOM      4  C   UNL     1       5.781   5.124  18.700  0.00  0.00    +0.000 A 
ATOM      5  N   UNL     1       5.451   3.818  18.595  0.00  0.00    +0.000 NA
ATOM      6  C   UNL     1       4.158   3.490  18.517  0.00  0.00    +0.000 A 
ATOM      7  C   UNL     1       3.831   2.146  18.386  0.00  0.00    +0.000 A 
ATOM      8  C   UNL     1       2.506   1.708  18.323  0.00  0.00    +0.000 A 
ATOM      9  C   UNL     1       1.474   2.630  18.416  0.00  0.00    +0.000 A 
ATOM     10  C   UNL     1       1.778   3.986  18.524  0.00  0.00    +0.000 A 
ATOM     11  C   UNL     1       3.128   4.435  18.547  0.00  0.00    +0.000 A 
BRANCH   4  12
ATOM     12  C   UNL     1       7.265   5.490  18.828  0.00  0.00    +0.000 C 
ATOM     13  F   UNL     1       8.111   4.581  18.258  0.00  0.00    +0.000 F 
ATOM     14  F   UNL     1       7.570   6.684  18.234  0.00  0.00    +0.000 F 
ATOM     15  F   UNL     1       7.678   5.609  20.125  0.00  0.00    +0.000 F 
ENDBRANCH   4  12
ENDBRANCH   1   2
BRANCH   1  16
ATOM     16  C   UNL     1       2.087   7.650  20.074  0.00  0.00    +0.000 C 
ATOM     17  C   UNL     1       1.278   6.558  20.771  0.00  0.00    +0.000 C 
BRANCH  16  19
ATOM     18  N   UNL     1       1.175   9.708  19.052  0.00  0.00    +0.000 N 
ATOM     19  C   UNL     1       1.312   8.973  20.210  0.00  0.00    +0.000 C 
ATOM     20  O   UNL     1       0.764   9.204  21.284  0.00  0.00    +0.000 OA
ATOM     21  H   UNL     1       1.531   9.241  18.227  0.00  0.00    +0.000 HD
BRANCH  18  28
ATOM     22  C   UNL     1       1.867  14.566  18.980  0.00  0.00    +0.000 C 
ATOM     23  C   UNL     1       0.942  13.400  18.792  0.00  0.00    +0.000 A 
ATOM     24  C   UNL     1      -0.371  13.607  18.389  0.00  0.00    +0.000 A 
ATOM     25  C   UNL     1      -1.220  12.519  18.215  0.00  0.00    +0.000 A 
ATOM     26  C   UNL     1      -0.793  11.191  18.435  0.00  0.00    +0.000 A 
ATOM     27  C   UNL     1      -1.851  10.142  18.256  0.00  0.00    +0.000 C 
ATOM     28  C   UNL     1       0.543  10.959  18.810  0.00  0.00    +0.000 A 
ATOM     29  C   UNL     1       1.385  12.082  19.004  0.00  0.00    +0.000 A 
ENDBRANCH  18  28
ENDBRANCH  16  19
ENDBRANCH   1  16
TORSDOF 5
ENDMDL
