MODEL 1
REMARK VINA RESULT:      -8.8      0.000      0.000
REMARK  Name = 
REMARK  6 active torsions:
REMARK  status: ('A' for Active; 'I' for Inactive)
REMARK    1  A    between atoms: C_1  and  N_2
REMARK    2  A    between atoms: C_6  and  C_7
REMARK    3  A    between atoms: C_8  and  C_9
REMARK    4  A    between atoms: C_9  and  C_10
REMARK    5  A    between atoms: C_14  and  N_15
REMARK    6  A    between atoms: C_22  and  C_23
REMARK                            x       y       z     vdW  Elec       q    Type
REMARK                         _______ _______ _______ _____ _____    ______ ____
ROOT
ATOM      1  C   UNL     1       1.310   9.273  19.292  0.00  0.00    +0.000 A 
ATOM      2  C   UNL     1       0.933   8.662  20.495  0.00  0.00    +0.000 A 
ATOM      3  C   UNL     1       1.503   7.453  20.877  0.00  0.00    +0.000 A 
ATOM      4  C   UNL     1       2.364   6.790  20.010  0.00  0.00    +0.000 A 
ATOM      5  C   UNL     1       2.551   7.282  18.708  0.00  0.00    +0.000 A 
ATOM      6  C   UNL     1       2.167   8.595  18.418  0.00  0.00    +0.000 A 
ENDROOT
BRANCH   5   7
ATOM      7  N   UNL     1       2.652   6.346  17.594  0.00  0.00    +0.000 N 
ATOM      8  C   UNL     1       1.739   5.195  17.815  0.00  0.00    +0.000 C 
ATOM      9  C   UNL     1       2.623   4.233  18.545  0.00  0.00    +0.000 A 
ATOM     10  C   UNL     1       3.939   4.496  18.150  0.00  0.00    +0.000 A 
ATOM     11  C   UNL     1       5.036   3.899  18.741  0.00  0.00    +0.000 A 
ATOM     12  C   UNL     1       4.790   3.017  19.791  0.00  0.00    +0.000 A 
ATOM     13  C   UNL     1       3.472   2.761  20.220  0.00  0.00    +0.000 A 
ATOM     14  C   UNL     1       2.358   3.365  19.601  0.00  0.00    +0.000 A 
ATOM     15  C   UNL     1       3.936   5.772  17.399  0.00  0.00    +0.000 C 
ATOM     16  O   UNL     1       4.928   6.283  16.913  0.00  0.00    +0.000 OA
BRANCH  14  17
ATOM     17  C   UNL     1       0.983   3.138  20.178  0.00  0.00    +0.000 C 
ATOM     18  F   UNL     1       0.301   4.280  20.467  0.00  0.00    +0.000 F 
ATOM     19  F   UNL     1       0.181   2.437  19.331  0.00  0.00    +0.000 F 
ATOM     20  F   UNL     1       1.017   2.423  21.337  0.00  0.00    +0.000 F 
ENDBRANCH  14  17
ENDBRANCH   5   7
BRANCH   1  21
ATOM     21  C   UNL     1       0.763  10.630  18.927  0.00  0.00    +0.000 C 
BRANCH  21  23
ATOM     22  C   UNL     1      -1.487  11.560  18.169  0.00  0.00    +0.000 C 
ATOM     23  C   UNL     1      -0.525  10.619  18.160  0.00  0.00    +0.000 C 
BRANCH  22  29
ATOM     24  C   UNL     1      -4.282  12.106  19.193  0.00  0.00    +0.000 C 
ATOM     25  N   UNL     1      -3.910  11.637  17.885  0.00  0.00    +0.000 N 
ATOM     26  C   UNL     1      -4.777  11.347  16.879  0.00  0.00    +0.000 A 
ATOM     27  N   UNL     1      -4.120  10.937  15.828  0.00  0.00    +0.000 NA
ATOM     28  N   UNL     1      -2.785  10.952  16.143  0.00  0.00    +0.000 NA
ATOM     29  C   UNL     1      -2.654  11.375  17.388  0.00  0.00    +0.000 A 
ENDBRANCH  22  29
ENDBRANCH  21  23
ENDBRANCH   1  21
TORSDOF 5
ENDMDL
MODEL 2
REMARK VINA RESULT:      -8.8      8.158     10.962
REMARK  Name = 
REMARK  6 active torsions:
REMARK  status: ('A' for Active; 'I' for Inactive)
REMARK    1  A    between atoms: C_1  and  N_2
REMARK    2  A    between atoms: C_6  and  C_7
REMARK    3  A    between atoms: C_8  and  C_9
REMARK    4  A    between atoms: C_9  and  C_10
REMARK    5  A    between atoms: C_14  and  N_15
REMARK    6  A    between atoms: C_22  and  C_23
REMARK                            x       y       z     vdW  Elec       q    Type
REMARK                         _______ _______ _______ _____ _____    ______ ____
ROOT
ATOM      1  C   UNL     1       9.012  10.522  18.415  0.00  0.00    +0.000 A 
ATOM      2  C   UNL     1       8.041  11.295  17.763  0.00  0.00    +0.000 A 
ATOM      3  C   UNL     1       8.336  12.589  17.349  0.00  0.00    +0.000 A 
ATOM      4  C   UNL     1       9.559  13.161  17.684  0.00  0.00    +0.000 A 
ATOM      5  C   UNL     1      10.431  12.476  18.544  0.00  0.00    +0.000 A 
ATOM      6  C   UNL     1      10.235  11.108  18.761  0.00  0.00    +0.000 A 
ENDROOT
BRANCH   5   7
ATOM      7  N   UNL     1      11.176  13.219  19.553  0.00  0.00    +0.000 N 
ATOM      8  C   UNL     1      10.830  12.719  20.909  0.00  0.00    +0.000 C 
ATOM      9  C   UNL     1       9.680  13.602  21.282  0.00  0.00    +0.000 A 
ATOM     10  C   UNL     1       9.843  14.810  20.594  0.00  0.00    +0.000 A 
ATOM     11  C   UNL     1       8.884  15.803  20.581  0.00  0.00    +0.000 A 
ATOM     12  C   UNL     1       7.701  15.554  21.272  0.00  0.00    +0.000 A 
ATOM     13  C   UNL     1       7.508  14.332  21.947  0.00  0.00    +0.000 A 
ATOM     14  C   UNL     1       8.499  13.328  21.967  0.00  0.00    +0.000 A 
ATOM     15  C   UNL     1      10.917  14.615  19.593  0.00  0.00    +0.000 C 
ATOM     16  O   UNL     1      11.307  15.480  18.830  0.00  0.00    +0.000 OA
BRANCH  14  17
ATOM     17  C   UNL     1       8.189  12.000  22.610  0.00  0.00    +0.000 C 
ATOM     18  F   UNL     1       8.749  11.829  23.839  0.00  0.00    +0.000 F 
ATOM     19  F   UNL     1       6.853  11.814  22.786  0.00  0.00    +0.000 F 
ATOM     20  F   UNL     1       8.616  10.946  21.859  0.00  0.00    +0.000 F 
ENDBRANCH  14  17
ENDBRANCH   5   7
BRANCH   1  21
ATOM     21  C   UNL     1       8.722   9.088  18.776  0.00  0.00    +0.000 C 
BRANCH  21  23
ATOM     22  C   UNL     1       7.628   7.003  17.797  0.00  0.00    +0.000 C 
ATOM     23  C   UNL     1       8.034   8.283  17.714  0.00  0.00    +0.000 C 
BRANCH  22  29
ATOM     24  C   UNL     1       4.628   6.906  17.411  0.00  0.00    +0.000 C 
ATOM     25  N   UNL     1       5.636   6.371  16.535  0.00  0.00    +0.000 N 
ATOM     26  C   UNL     1       5.395   5.711  15.372  0.00  0.00    +0.000 A 
ATOM     27  N   UNL     1       6.523   5.348  14.823  0.00  0.00    +0.000 NA
ATOM     28  N   UNL     1       7.537   5.774  15.642  0.00  0.00    +0.000 NA
ATOM     29  C   UNL     1       7.004   6.394  16.680  0.00  0.00    +0.000 A 
ENDBRANCH  22  29
ENDBRANCH  21  23
ENDBRANCH   1  21
TORSDOF 5
ENDMDL
MODEL 3
REMARK VINA RESULT:      -8.8      0.568      1.327
REMARK  Name = 
REMARK  6 active torsions:
REMARK  status: ('A' for Active; 'I' for Inactive)
REMARK    1  A    between atoms: C_1  and  N_2
REMARK    2  A    between atoms: C_6  and  C_7
REMARK    3  A    between atoms: C_8  and  C_9
REMARK    4  A    between atoms: C_9  and  C_10
REMARK    5  A    between atoms: C_14  and  N_15
REMARK    6  A    between atoms: C_22  and  C_23
REMARK                            x       y       z     vdW  Elec       q    Type
REMARK                         _______ _______ _______ _____ _____    ______ ____
ROOT
ATOM      1  C   UNL     1       1.324   9.410  19.314  0.00  0.00    +0.000 A 
ATOM      2  C   UNL     1       0.873   8.805  20.494  0.00  0.00    +0.000 A 
ATOM      3  C   UNL     1       1.367   7.563  20.878  0.00  0.00    +0.000 A 
ATOM      4  C   UNL     1       2.223   6.867  20.032  0.00  0.00    +0.000 A 
ATOM      5  C   UNL     1       2.480   7.364  18.745  0.00  0.00    +0.000 A 
ATOM      6  C   UNL     1       2.175   8.699  18.460  0.00  0.00    +0.000 A 
ENDROOT
BRANCH   5   7
ATOM      7  N   UNL     1       2.572   6.438  17.622  0.00  0.00    +0.000 N 
ATOM      8  C   UNL     1       1.680   5.273  17.852  0.00  0.00    +0.000 C 
ATOM      9  C   UNL     1       2.592   4.318  18.558  0.00  0.00    +0.000 A 
ATOM     10  C   UNL     1       3.896   4.603  18.139  0.00  0.00    +0.000 A 
ATOM     11  C   UNL     1       5.012   4.017  18.702  0.00  0.00    +0.000 A 
ATOM     12  C   UNL     1       4.801   3.124  19.751  0.00  0.00    +0.000 A 
ATOM     13  C   UNL     1       3.496   2.847  20.205  0.00  0.00    +0.000 A 
ATOM     14  C   UNL     1       2.360   3.439  19.613  0.00  0.00    +0.000 A 
ATOM     15  C   UNL     1       3.859   5.884  17.396  0.00  0.00    +0.000 C 
ATOM     16  O   UNL     1       4.834   6.412  16.894  0.00  0.00    +0.000 OA
BRANCH  14  17
ATOM     17  C   UNL     1       1.000   3.188  20.215  0.00  0.00    +0.000 C 
ATOM     18  F   UNL     1       1.023   2.464  21.367  0.00  0.00    +0.000 F 
ATOM     19  F   UNL     1       0.354   4.345  20.521  0.00  0.00    +0.000 F 
ATOM     20  F   UNL     1       0.174   2.512  19.369  0.00  0.00    +0.000 F 
ENDBRANCH  14  17
ENDBRANCH   5   7
BRANCH   1  21
ATOM     21  C   UNL     1       0.861  10.798  18.949  0.00  0.00    +0.000 C 
BRANCH  21  23
ATOM     22  C   UNL     1      -1.314  11.178  17.675  0.00  0.00    +0.000 C 
ATOM     23  C   UNL     1      -0.622  10.965  18.809  0.00  0.00    +0.000 C 
BRANCH  22  29
ATOM     24  C   UNL     1      -3.134  10.752  15.294  0.00  0.00    +0.000 C 
ATOM     25  N   UNL     1      -3.520  11.122  16.630  0.00  0.00    +0.000 N 
ATOM     26  C   UNL     1      -4.794  11.357  17.042  0.00  0.00    +0.000 A 
ATOM     27  N   UNL     1      -4.801  11.682  18.307  0.00  0.00    +0.000 NA
ATOM     28  N   UNL     1      -3.500  11.666  18.745  0.00  0.00    +0.000 NA
ATOM     29  C   UNL     1      -2.722  11.328  17.732  0.00  0.00    +0.000 A 
ENDBRANCH  22  29
ENDBRANCH  21  23
ENDBRANCH   1  21
TORSDOF 5
ENDMDL
MODEL 4
REMARK VINA RESULT:      -8.7      3.740      5.140
REMARK  Name = 
REMARK  6 active torsions:
REMARK  status: ('A' for Active; 'I' for Inactive)
REMARK    1  A    between atoms: C_1  and  N_2
REMARK    2  A    between atoms: C_6  and  C_7
REMARK    3  A    between atoms: C_8  and  C_9
REMARK    4  A    between atoms: C_9  and  C_10
REMARK    5  A    between atoms: C_14  and  N_15
REMARK    6  A    between atoms: C_22  and  C_23
REMARK                            x       y       z     vdW  Elec       q    Type
REMARK                         _______ _______ _______ _____ _____    ______ ____
ROOT
ATOM      1  C   UNL     1       2.299   6.073  19.963  0.00  0.00    +0.000 A 
ATOM      2  C   UNL     1       1.243   5.411  20.603  0.00  0.00    +0.000 A 
ATOM      3  C   UNL     1       1.369   4.074  20.964  0.00  0.00    +0.000 A 
ATOM      4  C   UNL     1       2.501   3.360  20.589  0.00  0.00    +0.000 A 
ATOM      5  C   UNL     1       3.447   3.956  19.740  0.00  0.00    +0.000 A 
ATOM      6  C   UNL     1       3.430   5.345  19.576  0.00  0.00    +0.000 A 
ENDROOT
BRANCH   5   7
ATOM      7  N   UNL     1       4.075   3.159  18.693  0.00  0.00    +0.000 N 
ATOM      8  C   UNL     1       5.549   3.333  18.739  0.00  0.00    +0.000 C 
ATOM      9  C   UNL     1       5.756   4.491  17.814  0.00  0.00    +0.000 A 
ATOM     10  C   UNL     1       4.707   4.473  16.887  0.00  0.00    +0.000 A 
ATOM     11  C   UNL     1       4.493   5.488  15.975  0.00  0.00    +0.000 A 
ATOM     12  C   UNL     1       5.360   6.577  16.020  0.00  0.00    +0.000 A 
ATOM     13  C   UNL     1       6.405   6.624  16.965  0.00  0.00    +0.000 A 
ATOM     14  C   UNL     1       6.625   5.576  17.883  0.00  0.00    +0.000 A 
ATOM     15  C   UNL     1       3.701   3.498  17.366  0.00  0.00    +0.000 C 
ATOM     16  O   UNL     1       2.663   3.243  16.782  0.00  0.00    +0.000 OA
BRANCH  14  17
ATOM     17  C   UNL     1       7.688   5.736  18.942  0.00  0.00    +0.000 C 
ATOM     18  F   UNL     1       7.217   5.699  20.218  0.00  0.00    +0.000 F 
ATOM     19  F   UNL     1       8.633   4.760  18.870  0.00  0.00    +0.000 F 
ATOM     20  F   UNL     1       8.360   6.916  18.829  0.00  0.00    +0.000 F 
ENDBRANCH  14  17
ENDBRANCH   5   7
BRANCH   1  21
ATOM     21  C   UNL     1       2.198   7.546  19.659  0.00  0.00    +0.000 C 
BRANCH  21  23
ATOM     22  C   UNL     1       0.792   9.520  20.452  0.00  0.00    +0.000 C 
ATOM     23  C   UNL     1       1.439   8.360  20.664  0.00  0.00    +0.000 C 
BRANCH  22  29
ATOM     24  C   UNL     1      -1.329  11.647  20.083  0.00  0.00    +0.000 C 
ATOM     25  N   UNL     1      -0.828  11.124  21.326  0.00  0.00    +0.000 N 
ATOM     26  C   UNL     1      -1.228  11.520  22.563  0.00  0.00    +0.000 A 
ATOM     27  N   UNL     1      -0.571  10.859  23.477  0.00  0.00    +0.000 NA
ATOM     28  N   UNL     1       0.288  10.005  22.833  0.00  0.00    +0.000 NA
ATOM     29  C   UNL     1       0.136  10.163  21.530  0.00  0.00    +0.000 A 
ENDBRANCH  22  29
ENDBRANCH  21  23
ENDBRANCH   1  21
TORSDOF 5
ENDMDL
MODEL 5
REMARK VINA RESULT:      -8.7      3.877      5.225
REMARK  Name = 
REMARK  6 active torsions:
REMARK  status: ('A' for Active; 'I' for Inactive)
REMARK    1  A    between atoms: C_1  and  N_2
REMARK    2  A    between atoms: C_6  and  C_7
REMARK    3  A    between atoms: C_8  and  C_9
REMARK    4  A    between atoms: C_9  and  C_10
REMARK    5  A    between atoms: C_14  and  N_15
REMARK    6  A    between atoms: C_22  and  C_23
REMARK                            x       y       z     vdW  Elec       q    Type
REMARK                         _______ _______ _______ _____ _____    ______ ____
ROOT
ATOM      1  C   UNL     1       1.925   7.001  19.991  0.00  0.00    +0.000 A 
ATOM      2  C   UNL     1       2.332   7.966  19.060  0.00  0.00    +0.000 A 
ATOM      3  C   UNL     1       2.991   7.584  17.897  0.00  0.00    +0.000 A 
ATOM      4  C   UNL     1       3.350   6.254  17.710  0.00  0.00    +0.000 A 
ATOM      5  C   UNL     1       3.159   5.332  18.751  0.00  0.00    +0.000 A 
ATOM      6  C   UNL     1       2.302   5.666  19.804  0.00  0.00    +0.000 A 
ENDROOT
BRANCH   5   7
ATOM      7  N   UNL     1       4.170   4.312  19.001  0.00  0.00    +0.000 N 
ATOM      8  C   UNL     1       5.506   4.946  19.140  0.00  0.00    +0.000 C 
ATOM      9  C   UNL     1       6.009   4.925  17.730  0.00  0.00    +0.000 A 
ATOM     10  C   UNL     1       5.398   3.842  17.088  0.00  0.00    +0.000 A 
ATOM     11  C   UNL     1       5.512   3.610  15.731  0.00  0.00    +0.000 A 
ATOM     12  C   UNL     1       6.254   4.526  14.990  0.00  0.00    +0.000 A 
ATOM     13  C   UNL     1       6.853   5.638  15.615  0.00  0.00    +0.000 A 
ATOM     14  C   UNL     1       6.743   5.859  17.004  0.00  0.00    +0.000 A 
ATOM     15  C   UNL     1       4.322   3.343  17.975  0.00  0.00    +0.000 C 
ATOM     16  O   UNL     1       3.599   2.400  17.710  0.00  0.00    +0.000 OA
BRANCH  14  17
ATOM     17  C   UNL     1       7.311   7.125  17.596  0.00  0.00    +0.000 C 
ATOM     18  F   UNL     1       6.379   8.069  17.898  0.00  0.00    +0.000 F 
ATOM     19  F   UNL     1       7.987   6.892  18.753  0.00  0.00    +0.000 F 
ATOM     20  F   UNL     1       8.199   7.735  16.762  0.00  0.00    +0.000 F 
ENDBRANCH  14  17
ENDBRANCH   5   7
BRANCH   1  21
ATOM     21  C   UNL     1       1.126   7.407  21.204  0.00  0.00    +0.000 C 
BRANCH  21  23
ATOM     22  C   UNL     1      -0.128   9.626  21.228  0.00  0.00    +0.000 C 
ATOM     23  C   UNL     1       0.979   8.884  21.412  0.00  0.00    +0.000 C 
BRANCH  22  29
ATOM     24  C   UNL     1       0.496  11.655  19.071  0.00  0.00    +0.000 C 
ATOM     25  N   UNL     1       0.202  11.918  20.454  0.00  0.00    +0.000 N 
ATOM     26  C   UNL     1       0.169  13.149  21.029  0.00  0.00    +0.000 A 
ATOM     27  N   UNL     1      -0.117  13.041  22.299  0.00  0.00    +0.000 NA
ATOM     28  N   UNL     1      -0.274  11.706  22.575  0.00  0.00    +0.000 NA
ATOM     29  C   UNL     1      -0.081  11.023  21.460  0.00  0.00    +0.000 A 
ENDBRANCH  22  29
ENDBRANCH  21  23
ENDBRANCH   1  21
TORSDOF 5
ENDMDL
MODEL 6
REMARK VINA RESULT:      -8.7      5.728      8.600
REMARK  Name = 
REMARK  6 active torsions:
REMARK  status: ('A' for Active; 'I' for Inactive)
REMARK    1  A    between atoms: C_1  and  N_2
REMARK    2  A    between atoms: C_6  and  C_7
REMARK    3  A    between atoms: C_8  and  C_9
REMARK    4  A    between atoms: C_9  and  C_10
REMARK    5  A    between atoms: C_14  and  N_15
REMARK    6  A    between atoms: C_22  and  C_23
REMARK                            x       y       z     vdW  Elec       q    Type
REMARK                         _______ _______ _______ _____ _____    ______ ____
ROOT
ATOM      1  C   UNL     1       7.535   7.678  17.672  0.00  0.00    +0.000 A 
ATOM      2  C   UNL     1       7.854   6.912  18.801  0.00  0.00    +0.000 A 
ATOM      3  C   UNL     1       7.905   5.525  18.715  0.00  0.00    +0.000 A 
ATOM      4  C   UNL     1       7.526   4.890  17.538  0.00  0.00    +0.000 A 
ATOM      5  C   UNL     1       6.975   5.645  16.490  0.00  0.00    +0.000 A 
ATOM      6  C   UNL     1       7.141   7.033  16.494  0.00  0.00    +0.000 A 
ENDROOT
BRANCH   5   7
ATOM      7  N   UNL     1       5.863   5.100  15.721  0.00  0.00    +0.000 N 
ATOM      8  C   UNL     1       4.662   5.958  15.889  0.00  0.00    +0.000 C 
ATOM      9  C   UNL     1       3.993   5.329  17.071  0.00  0.00    +0.000 A 
ATOM     10  C   UNL     1       4.355   3.977  17.082  0.00  0.00    +0.000 A 
ATOM     11  C   UNL     1       4.043   3.123  18.121  0.00  0.00    +0.000 A 
ATOM     12  C   UNL     1       3.359   3.666  19.207  0.00  0.00    +0.000 A 
ATOM     13  C   UNL     1       3.011   5.031  19.225  0.00  0.00    +0.000 A 
ATOM     14  C   UNL     1       3.321   5.893  18.152  0.00  0.00    +0.000 A 
ATOM     15  C   UNL     1       5.446   3.796  16.097  0.00  0.00    +0.000 C 
ATOM     16  O   UNL     1       5.984   2.730  15.859  0.00  0.00    +0.000 OA
BRANCH  14  17
ATOM     17  C   UNL     1       3.023   7.366  18.280  0.00  0.00    +0.000 C 
ATOM     18  F   UNL     1       2.616   7.749  19.521  0.00  0.00    +0.000 F 
ATOM     19  F   UNL     1       4.107   8.136  17.995  0.00  0.00    +0.000 F 
ATOM     20  F   UNL     1       2.041   7.773  17.427  0.00  0.00    +0.000 F 
ENDBRANCH  14  17
ENDBRANCH   5   7
BRANCH   1  21
ATOM     21  C   UNL     1       7.575   9.184  17.742  0.00  0.00    +0.000 C 
BRANCH  21  23
ATOM     22  C   UNL     1       9.162  11.067  18.403  0.00  0.00    +0.000 C 
ATOM     23  C   UNL     1       8.819   9.767  18.342  0.00  0.00    +0.000 C 
BRANCH  22  29
ATOM     24  C   UNL     1      11.140  12.951  17.101  0.00  0.00    +0.000 C 
ATOM     25  N   UNL     1      11.268  12.302  18.378  0.00  0.00    +0.000 N 
ATOM     26  C   UNL     1      12.328  12.425  19.219  0.00  0.00    +0.000 A 
ATOM     27  N   UNL     1      12.137  11.700  20.288  0.00  0.00    +0.000 NA
ATOM     28  N   UNL     1      10.922  11.077  20.153  0.00  0.00    +0.000 NA
ATOM     29  C   UNL     1      10.393  11.439  18.997  0.00  0.00    +0.000 A 
ENDBRANCH  22  29
ENDBRANCH  21  23
ENDBRANCH   1  21
TORSDOF 5
ENDMDL
MODEL 7
REMARK VINA RESULT:      -8.7      3.623      4.745
REMARK  Name = 
REMARK  6 active torsions:
REMARK  status: ('A' for Active; 'I' for Inactive)
REMARK    1  A    between atoms: C_1  and  N_2
REMARK    2  A    between atoms: C_6  and  C_7
REMARK    3  A    between atoms: C_8  and  C_9
REMARK    4  A    between atoms: C_9  and  C_10
REMARK    5  A    between atoms: C_14  and  N_15
REMARK    6  A    between atoms: C_22  and  C_23
REMARK                            x       y       z     vdW  Elec       q    Type
REMARK                         _______ _______ _______ _____ _____    ______ ____
ROOT
ATOM      1  C   UNL     1       2.052   7.465  19.877  0.00  0.00    +0.000 A 
ATOM      2  C   UNL     1       2.436   8.264  18.792  0.00  0.00    +0.000 A 
ATOM      3  C   UNL     1       2.988   7.685  17.655  0.00  0.00    +0.000 A 
ATOM      4  C   UNL     1       3.267   6.323  17.638  0.00  0.00    +0.000 A 
ATOM      5  C   UNL     1       3.109   5.569  18.811  0.00  0.00    +0.000 A 
ATOM      6  C   UNL     1       2.349   6.097  19.860  0.00  0.00    +0.000 A 
ENDROOT
BRANCH   5   7
ATOM      7  N   UNL     1       4.085   4.536  19.139  0.00  0.00    +0.000 N 
ATOM      8  C   UNL     1       5.438   5.137  19.256  0.00  0.00    +0.000 C 
ATOM      9  C   UNL     1       5.956   5.012  17.857  0.00  0.00    +0.000 A 
ATOM     10  C   UNL     1       5.319   3.909  17.276  0.00  0.00    +0.000 A 
ATOM     11  C   UNL     1       5.441   3.588  15.938  0.00  0.00    +0.000 A 
ATOM     12  C   UNL     1       6.220   4.433  15.150  0.00  0.00    +0.000 A 
ATOM     13  C   UNL     1       6.846   5.564  15.713  0.00  0.00    +0.000 A 
ATOM     14  C   UNL     1       6.728   5.875  17.084  0.00  0.00    +0.000 A 
ATOM     15  C   UNL     1       4.218   3.500  18.178  0.00  0.00    +0.000 C 
ATOM     16  O   UNL     1       3.469   2.565  17.963  0.00  0.00    +0.000 OA
BRANCH  14  17
ATOM     17  C   UNL     1       7.328   7.158  17.602  0.00  0.00    +0.000 C 
ATOM     18  F   UNL     1       8.197   7.757  16.743  0.00  0.00    +0.000 F 
ATOM     19  F   UNL     1       6.379   8.094  17.876  0.00  0.00    +0.000 F 
ATOM     20  F   UNL     1       8.020   6.977  18.762  0.00  0.00    +0.000 F 
ENDBRANCH  14  17
ENDBRANCH   5   7
BRANCH   1  21
ATOM     21  C   UNL     1       1.365   8.083  21.069  0.00  0.00    +0.000 C 
BRANCH  21  23
ATOM     22  C   UNL     1       0.394  10.437  20.946  0.00  0.00    +0.000 C 
ATOM     23  C   UNL     1       0.320   9.108  20.748  0.00  0.00    +0.000 C 
BRANCH  22  29
ATOM     24  C   UNL     1      -1.416  11.759  22.979  0.00  0.00    +0.000 C 
ATOM     25  N   UNL     1      -1.505  11.849  21.546  0.00  0.00    +0.000 N 
ATOM     26  C   UNL     1      -2.446  12.549  20.859  0.00  0.00    +0.000 A 
ATOM     27  N   UNL     1      -2.254  12.416  19.575  0.00  0.00    +0.000 NA
ATOM     28  N   UNL     1      -1.160  11.605  19.403  0.00  0.00    +0.000 NA
ATOM     29  C   UNL     1      -0.705  11.260  20.594  0.00  0.00    +0.000 A 
ENDBRANCH  22  29
ENDBRANCH  21  23
ENDBRANCH   1  21
TORSDOF 5
ENDMDL
MODEL 8
REMARK VINA RESULT:      -8.7      2.743      3.540
REMARK  Name = 
REMARK  6 active torsions:
REMARK  status: ('A' for Active; 'I' for Inactive)
REMARK    1  A    between atoms: C_1  and  N_2
REMARK    2  A    between atoms: C_6  and  C_7
REMARK    3  A    between atoms: C_8  and  C_9
REMARK    4  A    between atoms: C_9  and  C_10
REMARK    5  A    between atoms: C_14  and  N_15
REMARK    6  A    between atoms: C_22  and  C_23
REMARK                            x       y       z     vdW  Elec       q    Type
REMARK                         _______ _______ _______ _____ _____    ______ ____
ROOT
ATOM      1  C   UNL     1       1.438   8.989  19.534  0.00  0.00    +0.000 A 
ATOM      2  C   UNL     1       1.983   9.315  18.285  0.00  0.00    +0.000 A 
ATOM      3  C   UNL     1       2.578   8.332  17.502  0.00  0.00    +0.000 A 
ATOM      4  C   UNL     1       2.737   7.046  18.007  0.00  0.00    +0.000 A 
ATOM      5  C   UNL     1       2.411   6.783  19.347  0.00  0.00    +0.000 A 
ATOM      6  C   UNL     1       1.613   7.696  20.043  0.00  0.00    +0.000 A 
ENDROOT
BRANCH   5   7
ATOM      7  N   UNL     1       3.261   5.894  20.131  0.00  0.00    +0.000 N 
ATOM      8  C   UNL     1       4.464   5.520  19.345  0.00  0.00    +0.000 C 
ATOM      9  C   UNL     1       4.008   4.274  18.652  0.00  0.00    +0.000 A 
ATOM     10  C   UNL     1       3.030   3.684  19.460  0.00  0.00    +0.000 A 
ATOM     11  C   UNL     1       2.277   2.598  19.059  0.00  0.00    +0.000 A 
ATOM     12  C   UNL     1       2.508   2.103  17.777  0.00  0.00    +0.000 A 
ATOM     13  C   UNL     1       3.470   2.702  16.939  0.00  0.00    +0.000 A 
ATOM     14  C   UNL     1       4.244   3.803  17.363  0.00  0.00    +0.000 A 
ATOM     15  C   UNL     1       2.665   4.663  20.510  0.00  0.00    +0.000 C 
ATOM     16  O   UNL     1       1.839   4.458  21.381  0.00  0.00    +0.000 OA
BRANCH  14  17
ATOM     17  C   UNL     1       5.176   4.469  16.382  0.00  0.00    +0.000 C 
ATOM     18  F   UNL     1       6.445   4.639  16.843  0.00  0.00    +0.000 F 
ATOM     19  F   UNL     1       5.297   3.760  15.227  0.00  0.00    +0.000 F 
ATOM     20  F   UNL     1       4.746   5.708  16.016  0.00  0.00    +0.000 F 
ENDBRANCH  14  17
ENDBRANCH   5   7
BRANCH   1  21
ATOM     21  C   UNL     1       0.708  10.034  20.339  0.00  0.00    +0.000 C 
BRANCH  21  23
ATOM     22  C   UNL     1      -1.051  11.284  18.982  0.00  0.00    +0.000 C 
ATOM     23  C   UNL     1      -0.683  10.348  19.875  0.00  0.00    +0.000 C 
BRANCH  22  29
ATOM     24  C   UNL     1      -2.362  10.106  16.521  0.00  0.00    +0.000 C 
ATOM     25  N   UNL     1      -2.988  10.900  17.545  0.00  0.00    +0.000 N 
ATOM     26  C   UNL     1      -4.296  11.266  17.565  0.00  0.00    +0.000 A 
ATOM     27  N   UNL     1      -4.541  11.991  18.623  0.00  0.00    +0.000 NA
ATOM     28  N   UNL     1      -3.366  12.113  19.321  0.00  0.00    +0.000 NA
ATOM     29  C   UNL     1      -2.423  11.453  18.672  0.00  0.00    +0.000 A 
ENDBRANCH  22  29
ENDBRANCH  21  23
ENDBRANCH   1  21
TORSDOF 5
ENDMDL
MODEL 9
REMARK VINA RESULT:      -8.6      5.127      8.089
REMARK  Name = 
REMARK  6 active torsions:
REMARK  status: ('A' for Active; 'I' for Inactive)
REMARK    1  A    between atoms: C_1  and  N_2
REMARK    2  A    between atoms: C_6  and  C_7
REMARK    3  A    between atoms: C_8  and  C_9
REMARK    4  A    between atoms: C_9  and  C_10
REMARK    5  A    between atoms: C_14  and  N_15
REMARK    6  A    between atoms: C_22  and  C_23
REMARK                            x       y       z     vdW  Elec       q    Type
REMARK                         _______ _______ _______ _____ _____    ______ ____
ROOT
ATOM      1  C   UNL     1       7.064   6.565  17.769  0.00  0.00    +0.000 A 
ATOM      2  C   UNL     1       7.164   6.293  19.140  0.00  0.00    +0.000 A 
ATOM      3  C   UNL     1       6.761   5.061  19.643  0.00  0.00    +0.000 A 
ATOM      4  C   UNL     1       6.151   4.137  18.802  0.00  0.00    +0.000 A 
ATOM      5  C   UNL     1       5.831   4.504  17.485  0.00  0.00    +0.000 A 
ATOM      6  C   UNL     1       6.436   5.636  16.930  0.00  0.00    +0.000 A 
ENDROOT
BRANCH   5   7
ATOM      7  N   UNL     1       4.573   4.057  16.900  0.00  0.00    +0.000 N 
ATOM      8  C   UNL     1       3.653   5.211  16.733  0.00  0.00    +0.000 C 
ATOM      9  C   UNL     1       2.910   5.207  18.033  0.00  0.00    +0.000 A 
ATOM     10  C   UNL     1       2.901   3.889  18.502  0.00  0.00    +0.000 A 
ATOM     11  C   UNL     1       2.434   3.539  19.754  0.00  0.00    +0.000 A 
ATOM     12  C   UNL     1       1.980   4.570  20.574  0.00  0.00    +0.000 A 
ATOM     13  C   UNL     1       2.008   5.906  20.128  0.00  0.00    +0.000 A 
ATOM     14  C   UNL     1       2.473   6.253  18.842  0.00  0.00    +0.000 A 
ATOM     15  C   UNL     1       3.848   3.110  17.671  0.00  0.00    +0.000 C 
ATOM     16  O   UNL     1       4.071   1.922  17.818  0.00  0.00    +0.000 OA
BRANCH  14  17
ATOM     17  C   UNL     1       2.582   7.709  18.466  0.00  0.00    +0.000 C 
ATOM     18  F   UNL     1       1.744   8.093  17.465  0.00  0.00    +0.000 F 
ATOM     19  F   UNL     1       2.304   8.532  19.513  0.00  0.00    +0.000 F 
ATOM     20  F   UNL     1       3.835   8.046  18.050  0.00  0.00    +0.000 F 
ENDBRANCH  14  17
ENDBRANCH   5   7
BRANCH   1  21
ATOM     21  C   UNL     1       7.590   7.864  17.213  0.00  0.00    +0.000 C 
BRANCH  21  23
ATOM     22  C   UNL     1       8.745  10.000  17.990  0.00  0.00    +0.000 C 
ATOM     23  C   UNL     1       8.271   8.759  18.204  0.00  0.00    +0.000 C 
BRANCH  22  29
ATOM     24  C   UNL     1      10.956  12.021  17.563  0.00  0.00    +0.000 C 
ATOM     25  N   UNL     1      10.378  11.616  18.816  0.00  0.00    +0.000 N 
ATOM     26  C   UNL     1      10.750  12.079  20.039  0.00  0.00    +0.000 A 
ATOM     27  N   UNL     1      10.038  11.503  20.969  0.00  0.00    +0.000 NA
ATOM     28  N   UNL     1       9.174  10.634  20.351  0.00  0.00    +0.000 NA
ATOM     29  C   UNL     1       9.378  10.700  19.047  0.00  0.00    +0.000 A 
ENDBRANCH  22  29
ENDBRANCH  21  23
ENDBRANCH   1  21
TORSDOF 5
ENDMDL
