MODEL 1
REMARK VINA RESULT:      -8.3      0.000      0.000
REMARK  Name = 
REMARK  5 active torsions:
REMARK  status: ('A' for Active; 'I' for Inactive)
REMARK    1  A    between atoms: C_1  and  C_2
REMARK    2  A    between atoms: N_5  and  C_6
REMARK    3  A    between atoms: C_6  and  C_7
REMARK    4  A    between atoms: N_11  and  C_12
REMARK    5  A    between atoms: N_24  and  C_25
REMARK                            x       y       z     vdW  Elec       q    Type
REMARK                         _______ _______ _______ _____ _____    ______ ____
ROOT
ATOM      1  C   UNL     1       1.136   8.114  19.959  0.00  0.00    +0.000 C 
ENDROOT
BRANCH   1   2
ATOM      2  C   UNL     1       2.211   7.669  19.026  0.00  0.00    +0.000 A 
ATOM      3  N   UNL     1       2.903   8.481  18.245  0.00  0.00    +0.000 NA
ATOM      4  N   UNL     1       3.724   7.738  17.446  0.00  0.00    +0.000 NA
ATOM      5  C   UNL     1       3.550   6.473  17.759  0.00  0.00    +0.000 A 
ATOM      6  N   UNL     1       4.166   5.385  17.171  0.00  0.00    +0.000 N 
ATOM      7  C   UNL     1       5.090   5.523  16.063  0.00  0.00    +0.000 C 
ATOM      8  C   UNL     1       3.902   4.111  17.650  0.00  0.00    +0.000 A 
ATOM      9  O   UNL     1       4.410   3.097  17.175  0.00  0.00    +0.000 OA
ATOM     10  C   UNL     1       2.962   3.981  18.801  0.00  0.00    +0.000 A 
ATOM     11  C   UNL     1       2.737   2.698  19.325  0.00  0.00    +0.000 A 
ATOM     12  C   UNL     1       1.876   2.527  20.404  0.00  0.00    +0.000 A 
ATOM     13  C   UNL     1       1.235   3.634  20.953  0.00  0.00    +0.000 A 
ATOM     14  C   UNL     1       1.448   4.920  20.434  0.00  0.00    +0.000 A 
ATOM     15  C   UNL     1       2.320   5.103  19.356  0.00  0.00    +0.000 A 
ATOM     16  N   UNL     1       2.631   6.362  18.789  0.00  0.00    +0.000 N 
ENDBRANCH   1   2
BRANCH   1  21
ATOM     17  C   UNL     1      -1.128  12.296  18.601  0.00  0.00    +0.000 C 
ATOM     18  C   UNL     1       0.175  11.655  19.056  0.00  0.00    +0.000 C 
ATOM     19  C   UNL     1       0.217  10.141  18.792  0.00  0.00    +0.000 C 
ATOM     20  O   UNL     1      -0.262   9.574  17.820  0.00  0.00    +0.000 OA
ATOM     21  N   UNL     1       0.871   9.539  19.829  0.00  0.00    +0.000 N 
ATOM     22  C   UNL     1       0.918  10.393  20.888  0.00  0.00    +0.000 C 
ATOM     23  O   UNL     1       1.241  10.076  22.027  0.00  0.00    +0.000 OA
ATOM     24  N   UNL     1       0.463  11.646  20.475  0.00  0.00    +0.000 N 
BRANCH  24  25
ATOM     25  C   UNL     1      -0.046  12.592  21.385  0.00  0.00    +0.000 A 
ATOM     26  C   UNL     1       0.524  13.861  21.490  0.00  0.00    +0.000 A 
ATOM     27  C   UNL     1       0.078  14.742  22.482  0.00  0.00    +0.000 A 
ATOM     28  C   UNL     1      -0.969  14.377  23.332  0.00  0.00    +0.000 A 
ATOM     29  C   UNL     1      -1.572  13.130  23.194  0.00  0.00    +0.000 A 
ATOM     30  C   UNL     1      -1.101  12.234  22.236  0.00  0.00    +0.000 A 
ENDBRANCH  24  25
ENDBRANCH   1  21
TORSDOF 3
ENDMDL
MODEL 2
REMARK VINA RESULT:      -8.1      1.955      8.517
REMARK  Name = 
REMARK  5 active torsions:
REMARK  status: ('A' for Active; 'I' for Inactive)
REMARK    1  A    between atoms: C_1  and  C_2
REMARK    2  A    between atoms: N_5  and  C_6
REMARK    3  A    between atoms: C_6  and  C_7
REMARK    4  A    between atoms: N_11  and  C_12
REMARK    5  A    between atoms: N_24  and  C_25
REMARK                            x       y       z     vdW  Elec       q    Type
REMARK                         _______ _______ _______ _____ _____    ______ ____
ROOT
ATOM      1  C   UNL     1       0.498  10.298  18.773  0.00  0.00    +0.000 C 
ENDROOT
BRANCH   1   2
ATOM      2  C   UNL     1       1.227  11.575  19.026  0.00  0.00    +0.000 A 
ATOM      3  N   UNL     1       2.251  12.003  18.306  0.00  0.00    +0.000 NA
ATOM      4  N   UNL     1       2.747  13.142  18.872  0.00  0.00    +0.000 NA
ATOM      5  C   UNL     1       2.008  13.422  19.923  0.00  0.00    +0.000 A 
ATOM      6  N   UNL     1       2.184  14.477  20.798  0.00  0.00    +0.000 N 
ATOM      7  C   UNL     1       3.279  15.417  20.669  0.00  0.00    +0.000 C 
ATOM      8  C   UNL     1       1.285  14.657  21.838  0.00  0.00    +0.000 A 
ATOM      9  O   UNL     1       1.379  15.570  22.656  0.00  0.00    +0.000 OA
ATOM     10  C   UNL     1       0.152  13.694  21.953  0.00  0.00    +0.000 A 
ATOM     11  C   UNL     1      -0.792  13.906  22.970  0.00  0.00    +0.000 A 
ATOM     12  C   UNL     1      -1.872  13.040  23.112  0.00  0.00    +0.000 A 
ATOM     13  C   UNL     1      -2.005  11.961  22.244  0.00  0.00    +0.000 A 
ATOM     14  C   UNL     1      -1.064  11.735  21.226  0.00  0.00    +0.000 A 
ATOM     15  C   UNL     1       0.019  12.606  21.070  0.00  0.00    +0.000 A 
ATOM     16  N   UNL     1       0.995  12.487  20.052  0.00  0.00    +0.000 N 
ENDBRANCH   1   2
BRANCH   1  21
ATOM     17  C   UNL     1       1.608   5.996  20.945  0.00  0.00    +0.000 C 
ATOM     18  C   UNL     1       2.148   7.298  20.371  0.00  0.00    +0.000 C 
ATOM     19  C   UNL     1       1.090   8.412  20.324  0.00  0.00    +0.000 C 
ATOM     20  O   UNL     1       0.219   8.604  21.162  0.00  0.00    +0.000 OA
ATOM     21  N   UNL     1       1.282   9.144  19.187  0.00  0.00    +0.000 N 
ATOM     22  C   UNL     1       2.059   8.436  18.322  0.00  0.00    +0.000 C 
ATOM     23  O   UNL     1       2.229   8.722  17.142  0.00  0.00    +0.000 OA
ATOM     24  N   UNL     1       2.548   7.306  18.978  0.00  0.00    +0.000 N 
BRANCH  24  25
ATOM     25  C   UNL     1       2.974   6.162  18.278  0.00  0.00    +0.000 A 
ATOM     26  C   UNL     1       2.072   5.153  17.941  0.00  0.00    +0.000 A 
ATOM     27  C   UNL     1       2.540   3.974  17.350  0.00  0.00    +0.000 A 
ATOM     28  C   UNL     1       3.896   3.824  17.048  0.00  0.00    +0.000 A 
ATOM     29  C   UNL     1       4.788   4.852  17.337  0.00  0.00    +0.000 A 
ATOM     30  C   UNL     1       4.333   6.009  17.966  0.00  0.00    +0.000 A 
ENDBRANCH  24  25
ENDBRANCH   1  21
TORSDOF 3
ENDMDL
MODEL 3
REMARK VINA RESULT:      -8.1      2.362      8.601
REMARK  Name = 
REMARK  5 active torsions:
REMARK  status: ('A' for Active; 'I' for Inactive)
REMARK    1  A    between atoms: C_1  and  C_2
REMARK    2  A    between atoms: N_5  and  C_6
REMARK    3  A    between atoms: C_6  and  C_7
REMARK    4  A    between atoms: N_11  and  C_12
REMARK    5  A    between atoms: N_24  and  C_25
REMARK                            x       y       z     vdW  Elec       q    Type
REMARK                         _______ _______ _______ _____ _____    ______ ____
ROOT
ATOM      1  C   UNL     1       1.051  10.602  18.653  0.00  0.00    +0.000 C 
ENDROOT
BRANCH   1   2
ATOM      2  C   UNL     1      -0.407  10.504  18.352  0.00  0.00    +0.000 A 
ATOM      3  N   UNL     1      -0.921   9.743  17.399  0.00  0.00    +0.000 NA
ATOM      4  N   UNL     1      -2.265   9.973  17.324  0.00  0.00    +0.000 NA
ATOM      5  C   UNL     1      -2.573  10.855  18.248  0.00  0.00    +0.000 A 
ATOM      6  N   UNL     1      -3.824  11.389  18.496  0.00  0.00    +0.000 N 
ATOM      7  C   UNL     1      -4.984  11.044  17.700  0.00  0.00    +0.000 C 
ATOM      8  C   UNL     1      -3.988  12.282  19.543  0.00  0.00    +0.000 A 
ATOM      9  O   UNL     1      -5.069  12.799  19.821  0.00  0.00    +0.000 OA
ATOM     10  C   UNL     1      -2.790  12.618  20.367  0.00  0.00    +0.000 A 
ATOM     11  C   UNL     1      -2.965  13.479  21.462  0.00  0.00    +0.000 A 
ATOM     12  C   UNL     1      -1.880  13.814  22.266  0.00  0.00    +0.000 A 
ATOM     13  C   UNL     1      -0.622  13.297  21.972  0.00  0.00    +0.000 A 
ATOM     14  C   UNL     1      -0.435  12.440  20.875  0.00  0.00    +0.000 A 
ATOM     15  C   UNL     1      -1.521  12.089  20.068  0.00  0.00    +0.000 A 
ATOM     16  N   UNL     1      -1.442  11.203  18.968  0.00  0.00    +0.000 N 
ENDBRANCH   1   2
BRANCH   1  21
ATOM     17  C   UNL     1       1.248   6.207  20.911  0.00  0.00    +0.000 C 
ATOM     18  C   UNL     1       2.044   7.377  20.353  0.00  0.00    +0.000 C 
ATOM     19  C   UNL     1       1.212   8.665  20.246  0.00  0.00    +0.000 C 
ATOM     20  O   UNL     1       0.353   9.027  21.038  0.00  0.00    +0.000 OA
ATOM     21  N   UNL     1       1.589   9.331  19.114  0.00  0.00    +0.000 N 
ATOM     22  C   UNL     1       2.262   8.478  18.293  0.00  0.00    +0.000 C 
ATOM     23  O   UNL     1       2.537   8.708  17.122  0.00  0.00    +0.000 OA
ATOM     24  N   UNL     1       2.504   7.289  18.983  0.00  0.00    +0.000 N 
BRANCH  24  25
ATOM     25  C   UNL     1       2.746   6.075  18.313  0.00  0.00    +0.000 A 
ATOM     26  C   UNL     1       1.698   5.204  18.011  0.00  0.00    +0.000 A 
ATOM     27  C   UNL     1       1.977   3.952  17.452  0.00  0.00    +0.000 A 
ATOM     28  C   UNL     1       3.291   3.591  17.146  0.00  0.00    +0.000 A 
ATOM     29  C   UNL     1       4.332   4.481  17.399  0.00  0.00    +0.000 A 
ATOM     30  C   UNL     1       4.062   5.710  17.996  0.00  0.00    +0.000 A 
ENDBRANCH  24  25
ENDBRANCH   1  21
TORSDOF 3
ENDMDL
MODEL 4
REMARK VINA RESULT:      -8.0      2.086      8.785
REMARK  Name = 
REMARK  5 active torsions:
REMARK  status: ('A' for Active; 'I' for Inactive)
REMARK    1  A    between atoms: C_1  and  C_2
REMARK    2  A    between atoms: N_5  and  C_6
REMARK    3  A    between atoms: C_6  and  C_7
REMARK    4  A    between atoms: N_11  and  C_12
REMARK    5  A    between atoms: N_24  and  C_25
REMARK                            x       y       z     vdW  Elec       q    Type
REMARK                         _______ _______ _______ _____ _____    ______ ____
ROOT
ATOM      1  C   UNL     1       0.629  10.446  18.657  0.00  0.00    +0.000 C 
ENDROOT
BRANCH   1   2
ATOM      2  C   UNL     1       0.436  11.435  19.756  0.00  0.00    +0.000 A 
ATOM      3  N   UNL     1       1.409  11.888  20.529  0.00  0.00    +0.000 NA
ATOM      4  N   UNL     1       0.873  12.690  21.495  0.00  0.00    +0.000 NA
ATOM      5  C   UNL     1      -0.425  12.747  21.295  0.00  0.00    +0.000 A 
ATOM      6  N   UNL     1      -1.351  13.427  22.063  0.00  0.00    +0.000 N 
ATOM      7  C   UNL     1      -0.978  14.159  23.256  0.00  0.00    +0.000 C 
ATOM      8  C   UNL     1      -2.685  13.419  21.687  0.00  0.00    +0.000 A 
ATOM      9  O   UNL     1      -3.564  13.999  22.322  0.00  0.00    +0.000 OA
ATOM     10  C   UNL     1      -3.056  12.676  20.448  0.00  0.00    +0.000 A 
ATOM     11  C   UNL     1      -4.397  12.714  20.035  0.00  0.00    +0.000 A 
ATOM     12  C   UNL     1      -4.790  12.044  18.880  0.00  0.00    +0.000 A 
ATOM     13  C   UNL     1      -3.847  11.331  18.146  0.00  0.00    +0.000 A 
ATOM     14  C   UNL     1      -2.505  11.281  18.553  0.00  0.00    +0.000 A 
ATOM     15  C   UNL     1      -2.098  11.960  19.706  0.00  0.00    +0.000 A 
ATOM     16  N   UNL     1      -0.764  12.004  20.175  0.00  0.00    +0.000 N 
ENDBRANCH   1   2
BRANCH   1  21
ATOM     17  C   UNL     1       1.405   6.110  20.905  0.00  0.00    +0.000 C 
ATOM     18  C   UNL     1       2.038   7.383  20.361  0.00  0.00    +0.000 C 
ATOM     19  C   UNL     1       1.037   8.543  20.247  0.00  0.00    +0.000 C 
ATOM     20  O   UNL     1       0.126   8.779  21.029  0.00  0.00    +0.000 OA
ATOM     21  N   UNL     1       1.332   9.260  19.121  0.00  0.00    +0.000 N 
ATOM     22  C   UNL     1       2.127   8.512  18.307  0.00  0.00    +0.000 C 
ATOM     23  O   UNL     1       2.382   8.783  17.140  0.00  0.00    +0.000 OA
ATOM     24  N   UNL     1       2.523   7.365  18.997  0.00  0.00    +0.000 N 
BRANCH  24  25
ATOM     25  C   UNL     1       2.939   6.199  18.327  0.00  0.00    +0.000 A 
ATOM     26  C   UNL     1       2.017   5.219  17.958  0.00  0.00    +0.000 A 
ATOM     27  C   UNL     1       2.469   4.018  17.401  0.00  0.00    +0.000 A 
ATOM     28  C   UNL     1       3.830   3.816  17.162  0.00  0.00    +0.000 A 
ATOM     29  C   UNL     1       4.746   4.815  17.482  0.00  0.00    +0.000 A 
ATOM     30  C   UNL     1       4.304   5.995  18.078  0.00  0.00    +0.000 A 
ENDBRANCH  24  25
ENDBRANCH   1  21
TORSDOF 3
ENDMDL
MODEL 5
REMARK VINA RESULT:      -7.8      2.155      8.494
REMARK  Name = 
REMARK  5 active torsions:
REMARK  status: ('A' for Active; 'I' for Inactive)
REMARK    1  A    between atoms: C_1  and  C_2
REMARK    2  A    between atoms: N_5  and  C_6
REMARK    3  A    between atoms: C_6  and  C_7
REMARK    4  A    between atoms: N_11  and  C_12
REMARK    5  A    between atoms: N_24  and  C_25
REMARK                            x       y       z     vdW  Elec       q    Type
REMARK                         _______ _______ _______ _____ _____    ______ ____
ROOT
ATOM      1  C   UNL     1       1.263  10.108  18.048  0.00  0.00    +0.000 C 
ENDROOT
BRANCH   1   2
ATOM      2  C   UNL     1       0.785  11.159  18.993  0.00  0.00    +0.000 A 
ATOM      3  N   UNL     1       1.571  11.833  19.816  0.00  0.00    +0.000 NA
ATOM      4  N   UNL     1       0.801  12.632  20.611  0.00  0.00    +0.000 NA
ATOM      5  C   UNL     1      -0.453  12.464  20.254  0.00  0.00    +0.000 A 
ATOM      6  N   UNL     1      -1.561  13.063  20.822  0.00  0.00    +0.000 N 
ATOM      7  C   UNL     1      -1.461  13.960  21.957  0.00  0.00    +0.000 C 
ATOM      8  C   UNL     1      -2.818  12.810  20.297  0.00  0.00    +0.000 A 
ATOM      9  O   UNL     1      -3.848  13.304  20.751  0.00  0.00    +0.000 OA
ATOM     10  C   UNL     1      -2.910  11.898  19.119  0.00  0.00    +0.000 A 
ATOM     11  C   UNL     1      -4.175  11.684  18.549  0.00  0.00    +0.000 A 
ATOM     12  C   UNL     1      -4.309  10.850  17.443  0.00  0.00    +0.000 A 
ATOM     13  C   UNL     1      -3.184  10.225  16.914  0.00  0.00    +0.000 A 
ATOM     14  C   UNL     1      -1.916  10.427  17.480  0.00  0.00    +0.000 A 
ATOM     15  C   UNL     1      -1.769  11.272  18.584  0.00  0.00    +0.000 A 
ATOM     16  N   UNL     1      -0.530  11.571  19.198  0.00  0.00    +0.000 N 
ENDBRANCH   1   2
BRANCH   1  21
ATOM     17  C   UNL     1       1.305   6.108  20.955  0.00  0.00    +0.000 C 
ATOM     18  C   UNL     1       2.131   7.219  20.322  0.00  0.00    +0.000 C 
ATOM     19  C   UNL     1       1.283   8.437  19.925  0.00  0.00    +0.000 C 
ATOM     20  O   UNL     1       0.324   8.872  20.547  0.00  0.00    +0.000 OA
ATOM     21  N   UNL     1       1.775   8.945  18.756  0.00  0.00    +0.000 N 
ATOM     22  C   UNL     1       2.567   8.013  18.159  0.00  0.00    +0.000 C 
ATOM     23  O   UNL     1       2.976   8.080  17.005  0.00  0.00    +0.000 OA
ATOM     24  N   UNL     1       2.756   6.951  19.044  0.00  0.00    +0.000 N 
BRANCH  24  25
ATOM     25  C   UNL     1       3.112   5.663  18.599  0.00  0.00    +0.000 A 
ATOM     26  C   UNL     1       4.406   5.175  18.784  0.00  0.00    +0.000 A 
ATOM     27  C   UNL     1       4.768   3.943  18.229  0.00  0.00    +0.000 A 
ATOM     28  C   UNL     1       3.827   3.174  17.538  0.00  0.00    +0.000 A 
ATOM     29  C   UNL     1       2.522   3.638  17.398  0.00  0.00    +0.000 A 
ATOM     30  C   UNL     1       2.170   4.885  17.911  0.00  0.00    +0.000 A 
ENDBRANCH  24  25
ENDBRANCH   1  21
TORSDOF 3
ENDMDL
MODEL 6
REMARK VINA RESULT:      -7.6      2.208      8.683
REMARK  Name = 
REMARK  5 active torsions:
REMARK  status: ('A' for Active; 'I' for Inactive)
REMARK    1  A    between atoms: C_1  and  C_2
REMARK    2  A    between atoms: N_5  and  C_6
REMARK    3  A    between atoms: C_6  and  C_7
REMARK    4  A    between atoms: N_11  and  C_12
REMARK    5  A    between atoms: N_24  and  C_25
REMARK                            x       y       z     vdW  Elec       q    Type
REMARK                         _______ _______ _______ _____ _____    ______ ____
ROOT
ATOM      1  C   UNL     1       1.242   8.121  18.499  0.00  0.00    +0.000 C 
ENDROOT
BRANCH   1   2
ATOM      2  C   UNL     1       0.961   9.108  19.582  0.00  0.00    +0.000 A 
ATOM      3  N   UNL     1       1.680   9.227  20.686  0.00  0.00    +0.000 NA
ATOM      4  N   UNL     1       1.087  10.144  21.505  0.00  0.00    +0.000 NA
ATOM      5  C   UNL     1       0.020  10.602  20.889  0.00  0.00    +0.000 A 
ATOM      6  N   UNL     1      -0.884  11.526  21.379  0.00  0.00    +0.000 N 
ATOM      7  C   UNL     1      -0.769  12.092  22.707  0.00  0.00    +0.000 C 
ATOM      8  C   UNL     1      -1.939  11.937  20.580  0.00  0.00    +0.000 A 
ATOM      9  O   UNL     1      -2.782  12.752  20.948  0.00  0.00    +0.000 OA
ATOM     10  C   UNL     1      -2.039  11.360  19.207  0.00  0.00    +0.000 A 
ATOM     11  C   UNL     1      -3.074  11.816  18.375  0.00  0.00    +0.000 A 
ATOM     12  C   UNL     1      -3.203  11.315  17.084  0.00  0.00    +0.000 A 
ATOM     13  C   UNL     1      -2.305  10.355  16.627  0.00  0.00    +0.000 A 
ATOM     14  C   UNL     1      -1.271   9.887  17.453  0.00  0.00    +0.000 A 
ATOM     15  C   UNL     1      -1.127  10.392  18.748  0.00  0.00    +0.000 A 
ATOM     16  N   UNL     1      -0.094  10.015  19.640  0.00  0.00    +0.000 N 
ENDBRANCH   1   2
BRANCH   1  21
ATOM     17  C   UNL     1       3.546   3.984  19.924  0.00  0.00    +0.000 C 
ATOM     18  C   UNL     1       3.622   5.500  19.819  0.00  0.00    +0.000 C 
ATOM     19  C   UNL     1       2.237   6.159  19.713  0.00  0.00    +0.000 C 
ATOM     20  O   UNL     1       1.224   5.786  20.289  0.00  0.00    +0.000 OA
ATOM     21  N   UNL     1       2.328   7.223  18.862  0.00  0.00    +0.000 N 
ATOM     22  C   UNL     1       3.466   7.112  18.123  0.00  0.00    +0.000 C 
ATOM     23  O   UNL     1       3.722   7.784  17.130  0.00  0.00    +0.000 OA
ATOM     24  N   UNL     1       4.233   6.065  18.634  0.00  0.00    +0.000 N 
BRANCH  24  25
ATOM     25  C   UNL     1       5.199   5.399  17.856  0.00  0.00    +0.000 A 
ATOM     26  C   UNL     1       6.536   5.360  18.255  0.00  0.00    +0.000 A 
ATOM     27  C   UNL     1       7.496   4.796  17.408  0.00  0.00    +0.000 A 
ATOM     28  C   UNL     1       7.116   4.223  16.191  0.00  0.00    +0.000 A 
ATOM     29  C   UNL     1       5.775   4.216  15.817  0.00  0.00    +0.000 A 
ATOM     30  C   UNL     1       4.823   4.817  16.637  0.00  0.00    +0.000 A 
ENDBRANCH  24  25
ENDBRANCH   1  21
TORSDOF 3
ENDMDL
MODEL 7
REMARK VINA RESULT:      -7.5      2.280      4.266
REMARK  Name = 
REMARK  5 active torsions:
REMARK  status: ('A' for Active; 'I' for Inactive)
REMARK    1  A    between atoms: C_1  and  C_2
REMARK    2  A    between atoms: N_5  and  C_6
REMARK    3  A    between atoms: C_6  and  C_7
REMARK    4  A    between atoms: N_11  and  C_12
REMARK    5  A    between atoms: N_24  and  C_25
REMARK                            x       y       z     vdW  Elec       q    Type
REMARK                         _______ _______ _______ _____ _____    ______ ____
ROOT
ATOM      1  C   UNL     1       2.225   9.403  18.376  0.00  0.00    +0.000 C 
ENDROOT
BRANCH   1   2
ATOM      2  C   UNL     1       2.086   8.149  19.172  0.00  0.00    +0.000 A 
ATOM      3  N   UNL     1       1.302   8.021  20.230  0.00  0.00    +0.000 NA
ATOM      4  N   UNL     1       1.497   6.787  20.781  0.00  0.00    +0.000 NA
ATOM      5  C   UNL     1       2.381   6.153  20.043  0.00  0.00    +0.000 A 
ATOM      6  N   UNL     1       2.885   4.886  20.265  0.00  0.00    +0.000 N 
ATOM      7  C   UNL     1       2.503   4.090  21.414  0.00  0.00    +0.000 C 
ATOM      8  C   UNL     1       3.786   4.343  19.362  0.00  0.00    +0.000 A 
ATOM      9  O   UNL     1       4.278   3.224  19.495  0.00  0.00    +0.000 OA
ATOM     10  C   UNL     1       4.162   5.164  18.174  0.00  0.00    +0.000 A 
ATOM     11  C   UNL     1       5.030   4.595  17.229  0.00  0.00    +0.000 A 
ATOM     12  C   UNL     1       5.402   5.318  16.099  0.00  0.00    +0.000 A 
ATOM     13  C   UNL     1       4.913   6.608  15.919  0.00  0.00    +0.000 A 
ATOM     14  C   UNL     1       4.050   7.189  16.860  0.00  0.00    +0.000 A 
ATOM     15  C   UNL     1       3.662   6.467  17.993  0.00  0.00    +0.000 A 
ATOM     16  N   UNL     1       2.766   6.949  18.976  0.00  0.00    +0.000 N 
ENDBRANCH   1   2
BRANCH   1  21
ATOM     17  C   UNL     1      -0.336  13.631  18.492  0.00  0.00    +0.000 C 
ATOM     18  C   UNL     1      -0.160  12.244  19.092  0.00  0.00    +0.000 C 
ATOM     19  C   UNL     1       1.244  11.666  18.853  0.00  0.00    +0.000 C 
ATOM     20  O   UNL     1       2.287  12.305  18.854  0.00  0.00    +0.000 OA
ATOM     21  N   UNL     1       1.128  10.323  18.632  0.00  0.00    +0.000 N 
ATOM     22  C   UNL     1      -0.165  10.028  18.322  0.00  0.00    +0.000 C 
ATOM     23  O   UNL     1      -0.545   8.958  17.862  0.00  0.00    +0.000 OA
ATOM     24  N   UNL     1      -0.948  11.163  18.536  0.00  0.00    +0.000 N 
BRANCH  24  25
ATOM     25  C   UNL     1      -2.188  11.345  17.895  0.00  0.00    +0.000 A 
ATOM     26  C   UNL     1      -3.322  11.707  18.623  0.00  0.00    +0.000 A 
ATOM     27  C   UNL     1      -4.566  11.767  17.984  0.00  0.00    +0.000 A 
ATOM     28  C   UNL     1      -4.669  11.518  16.613  0.00  0.00    +0.000 A 
ATOM     29  C   UNL     1      -3.529  11.207  15.877  0.00  0.00    +0.000 A 
ATOM     30  C   UNL     1      -2.297  11.104  16.518  0.00  0.00    +0.000 A 
ENDBRANCH  24  25
ENDBRANCH   1  21
TORSDOF 3
ENDMDL
MODEL 8
REMARK VINA RESULT:      -7.4      1.449      3.015
REMARK  Name = 
REMARK  5 active torsions:
REMARK  status: ('A' for Active; 'I' for Inactive)
REMARK    1  A    between atoms: C_1  and  C_2
REMARK    2  A    between atoms: N_5  and  C_6
REMARK    3  A    between atoms: C_6  and  C_7
REMARK    4  A    between atoms: N_11  and  C_12
REMARK    5  A    between atoms: N_24  and  C_25
REMARK                            x       y       z     vdW  Elec       q    Type
REMARK                         _______ _______ _______ _____ _____    ______ ____
ROOT
ATOM      1  C   UNL     1       2.184   9.445  18.792  0.00  0.00    +0.000 C 
ENDROOT
BRANCH   1   2
ATOM      2  C   UNL     1       1.959   8.147  19.491  0.00  0.00    +0.000 A 
ATOM      3  N   UNL     1       1.133   7.985  20.512  0.00  0.00    +0.000 NA
ATOM      4  N   UNL     1       1.250   6.707  20.979  0.00  0.00    +0.000 NA
ATOM      5  C   UNL     1       2.128   6.083  20.226  0.00  0.00    +0.000 A 
ATOM      6  N   UNL     1       2.564   4.780  20.372  0.00  0.00    +0.000 N 
ATOM      7  C   UNL     1       2.105   3.926  21.449  0.00  0.00    +0.000 C 
ATOM      8  C   UNL     1       3.470   4.258  19.462  0.00  0.00    +0.000 A 
ATOM      9  O   UNL     1       3.903   3.110  19.530  0.00  0.00    +0.000 OA
ATOM     10  C   UNL     1       3.925   5.140  18.348  0.00  0.00    +0.000 A 
ATOM     11  C   UNL     1       4.797   4.596  17.392  0.00  0.00    +0.000 A 
ATOM     12  C   UNL     1       5.241   5.377  16.329  0.00  0.00    +0.000 A 
ATOM     13  C   UNL     1       4.821   6.699  16.226  0.00  0.00    +0.000 A 
ATOM     14  C   UNL     1       3.954   7.255  17.179  0.00  0.00    +0.000 A 
ATOM     15  C   UNL     1       3.494   6.476  18.245  0.00  0.00    +0.000 A 
ATOM     16  N   UNL     1       2.587   6.931  19.231  0.00  0.00    +0.000 N 
ENDBRANCH   1   2
BRANCH   1  21
ATOM     17  C   UNL     1      -2.500  11.031  18.779  0.00  0.00    +0.000 C 
ATOM     18  C   UNL     1      -1.032  11.428  18.730  0.00  0.00    +0.000 C 
ATOM     19  C   UNL     1      -0.122  10.284  18.252  0.00  0.00    +0.000 C 
ATOM     20  O   UNL     1      -0.406   9.458  17.396  0.00  0.00    +0.000 OA
ATOM     21  N   UNL     1       1.050  10.343  18.951  0.00  0.00    +0.000 N 
ATOM     22  C   UNL     1       0.876  11.115  20.059  0.00  0.00    +0.000 C 
ATOM     23  O   UNL     1       1.666  11.184  20.993  0.00  0.00    +0.000 OA
ATOM     24  N   UNL     1      -0.373  11.734  19.983  0.00  0.00    +0.000 N 
BRANCH  24  25
ATOM     25  C   UNL     1      -1.044  12.203  21.129  0.00  0.00    +0.000 A 
ATOM     26  C   UNL     1      -1.352  11.339  22.180  0.00  0.00    +0.000 A 
ATOM     27  C   UNL     1      -2.122  11.801  23.253  0.00  0.00    +0.000 A 
ATOM     28  C   UNL     1      -2.538  13.134  23.304  0.00  0.00    +0.000 A 
ATOM     29  C   UNL     1      -2.186  14.009  22.279  0.00  0.00    +0.000 A 
ATOM     30  C   UNL     1      -1.457  13.541  21.187  0.00  0.00    +0.000 A 
ENDBRANCH  24  25
ENDBRANCH   1  21
TORSDOF 3
ENDMDL
MODEL 9
REMARK VINA RESULT:      -7.2      2.213      8.748
REMARK  Name = 
REMARK  5 active torsions:
REMARK  status: ('A' for Active; 'I' for Inactive)
REMARK    1  A    between atoms: C_1  and  C_2
REMARK    2  A    between atoms: N_5  and  C_6
REMARK    3  A    between atoms: C_6  and  C_7
REMARK    4  A    between atoms: N_11  and  C_12
REMARK    5  A    between atoms: N_24  and  C_25
REMARK                            x       y       z     vdW  Elec       q    Type
REMARK                         _______ _______ _______ _____ _____    ______ ____
ROOT
ATOM      1  C   UNL     1       0.376  10.445  18.514  0.00  0.00    +0.000 C 
ENDROOT
BRANCH   1   2
ATOM      2  C   UNL     1       1.004  11.761  18.830  0.00  0.00    +0.000 A 
ATOM      3  N   UNL     1       2.261  12.070  18.558  0.00  0.00    +0.000 NA
ATOM      4  N   UNL     1       2.538  13.303  19.075  0.00  0.00    +0.000 NA
ATOM      5  C   UNL     1       1.440  13.756  19.640  0.00  0.00    +0.000 A 
ATOM      6  N   UNL     1       1.290  14.956  20.308  0.00  0.00    +0.000 N 
ATOM      7  C   UNL     1       2.391  15.878  20.502  0.00  0.00    +0.000 C 
ATOM      8  C   UNL     1       0.047  15.305  20.813  0.00  0.00    +0.000 A 
ATOM      9  O   UNL     1      -0.161  16.354  21.420  0.00  0.00    +0.000 OA
ATOM     10  C   UNL     1      -1.084  14.357  20.594  0.00  0.00    +0.000 A 
ATOM     11  C   UNL     1      -2.356  14.733  21.054  0.00  0.00    +0.000 A 
ATOM     12  C   UNL     1      -3.444  13.886  20.865  0.00  0.00    +0.000 A 
ATOM     13  C   UNL     1      -3.260  12.664  20.226  0.00  0.00    +0.000 A 
ATOM     14  C   UNL     1      -1.992  12.275  19.768  0.00  0.00    +0.000 A 
ATOM     15  C   UNL     1      -0.894  13.124  19.943  0.00  0.00    +0.000 A 
ATOM     16  N   UNL     1       0.413  12.841  19.481  0.00  0.00    +0.000 N 
ENDBRANCH   1   2
BRANCH   1  21
ATOM     17  C   UNL     1       1.432   6.342  21.064  0.00  0.00    +0.000 C 
ATOM     18  C   UNL     1       1.984   7.603  20.415  0.00  0.00    +0.000 C 
ATOM     19  C   UNL     1       0.916   8.694  20.233  0.00  0.00    +0.000 C 
ATOM     20  O   UNL     1       0.005   8.936  21.012  0.00  0.00    +0.000 OA
ATOM     21  N   UNL     1       1.153   9.339  19.052  0.00  0.00    +0.000 N 
ATOM     22  C   UNL     1       1.977   8.578  18.281  0.00  0.00    +0.000 C 
ATOM     23  O   UNL     1       2.199   8.774  17.092  0.00  0.00    +0.000 OA
ATOM     24  N   UNL     1       2.448   7.510  19.046  0.00  0.00    +0.000 N 
BRANCH  24  25
ATOM     25  C   UNL     1       2.921   6.321  18.457  0.00  0.00    +0.000 A 
ATOM     26  C   UNL     1       4.277   6.152  18.179  0.00  0.00    +0.000 A 
ATOM     27  C   UNL     1       4.706   5.014  17.486  0.00  0.00    +0.000 A 
ATOM     28  C   UNL     1       3.792   4.023  17.120  0.00  0.00    +0.000 A 
ATOM     29  C   UNL     1       2.446   4.168  17.443  0.00  0.00    +0.000 A 
ATOM     30  C   UNL     1       2.009   5.320  18.093  0.00  0.00    +0.000 A 
ENDBRANCH  24  25
ENDBRANCH   1  21
TORSDOF 3
ENDMDL
