MODEL 1
REMARK VINA RESULT:      -9.1      0.000      0.000
REMARK  Name = 
REMARK  8 active torsions:
REMARK  status: ('A' for Active; 'I' for Inactive)
REMARK    1  A    between atoms: C_2  and  C_3
REMARK    2  A    between atoms: C_3  and  O_4
REMARK    3  A    between atoms: O_4  and  C_5
REMARK    4  A    between atoms: C_10  and  C_11
REMARK    5  A    between atoms: N_13  and  C_14
REMARK    6  A    between atoms: C_14  and  C_15
REMARK    7  A    between atoms: N_21  and  C_22
REMARK    8  A    between atoms: C_27  and  C_28
REMARK                            x       y       z     vdW  Elec       q    Type
REMARK                         _______ _______ _______ _____ _____    ______ ____
ROOT
ATOM      1  O   UNL     1       0.742   9.592  18.230  0.00  0.00    +0.000 OA
ENDROOT
BRANCH   1   2
ATOM      2  C   UNL     1       0.564  10.905  18.627  0.00  0.00    +0.000 A 
ATOM      3  C   UNL     1       1.582  11.636  19.270  0.00  0.00    +0.000 A 
ATOM      4  C   UNL     1       1.409  12.979  19.618  0.00  0.00    +0.000 A 
ATOM      5  C   UNL     1       0.224  13.629  19.312  0.00  0.00    +0.000 A 
ATOM      6  C   UNL     1      -0.794  12.927  18.674  0.00  0.00    +0.000 A 
ATOM      7  C   UNL     1      -0.653  11.564  18.336  0.00  0.00    +0.000 A 
BRANCH   7   8
ATOM      8  C   UNL     1      -1.868  10.940  17.716  0.00  0.00    +0.000 C 
ATOM      9  O   UNL     1      -2.024   9.723  17.757  0.00  0.00    +0.000 OA
ATOM     10  N   UNL     1      -2.763  11.766  17.090  0.00  0.00    +0.000 N 
ATOM     11  H   UNL     1      -2.583  12.762  17.091  0.00  0.00    +0.000 HD
BRANCH  10  12
ATOM     12  C   UNL     1      -3.963  11.272  16.446  0.00  0.00    +0.000 C 
BRANCH  12  13
ATOM     13  C   UNL     1      -5.167  11.522  17.304  0.00  0.00    +0.000 A 
ATOM     14  C   UNL     1      -5.968  12.638  17.040  0.00  0.00    +0.000 A 
ATOM     15  C   UNL     1      -7.105  12.885  17.806  0.00  0.00    +0.000 A 
ATOM     16  C   UNL     1      -7.439  12.030  18.854  0.00  0.00    +0.000 A 
ATOM     17  C   UNL     1      -6.631  10.932  19.143  0.00  0.00    +0.000 A 
ATOM     18  C   UNL     1      -5.497  10.675  18.374  0.00  0.00    +0.000 A 
ENDBRANCH  12  13
ENDBRANCH  10  12
ENDBRANCH   7   8
ENDBRANCH   1   2
BRANCH   1  19
ATOM     19  C   UNL     1       2.098   9.134  18.199  0.00  0.00    +0.000 C 
BRANCH  19  21
ATOM     20  O   UNL     1       2.094   7.436  19.893  0.00  0.00    +0.000 OA
ATOM     21  C   UNL     1       2.297   7.701  18.711  0.00  0.00    +0.000 C 
ATOM     22  N   UNL     1       2.741   6.819  17.737  0.00  0.00    +0.000 N 
ATOM     23  H   UNL     1       2.819   7.197  16.802  0.00  0.00    +0.000 HD
BRANCH  22  24
ATOM     24  C   UNL     1       2.860   5.407  17.872  0.00  0.00    +0.000 A 
ATOM     25  C   UNL     1       1.696   4.615  17.905  0.00  0.00    +0.000 A 
ATOM     26  C   UNL     1       1.763   3.229  18.047  0.00  0.00    +0.000 A 
ATOM     27  C   UNL     1       2.996   2.605  18.114  0.00  0.00    +0.000 A 
ATOM     28  C   UNL     1       4.163   3.372  18.077  0.00  0.00    +0.000 A 
ATOM     29  C   UNL     1       4.137   4.786  18.000  0.00  0.00    +0.000 A 
BRANCH  29  30
ATOM     30  C   UNL     1       5.437   5.520  18.049  0.00  0.00    +0.000 A 
ATOM     31  C   UNL     1       5.782   6.502  17.115  0.00  0.00    +0.000 A 
ATOM     32  C   UNL     1       6.940   7.274  17.219  0.00  0.00    +0.000 A 
ATOM     33  C   UNL     1       7.859   7.010  18.219  0.00  0.00    +0.000 A 
ATOM     34  C   UNL     1       7.597   5.986  19.118  0.00  0.00    +0.000 A 
ATOM     35  C   UNL     1       6.397   5.264  19.044  0.00  0.00    +0.000 A 
ENDBRANCH  29  30
ENDBRANCH  22  24
ENDBRANCH  19  21
ENDBRANCH   1  19
TORSDOF 8
ENDMDL
MODEL 2
REMARK VINA RESULT:      -9.1      2.933      9.891
REMARK  Name = 
REMARK  8 active torsions:
REMARK  status: ('A' for Active; 'I' for Inactive)
REMARK    1  A    between atoms: C_2  and  C_3
REMARK    2  A    between atoms: C_3  and  O_4
REMARK    3  A    between atoms: O_4  and  C_5
REMARK    4  A    between atoms: C_10  and  C_11
REMARK    5  A    between atoms: N_13  and  C_14
REMARK    6  A    between atoms: C_14  and  C_15
REMARK    7  A    between atoms: N_21  and  C_22
REMARK    8  A    between atoms: C_27  and  C_28
REMARK                            x       y       z     vdW  Elec       q    Type
REMARK                         _______ _______ _______ _____ _____    ______ ____
ROOT
ATOM      1  O   UNL     1       0.271  11.141  19.100  0.00  0.00    +0.000 OA
ENDROOT
BRANCH   1   2
ATOM      2  C   UNL     1       0.179  10.678  20.400  0.00  0.00    +0.000 A 
ATOM      3  C   UNL     1      -0.487  11.405  21.405  0.00  0.00    +0.000 A 
ATOM      4  C   UNL     1      -0.621  10.903  22.704  0.00  0.00    +0.000 A 
ATOM      5  C   UNL     1      -0.114   9.652  23.020  0.00  0.00    +0.000 A 
ATOM      6  C   UNL     1       0.545   8.915  22.041  0.00  0.00    +0.000 A 
ATOM      7  C   UNL     1       0.715   9.413  20.731  0.00  0.00    +0.000 A 
BRANCH   7   8
ATOM      8  C   UNL     1       1.508   8.523  19.818  0.00  0.00    +0.000 C 
ATOM      9  O   UNL     1       1.590   8.786  18.622  0.00  0.00    +0.000 OA
ATOM     10  N   UNL     1       2.097   7.412  20.360  0.00  0.00    +0.000 N 
ATOM     11  H   UNL     1       1.996   7.249  21.354  0.00  0.00    +0.000 HD
BRANCH  10  12
ATOM     12  C   UNL     1       2.872   6.477  19.571  0.00  0.00    +0.000 C 
BRANCH  12  13
ATOM     13  C   UNL     1       2.172   5.154  19.475  0.00  0.00    +0.000 A 
ATOM     14  C   UNL     1       1.712   4.543  20.646  0.00  0.00    +0.000 A 
ATOM     15  C   UNL     1       1.040   3.324  20.587  0.00  0.00    +0.000 A 
ATOM     16  C   UNL     1       0.841   2.697  19.359  0.00  0.00    +0.000 A 
ATOM     17  C   UNL     1       1.321   3.284  18.190  0.00  0.00    +0.000 A 
ATOM     18  C   UNL     1       1.986   4.509  18.242  0.00  0.00    +0.000 A 
ENDBRANCH  12  13
ENDBRANCH  10  12
ENDBRANCH   7   8
ENDBRANCH   1   2
BRANCH   1  19
ATOM     19  C   UNL     1      -0.737  12.075  18.702  0.00  0.00    +0.000 C 
BRANCH  19  21
ATOM     20  O   UNL     1      -2.322  10.336  18.240  0.00  0.00    +0.000 OA
ATOM     21  C   UNL     1      -2.154  11.490  18.625  0.00  0.00    +0.000 C 
ATOM     22  N   UNL     1      -3.147  12.387  18.987  0.00  0.00    +0.000 N 
ATOM     23  H   UNL     1      -2.828  13.289  19.318  0.00  0.00    +0.000 HD
BRANCH  22  24
ATOM     24  C   UNL     1      -4.526  12.088  19.167  0.00  0.00    +0.000 A 
ATOM     25  C   UNL     1      -5.237  11.450  18.132  0.00  0.00    +0.000 A 
ATOM     26  C   UNL     1      -6.592  11.146  18.259  0.00  0.00    +0.000 A 
ATOM     27  C   UNL     1      -7.253  11.436  19.440  0.00  0.00    +0.000 A 
ATOM     28  C   UNL     1      -6.565  12.064  20.481  0.00  0.00    +0.000 A 
ATOM     29  C   UNL     1      -5.206  12.448  20.367  0.00  0.00    +0.000 A 
BRANCH  29  30
ATOM     30  C   UNL     1      -4.584  13.188  21.506  0.00  0.00    +0.000 A 
ATOM     31  C   UNL     1      -4.031  12.537  22.614  0.00  0.00    +0.000 A 
ATOM     32  C   UNL     1      -3.345  13.211  23.625  0.00  0.00    +0.000 A 
ATOM     33  C   UNL     1      -3.282  14.593  23.615  0.00  0.00    +0.000 A 
ATOM     34  C   UNL     1      -3.892  15.285  22.578  0.00  0.00    +0.000 A 
ATOM     35  C   UNL     1      -4.518  14.592  21.531  0.00  0.00    +0.000 A 
ENDBRANCH  29  30
ENDBRANCH  22  24
ENDBRANCH  19  21
ENDBRANCH   1  19
TORSDOF 8
ENDMDL
MODEL 3
REMARK VINA RESULT:      -9.1      1.608      3.201
REMARK  Name = 
REMARK  8 active torsions:
REMARK  status: ('A' for Active; 'I' for Inactive)
REMARK    1  A    between atoms: C_2  and  C_3
REMARK    2  A    between atoms: C_3  and  O_4
REMARK    3  A    between atoms: O_4  and  C_5
REMARK    4  A    between atoms: C_10  and  C_11
REMARK    5  A    between atoms: N_13  and  C_14
REMARK    6  A    between atoms: C_14  and  C_15
REMARK    7  A    between atoms: N_21  and  C_22
REMARK    8  A    between atoms: C_27  and  C_28
REMARK                            x       y       z     vdW  Elec       q    Type
REMARK                         _______ _______ _______ _____ _____    ______ ____
ROOT
ATOM      1  O   UNL     1       0.310   9.771  19.164  0.00  0.00    +0.000 OA
ENDROOT
BRANCH   1   2
ATOM      2  C   UNL     1       0.336  11.150  19.060  0.00  0.00    +0.000 A 
ATOM      3  C   UNL     1       1.475  11.903  19.404  0.00  0.00    +0.000 A 
ATOM      4  C   UNL     1       1.509  13.292  19.244  0.00  0.00    +0.000 A 
ATOM      5  C   UNL     1       0.414  13.957  18.714  0.00  0.00    +0.000 A 
ATOM      6  C   UNL     1      -0.721  13.231  18.364  0.00  0.00    +0.000 A 
ATOM      7  C   UNL     1      -0.788  11.833  18.541  0.00  0.00    +0.000 A 
BRANCH   7   8
ATOM      8  C   UNL     1      -2.106  11.215  18.179  0.00  0.00    +0.000 C 
ATOM      9  O   UNL     1      -2.191  10.002  18.007  0.00  0.00    +0.000 OA
ATOM     10  N   UNL     1      -3.181  12.049  18.019  0.00  0.00    +0.000 N 
ATOM     11  H   UNL     1      -3.051  13.040  18.176  0.00  0.00    +0.000 HD
BRANCH  10  12
ATOM     12  C   UNL     1      -4.497  11.564  17.657  0.00  0.00    +0.000 C 
BRANCH  12  13
ATOM     13  C   UNL     1      -5.426  11.617  18.833  0.00  0.00    +0.000 A 
ATOM     14  C   UNL     1      -6.592  10.844  18.812  0.00  0.00    +0.000 A 
ATOM     15  C   UNL     1      -7.464  10.857  19.898  0.00  0.00    +0.000 A 
ATOM     16  C   UNL     1      -7.188  11.655  21.005  0.00  0.00    +0.000 A 
ATOM     17  C   UNL     1      -6.043  12.450  21.023  0.00  0.00    +0.000 A 
ATOM     18  C   UNL     1      -5.162  12.435  19.943  0.00  0.00    +0.000 A 
ENDBRANCH  12  13
ENDBRANCH  10  12
ENDBRANCH   7   8
ENDBRANCH   1   2
BRANCH   1  19
ATOM     19  C   UNL     1       1.564   9.149  19.464  0.00  0.00    +0.000 C 
BRANCH  19  21
ATOM     20  O   UNL     1       2.109   8.845  17.149  0.00  0.00    +0.000 OA
ATOM     21  C   UNL     1       2.199   8.395  18.288  0.00  0.00    +0.000 C 
ATOM     22  N   UNL     1       2.812   7.207  18.655  0.00  0.00    +0.000 N 
ATOM     23  H   UNL     1       2.828   7.006  19.646  0.00  0.00    +0.000 HD
BRANCH  22  24
ATOM     24  C   UNL     1       3.616   6.381  17.818  0.00  0.00    +0.000 A 
ATOM     25  C   UNL     1       4.446   6.978  16.851  0.00  0.00    +0.000 A 
ATOM     26  C   UNL     1       5.243   6.209  16.002  0.00  0.00    +0.000 A 
ATOM     27  C   UNL     1       5.256   4.832  16.134  0.00  0.00    +0.000 A 
ATOM     28  C   UNL     1       4.444   4.221  17.091  0.00  0.00    +0.000 A 
ATOM     29  C   UNL     1       3.572   4.961  17.928  0.00  0.00    +0.000 A 
BRANCH  29  30
ATOM     30  C   UNL     1       2.683   4.208  18.863  0.00  0.00    +0.000 A 
ATOM     31  C   UNL     1       1.524   3.553  18.434  0.00  0.00    +0.000 A 
ATOM     32  C   UNL     1       0.751   2.752  19.276  0.00  0.00    +0.000 A 
ATOM     33  C   UNL     1       1.057   2.665  20.622  0.00  0.00    +0.000 A 
ATOM     34  C   UNL     1       2.151   3.369  21.107  0.00  0.00    +0.000 A 
ATOM     35  C   UNL     1       2.961   4.114  20.238  0.00  0.00    +0.000 A 
ENDBRANCH  29  30
ENDBRANCH  22  24
ENDBRANCH  19  21
ENDBRANCH   1  19
TORSDOF 8
ENDMDL
MODEL 4
REMARK VINA RESULT:      -9.0      3.256      5.677
REMARK  Name = 
REMARK  8 active torsions:
REMARK  status: ('A' for Active; 'I' for Inactive)
REMARK    1  A    between atoms: C_2  and  C_3
REMARK    2  A    between atoms: C_3  and  O_4
REMARK    3  A    between atoms: O_4  and  C_5
REMARK    4  A    between atoms: C_10  and  C_11
REMARK    5  A    between atoms: N_13  and  C_14
REMARK    6  A    between atoms: C_14  and  C_15
REMARK    7  A    between atoms: N_21  and  C_22
REMARK    8  A    between atoms: C_27  and  C_28
REMARK                            x       y       z     vdW  Elec       q    Type
REMARK                         _______ _______ _______ _____ _____    ______ ____
ROOT
ATOM      1  O   UNL     1       0.368   9.318  19.535  0.00  0.00    +0.000 OA
ENDROOT
BRANCH   1   2
ATOM      2  C   UNL     1      -0.164   9.757  20.734  0.00  0.00    +0.000 A 
ATOM      3  C   UNL     1      -0.181   8.945  21.885  0.00  0.00    +0.000 A 
ATOM      4  C   UNL     1      -0.672   9.418  23.106  0.00  0.00    +0.000 A 
ATOM      5  C   UNL     1      -1.136  10.720  23.210  0.00  0.00    +0.000 A 
ATOM      6  C   UNL     1      -1.126  11.541  22.086  0.00  0.00    +0.000 A 
ATOM      7  C   UNL     1      -0.659  11.077  20.838  0.00  0.00    +0.000 A 
BRANCH   7   8
ATOM      8  C   UNL     1      -0.780  12.065  19.715  0.00  0.00    +0.000 C 
ATOM      9  O   UNL     1      -1.554  11.849  18.786  0.00  0.00    +0.000 OA
ATOM     10  N   UNL     1       0.016  13.179  19.754  0.00  0.00    +0.000 N 
ATOM     11  H   UNL     1       0.633  13.304  20.546  0.00  0.00    +0.000 HD
BRANCH  10  12
ATOM     12  C   UNL     1      -0.008  14.191  18.717  0.00  0.00    +0.000 C 
BRANCH  12  13
ATOM     13  C   UNL     1       1.350  14.805  18.543  0.00  0.00    +0.000 A 
ATOM     14  C   UNL     1       2.450  13.968  18.330  0.00  0.00    +0.000 A 
ATOM     15  C   UNL     1       3.720  14.509  18.144  0.00  0.00    +0.000 A 
ATOM     16  C   UNL     1       3.903  15.889  18.190  0.00  0.00    +0.000 A 
ATOM     17  C   UNL     1       2.818  16.729  18.430  0.00  0.00    +0.000 A 
ATOM     18  C   UNL     1       1.543  16.194  18.608  0.00  0.00    +0.000 A 
ENDBRANCH  12  13
ENDBRANCH  10  12
ENDBRANCH   7   8
ENDBRANCH   1   2
BRANCH   1  19
ATOM     19  C   UNL     1       1.789   9.144  19.515  0.00  0.00    +0.000 C 
BRANCH  19  21
ATOM     20  O   UNL     1       2.130   8.796  17.167  0.00  0.00    +0.000 OA
ATOM     21  C   UNL     1       2.319   8.368  18.302  0.00  0.00    +0.000 C 
ATOM     22  N   UNL     1       2.960   7.185  18.636  0.00  0.00    +0.000 N 
ATOM     23  H   UNL     1       3.063   7.002  19.626  0.00  0.00    +0.000 HD
BRANCH  22  24
ATOM     24  C   UNL     1       3.687   6.342  17.748  0.00  0.00    +0.000 A 
ATOM     25  C   UNL     1       4.487   6.921  16.745  0.00  0.00    +0.000 A 
ATOM     26  C   UNL     1       5.209   6.136  15.845  0.00  0.00    +0.000 A 
ATOM     27  C   UNL     1       5.177   4.758  15.960  0.00  0.00    +0.000 A 
ATOM     28  C   UNL     1       4.395   4.164  16.952  0.00  0.00    +0.000 A 
ATOM     29  C   UNL     1       3.597   4.923  17.843  0.00  0.00    +0.000 A 
BRANCH  29  30
ATOM     30  C   UNL     1       2.731   4.190  18.815  0.00  0.00    +0.000 A 
ATOM     31  C   UNL     1       3.079   4.030  20.160  0.00  0.00    +0.000 A 
ATOM     32  C   UNL     1       2.226   3.450  21.100  0.00  0.00    +0.000 A 
ATOM     33  C   UNL     1       1.021   2.905  20.697  0.00  0.00    +0.000 A 
ATOM     34  C   UNL     1       0.673   2.965  19.354  0.00  0.00    +0.000 A 
ATOM     35  C   UNL     1       1.508   3.613  18.431  0.00  0.00    +0.000 A 
ENDBRANCH  29  30
ENDBRANCH  22  24
ENDBRANCH  19  21
ENDBRANCH   1  19
TORSDOF 8
ENDMDL
MODEL 5
REMARK VINA RESULT:      -8.9      2.668      9.887
REMARK  Name = 
REMARK  8 active torsions:
REMARK  status: ('A' for Active; 'I' for Inactive)
REMARK    1  A    between atoms: C_2  and  C_3
REMARK    2  A    between atoms: C_3  and  O_4
REMARK    3  A    between atoms: O_4  and  C_5
REMARK    4  A    between atoms: C_10  and  C_11
REMARK    5  A    between atoms: N_13  and  C_14
REMARK    6  A    between atoms: C_14  and  C_15
REMARK    7  A    between atoms: N_21  and  C_22
REMARK    8  A    between atoms: C_27  and  C_28
REMARK                            x       y       z     vdW  Elec       q    Type
REMARK                         _______ _______ _______ _____ _____    ______ ____
ROOT
ATOM      1  O   UNL     1      -0.074  10.372  18.917  0.00  0.00    +0.000 OA
ENDROOT
BRANCH   1   2
ATOM      2  C   UNL     1       0.057  10.129  20.272  0.00  0.00    +0.000 A 
ATOM      3  C   UNL     1      -0.651  10.873  21.236  0.00  0.00    +0.000 A 
ATOM      4  C   UNL     1      -0.552  10.583  22.601  0.00  0.00    +0.000 A 
ATOM      5  C   UNL     1       0.238   9.528  23.031  0.00  0.00    +0.000 A 
ATOM      6  C   UNL     1       0.943   8.777  22.095  0.00  0.00    +0.000 A 
ATOM      7  C   UNL     1       0.879   9.068  20.715  0.00  0.00    +0.000 A 
BRANCH   7   8
ATOM      8  C   UNL     1       1.753   8.208  19.850  0.00  0.00    +0.000 C 
ATOM      9  O   UNL     1       2.031   8.565  18.709  0.00  0.00    +0.000 OA
ATOM     10  N   UNL     1       2.191   7.018  20.367  0.00  0.00    +0.000 N 
ATOM     11  H   UNL     1       1.931   6.778  21.315  0.00  0.00    +0.000 HD
BRANCH  10  12
ATOM     12  C   UNL     1       3.027   6.103  19.617  0.00  0.00    +0.000 C 
BRANCH  12  13
ATOM     13  C   UNL     1       2.303   4.816  19.353  0.00  0.00    +0.000 A 
ATOM     14  C   UNL     1       2.515   4.156  18.138  0.00  0.00    +0.000 A 
ATOM     15  C   UNL     1       1.873   2.949  17.871  0.00  0.00    +0.000 A 
ATOM     16  C   UNL     1       0.999   2.402  18.809  0.00  0.00    +0.000 A 
ATOM     17  C   UNL     1       0.760   3.068  20.009  0.00  0.00    +0.000 A 
ATOM     18  C   UNL     1       1.406   4.272  20.285  0.00  0.00    +0.000 A 
ENDBRANCH  12  13
ENDBRANCH  10  12
ENDBRANCH   7   8
ENDBRANCH   1   2
BRANCH   1  19
ATOM     19  C   UNL     1      -1.358  10.079  18.357  0.00  0.00    +0.000 C 
BRANCH  19  21
ATOM     20  O   UNL     1      -1.838  12.320  17.652  0.00  0.00    +0.000 OA
ATOM     21  C   UNL     1      -2.271  11.300  18.180  0.00  0.00    +0.000 C 
ATOM     22  N   UNL     1      -3.546  11.120  18.695  0.00  0.00    +0.000 N 
ATOM     23  H   UNL     1      -3.748  10.199  19.062  0.00  0.00    +0.000 HD
BRANCH  22  24
ATOM     24  C   UNL     1      -4.649  12.006  18.537  0.00  0.00    +0.000 A 
ATOM     25  C   UNL     1      -5.422  11.947  17.362  0.00  0.00    +0.000 A 
ATOM     26  C   UNL     1      -6.505  12.803  17.159  0.00  0.00    +0.000 A 
ATOM     27  C   UNL     1      -6.861  13.704  18.146  0.00  0.00    +0.000 A 
ATOM     28  C   UNL     1      -6.112  13.774  19.323  0.00  0.00    +0.000 A 
ATOM     29  C   UNL     1      -4.967  12.969  19.540  0.00  0.00    +0.000 A 
BRANCH  29  30
ATOM     30  C   UNL     1      -4.184  13.178  20.795  0.00  0.00    +0.000 A 
ATOM     31  C   UNL     1      -4.571  12.631  22.022  0.00  0.00    +0.000 A 
ATOM     32  C   UNL     1      -3.789  12.722  23.173  0.00  0.00    +0.000 A 
ATOM     33  C   UNL     1      -2.624  13.468  23.161  0.00  0.00    +0.000 A 
ATOM     34  C   UNL     1      -2.246  14.101  21.985  0.00  0.00    +0.000 A 
ATOM     35  C   UNL     1      -3.005  13.944  20.816  0.00  0.00    +0.000 A 
ENDBRANCH  29  30
ENDBRANCH  22  24
ENDBRANCH  19  21
ENDBRANCH   1  19
TORSDOF 8
ENDMDL
MODEL 6
REMARK VINA RESULT:      -8.9      3.431      5.796
REMARK  Name = 
REMARK  8 active torsions:
REMARK  status: ('A' for Active; 'I' for Inactive)
REMARK    1  A    between atoms: C_2  and  C_3
REMARK    2  A    between atoms: C_3  and  O_4
REMARK    3  A    between atoms: O_4  and  C_5
REMARK    4  A    between atoms: C_10  and  C_11
REMARK    5  A    between atoms: N_13  and  C_14
REMARK    6  A    between atoms: C_14  and  C_15
REMARK    7  A    between atoms: N_21  and  C_22
REMARK    8  A    between atoms: C_27  and  C_28
REMARK                            x       y       z     vdW  Elec       q    Type
REMARK                         _______ _______ _______ _____ _____    ______ ____
ROOT
ATOM      1  O   UNL     1       1.085   9.896  19.770  0.00  0.00    +0.000 OA
ENDROOT
BRANCH   1   2
ATOM      2  C   UNL     1       0.278  10.267  20.830  0.00  0.00    +0.000 A 
ATOM      3  C   UNL     1       0.101   9.442  21.957  0.00  0.00    +0.000 A 
ATOM      4  C   UNL     1      -0.675   9.851  23.048  0.00  0.00    +0.000 A 
ATOM      5  C   UNL     1      -1.271  11.102  23.045  0.00  0.00    +0.000 A 
ATOM      6  C   UNL     1      -1.106  11.935  21.942  0.00  0.00    +0.000 A 
ATOM      7  C   UNL     1      -0.350  11.533  20.820  0.00  0.00    +0.000 A 
BRANCH   7   8
ATOM      8  C   UNL     1      -0.330  12.520  19.690  0.00  0.00    +0.000 C 
ATOM      9  O   UNL     1      -0.828  12.226  18.607  0.00  0.00    +0.000 OA
ATOM     10  N   UNL     1       0.283  13.726  19.904  0.00  0.00    +0.000 N 
ATOM     11  H   UNL     1       0.674  13.913  20.819  0.00  0.00    +0.000 HD
BRANCH  10  12
ATOM     12  C   UNL     1       0.374  14.747  18.881  0.00  0.00    +0.000 C 
BRANCH  12  13
ATOM     13  C   UNL     1       1.806  15.031  18.539  0.00  0.00    +0.000 A 
ATOM     14  C   UNL     1       2.190  16.348  18.265  0.00  0.00    +0.000 A 
ATOM     15  C   UNL     1       3.517  16.646  17.963  0.00  0.00    +0.000 A 
ATOM     16  C   UNL     1       4.466  15.628  17.914  0.00  0.00    +0.000 A 
ATOM     17  C   UNL     1       4.088  14.309  18.157  0.00  0.00    +0.000 A 
ATOM     18  C   UNL     1       2.763  14.006  18.468  0.00  0.00    +0.000 A 
ENDBRANCH  12  13
ENDBRANCH  10  12
ENDBRANCH   7   8
ENDBRANCH   1   2
BRANCH   1  19
ATOM     19  C   UNL     1       1.698   8.607  19.879  0.00  0.00    +0.000 C 
BRANCH  19  21
ATOM     20  O   UNL     1       2.029   8.632  17.504  0.00  0.00    +0.000 OA
ATOM     21  C   UNL     1       2.263   8.055  18.563  0.00  0.00    +0.000 C 
ATOM     22  N   UNL     1       2.989   6.885  18.717  0.00  0.00    +0.000 N 
ATOM     23  H   UNL     1       3.118   6.567  19.669  0.00  0.00    +0.000 HD
BRANCH  22  24
ATOM     24  C   UNL     1       3.760   6.235  17.713  0.00  0.00    +0.000 A 
ATOM     25  C   UNL     1       4.525   7.008  16.819  0.00  0.00    +0.000 A 
ATOM     26  C   UNL     1       5.288   6.417  15.812  0.00  0.00    +0.000 A 
ATOM     27  C   UNL     1       5.333   5.038  15.706  0.00  0.00    +0.000 A 
ATOM     28  C   UNL     1       4.586   4.252  16.587  0.00  0.00    +0.000 A 
ATOM     29  C   UNL     1       3.748   4.815  17.580  0.00  0.00    +0.000 A 
BRANCH  29  30
ATOM     30  C   UNL     1       2.925   3.891  18.418  0.00  0.00    +0.000 A 
ATOM     31  C   UNL     1       3.357   3.417  19.660  0.00  0.00    +0.000 A 
ATOM     32  C   UNL     1       2.551   2.649  20.501  0.00  0.00    +0.000 A 
ATOM     33  C   UNL     1       1.303   2.234  20.072  0.00  0.00    +0.000 A 
ATOM     34  C   UNL     1       0.868   2.610  18.809  0.00  0.00    +0.000 A 
ATOM     35  C   UNL     1       1.660   3.441  18.002  0.00  0.00    +0.000 A 
ENDBRANCH  29  30
ENDBRANCH  22  24
ENDBRANCH  19  21
ENDBRANCH   1  19
TORSDOF 8
ENDMDL
MODEL 7
REMARK VINA RESULT:      -8.9      3.053      3.538
REMARK  Name = 
REMARK  8 active torsions:
REMARK  status: ('A' for Active; 'I' for Inactive)
REMARK    1  A    between atoms: C_2  and  C_3
REMARK    2  A    between atoms: C_3  and  O_4
REMARK    3  A    between atoms: O_4  and  C_5
REMARK    4  A    between atoms: C_10  and  C_11
REMARK    5  A    between atoms: N_13  and  C_14
REMARK    6  A    between atoms: C_14  and  C_15
REMARK    7  A    between atoms: N_21  and  C_22
REMARK    8  A    between atoms: C_27  and  C_28
REMARK                            x       y       z     vdW  Elec       q    Type
REMARK                         _______ _______ _______ _____ _____    ______ ____
ROOT
ATOM      1  O   UNL     1       1.271   9.797  18.871  0.00  0.00    +0.000 OA
ENDROOT
BRANCH   1   2
ATOM      2  C   UNL     1       1.451  11.168  18.815  0.00  0.00    +0.000 A 
ATOM      3  C   UNL     1       2.464  11.755  18.033  0.00  0.00    +0.000 A 
ATOM      4  C   UNL     1       2.603  13.144  17.941  0.00  0.00    +0.000 A 
ATOM      5  C   UNL     1       1.719  13.976  18.609  0.00  0.00    +0.000 A 
ATOM      6  C   UNL     1       0.708  13.416  19.385  0.00  0.00    +0.000 A 
ATOM      7  C   UNL     1       0.564  12.018  19.514  0.00  0.00    +0.000 A 
BRANCH   7   8
ATOM      8  C   UNL     1      -0.531  11.581  20.441  0.00  0.00    +0.000 C 
ATOM      9  O   UNL     1      -1.630  11.267  19.991  0.00  0.00    +0.000 OA
ATOM     10  N   UNL     1      -0.269  11.578  21.785  0.00  0.00    +0.000 N 
ATOM     11  H   UNL     1       0.656  11.845  22.097  0.00  0.00    +0.000 HD
BRANCH  10  12
ATOM     12  C   UNL     1      -1.255  11.188  22.771  0.00  0.00    +0.000 C 
BRANCH  12  13
ATOM     13  C   UNL     1      -1.994  12.387  23.287  0.00  0.00    +0.000 A 
ATOM     14  C   UNL     1      -1.307  13.597  23.430  0.00  0.00    +0.000 A 
ATOM     15  C   UNL     1      -1.971  14.734  23.887  0.00  0.00    +0.000 A 
ATOM     16  C   UNL     1      -3.321  14.665  24.222  0.00  0.00    +0.000 A 
ATOM     17  C   UNL     1      -4.006  13.457  24.111  0.00  0.00    +0.000 A 
ATOM     18  C   UNL     1      -3.350  12.318  23.646  0.00  0.00    +0.000 A 
ENDBRANCH  12  13
ENDBRANCH  10  12
ENDBRANCH   7   8
ENDBRANCH   1   2
BRANCH   1  19
ATOM     19  C   UNL     1       2.216   9.018  18.131  0.00  0.00    +0.000 C 
BRANCH  19  21
ATOM     20  O   UNL     1       2.253   7.342  19.846  0.00  0.00    +0.000 OA
ATOM     21  C   UNL     1       2.412   7.588  18.654  0.00  0.00    +0.000 C 
ATOM     22  N   UNL     1       2.799   6.686  17.674  0.00  0.00    +0.000 N 
ATOM     23  H   UNL     1       2.844   7.050  16.731  0.00  0.00    +0.000 HD
BRANCH  22  24
ATOM     24  C   UNL     1       2.898   5.274  17.824  0.00  0.00    +0.000 A 
ATOM     25  C   UNL     1       1.726   4.494  17.826  0.00  0.00    +0.000 A 
ATOM     26  C   UNL     1       1.774   3.108  17.980  0.00  0.00    +0.000 A 
ATOM     27  C   UNL     1       2.998   2.472  18.092  0.00  0.00    +0.000 A 
ATOM     28  C   UNL     1       4.173   3.227  18.086  0.00  0.00    +0.000 A 
ATOM     29  C   UNL     1       4.164   4.641  17.997  0.00  0.00    +0.000 A 
BRANCH  29  30
ATOM     30  C   UNL     1       5.469   5.362  18.083  0.00  0.00    +0.000 A 
ATOM     31  C   UNL     1       5.927   6.212  17.071  0.00  0.00    +0.000 A 
ATOM     32  C   UNL     1       7.086   6.978  17.191  0.00  0.00    +0.000 A 
ATOM     33  C   UNL     1       7.897   6.837  18.303  0.00  0.00    +0.000 A 
ATOM     34  C   UNL     1       7.525   5.939  19.294  0.00  0.00    +0.000 A 
ATOM     35  C   UNL     1       6.321   5.226  19.193  0.00  0.00    +0.000 A 
ENDBRANCH  29  30
ENDBRANCH  22  24
ENDBRANCH  19  21
ENDBRANCH   1  19
TORSDOF 8
ENDMDL
MODEL 8
REMARK VINA RESULT:      -8.9      2.222      5.228
REMARK  Name = 
REMARK  8 active torsions:
REMARK  status: ('A' for Active; 'I' for Inactive)
REMARK    1  A    between atoms: C_2  and  C_3
REMARK    2  A    between atoms: C_3  and  O_4
REMARK    3  A    between atoms: O_4  and  C_5
REMARK    4  A    between atoms: C_10  and  C_11
REMARK    5  A    between atoms: N_13  and  C_14
REMARK    6  A    between atoms: C_14  and  C_15
REMARK    7  A    between atoms: N_21  and  C_22
REMARK    8  A    between atoms: C_27  and  C_28
REMARK                            x       y       z     vdW  Elec       q    Type
REMARK                         _______ _______ _______ _____ _____    ______ ____
ROOT
ATOM      1  O   UNL     1       1.321   9.807  19.046  0.00  0.00    +0.000 OA
ENDROOT
BRANCH   1   2
ATOM      2  C   UNL     1       0.134  10.302  18.538  0.00  0.00    +0.000 A 
ATOM      3  C   UNL     1      -0.651   9.569  17.628  0.00  0.00    +0.000 A 
ATOM      4  C   UNL     1      -1.877  10.056  17.162  0.00  0.00    +0.000 A 
ATOM      5  C   UNL     1      -2.356  11.276  17.613  0.00  0.00    +0.000 A 
ATOM      6  C   UNL     1      -1.598  12.015  18.516  0.00  0.00    +0.000 A 
ATOM      7  C   UNL     1      -0.346  11.556  18.980  0.00  0.00    +0.000 A 
BRANCH   7   8
ATOM      8  C   UNL     1       0.372  12.504  19.894  0.00  0.00    +0.000 C 
ATOM      9  O   UNL     1      -0.262  13.197  20.685  0.00  0.00    +0.000 OA
ATOM     10  N   UNL     1       1.735  12.585  19.789  0.00  0.00    +0.000 N 
ATOM     11  H   UNL     1       2.204  11.988  19.120  0.00  0.00    +0.000 HD
BRANCH  10  12
ATOM     12  C   UNL     1       2.529  13.475  20.610  0.00  0.00    +0.000 C 
BRANCH  12  13
ATOM     13  C   UNL     1       3.120  14.578  19.782  0.00  0.00    +0.000 A 
ATOM     14  C   UNL     1       3.244  14.396  18.401  0.00  0.00    +0.000 A 
ATOM     15  C   UNL     1       3.770  15.409  17.602  0.00  0.00    +0.000 A 
ATOM     16  C   UNL     1       4.194  16.604  18.181  0.00  0.00    +0.000 A 
ATOM     17  C   UNL     1       4.101  16.782  19.560  0.00  0.00    +0.000 A 
ATOM     18  C   UNL     1       3.567  15.775  20.363  0.00  0.00    +0.000 A 
ENDBRANCH  12  13
ENDBRANCH  10  12
ENDBRANCH   7   8
ENDBRANCH   1   2
BRANCH   1  19
ATOM     19  C   UNL     1       2.072   8.969  18.162  0.00  0.00    +0.000 C 
BRANCH  19  21
ATOM     20  O   UNL     1       2.187   7.300  19.880  0.00  0.00    +0.000 OA
ATOM     21  C   UNL     1       2.315   7.546  18.684  0.00  0.00    +0.000 C 
ATOM     22  N   UNL     1       2.706   6.652  17.699  0.00  0.00    +0.000 N 
ATOM     23  H   UNL     1       2.723   7.014  16.754  0.00  0.00    +0.000 HD
BRANCH  22  24
ATOM     24  C   UNL     1       2.845   5.243  17.850  0.00  0.00    +0.000 A 
ATOM     25  C   UNL     1       1.693   4.434  17.881  0.00  0.00    +0.000 A 
ATOM     26  C   UNL     1       1.780   3.050  18.037  0.00  0.00    +0.000 A 
ATOM     27  C   UNL     1       3.022   2.446  18.123  0.00  0.00    +0.000 A 
ATOM     28  C   UNL     1       4.177   3.231  18.088  0.00  0.00    +0.000 A 
ATOM     29  C   UNL     1       4.130   4.643  17.996  0.00  0.00    +0.000 A 
BRANCH  29  30
ATOM     30  C   UNL     1       5.418   5.398  18.050  0.00  0.00    +0.000 A 
ATOM     31  C   UNL     1       5.777   6.342  17.083  0.00  0.00    +0.000 A 
ATOM     32  C   UNL     1       6.921   7.134  17.186  0.00  0.00    +0.000 A 
ATOM     33  C   UNL     1       7.814   6.929  18.222  0.00  0.00    +0.000 A 
ATOM     34  C   UNL     1       7.540   5.942  19.159  0.00  0.00    +0.000 A 
ATOM     35  C   UNL     1       6.351   5.200  19.083  0.00  0.00    +0.000 A 
ENDBRANCH  29  30
ENDBRANCH  22  24
ENDBRANCH  19  21
ENDBRANCH   1  19
TORSDOF 8
ENDMDL
MODEL 9
REMARK VINA RESULT:      -8.8      2.748      9.738
REMARK  Name = 
REMARK  8 active torsions:
REMARK  status: ('A' for Active; 'I' for Inactive)
REMARK    1  A    between atoms: C_2  and  C_3
REMARK    2  A    between atoms: C_3  and  O_4
REMARK    3  A    between atoms: O_4  and  C_5
REMARK    4  A    between atoms: C_10  and  C_11
REMARK    5  A    between atoms: N_13  and  C_14
REMARK    6  A    between atoms: C_14  and  C_15
REMARK    7  A    between atoms: N_21  and  C_22
REMARK    8  A    between atoms: C_27  and  C_28
REMARK                            x       y       z     vdW  Elec       q    Type
REMARK                         _______ _______ _______ _____ _____    ______ ____
ROOT
ATOM      1  O   UNL     1       0.067  10.618  18.729  0.00  0.00    +0.000 OA
ENDROOT
BRANCH   1   2
ATOM      2  C   UNL     1       0.038  10.420  20.098  0.00  0.00    +0.000 A 
ATOM      3  C   UNL     1      -0.709  11.250  20.956  0.00  0.00    +0.000 A 
ATOM      4  C   UNL     1      -0.774  11.008  22.332  0.00  0.00    +0.000 A 
ATOM      5  C   UNL     1      -0.113   9.919  22.878  0.00  0.00    +0.000 A 
ATOM      6  C   UNL     1       0.628   9.084  22.047  0.00  0.00    +0.000 A 
ATOM      7  C   UNL     1       0.730   9.323  20.659  0.00  0.00    +0.000 A 
BRANCH   7   8
ATOM      8  C   UNL     1       1.622   8.370  19.920  0.00  0.00    +0.000 C 
ATOM      9  O   UNL     1       1.886   8.565  18.737  0.00  0.00    +0.000 OA
ATOM     10  N   UNL     1       2.094   7.278  20.599  0.00  0.00    +0.000 N 
ATOM     11  H   UNL     1       1.845   7.171  21.574  0.00  0.00    +0.000 HD
BRANCH  10  12
ATOM     12  C   UNL     1       2.951   6.286  19.983  0.00  0.00    +0.000 C 
BRANCH  12  13
ATOM     13  C   UNL     1       2.182   5.036  19.677  0.00  0.00    +0.000 A 
ATOM     14  C   UNL     1       2.029   4.643  18.343  0.00  0.00    +0.000 A 
ATOM     15  C   UNL     1       1.338   3.475  18.029  0.00  0.00    +0.000 A 
ATOM     16  C   UNL     1       0.778   2.702  19.043  0.00  0.00    +0.000 A 
ATOM     17  C   UNL     1       0.900   3.101  20.373  0.00  0.00    +0.000 A 
ATOM     18  C   UNL     1       1.599   4.264  20.694  0.00  0.00    +0.000 A 
ENDBRANCH  12  13
ENDBRANCH  10  12
ENDBRANCH   7   8
ENDBRANCH   1   2
BRANCH   1  19
ATOM     19  C   UNL     1      -0.863  11.582  18.223  0.00  0.00    +0.000 C 
BRANCH  19  21
ATOM     20  O   UNL     1      -2.650   9.989  18.086  0.00  0.00    +0.000 OA
ATOM     21  C   UNL     1      -2.334  11.154  18.309  0.00  0.00    +0.000 C 
ATOM     22  N   UNL     1      -3.199  12.195  18.613  0.00  0.00    +0.000 N 
ATOM     23  H   UNL     1      -2.764  13.088  18.806  0.00  0.00    +0.000 HD
BRANCH  22  24
ATOM     24  C   UNL     1      -4.585  12.075  18.915  0.00  0.00    +0.000 A 
ATOM     25  C   UNL     1      -5.470  11.605  17.926  0.00  0.00    +0.000 A 
ATOM     26  C   UNL     1      -6.838  11.482  18.172  0.00  0.00    +0.000 A 
ATOM     27  C   UNL     1      -7.339  11.787  19.426  0.00  0.00    +0.000 A 
ATOM     28  C   UNL     1      -6.477  12.249  20.422  0.00  0.00    +0.000 A 
ATOM     29  C   UNL     1      -5.094  12.450  20.193  0.00  0.00    +0.000 A 
BRANCH  29  30
ATOM     30  C   UNL     1      -4.271  13.027  21.299  0.00  0.00    +0.000 A 
ATOM     31  C   UNL     1      -3.403  14.106  21.106  0.00  0.00    +0.000 A 
ATOM     32  C   UNL     1      -2.719  14.725  22.152  0.00  0.00    +0.000 A 
ATOM     33  C   UNL     1      -2.800  14.209  23.433  0.00  0.00    +0.000 A 
ATOM     34  C   UNL     1      -3.585  13.085  23.655  0.00  0.00    +0.000 A 
ATOM     35  C   UNL     1      -4.322  12.514  22.607  0.00  0.00    +0.000 A 
ENDBRANCH  29  30
ENDBRANCH  22  24
ENDBRANCH  19  21
ENDBRANCH   1  19
TORSDOF 8
ENDMDL
