MODEL 1
REMARK VINA RESULT:      -9.0      0.000      0.000
REMARK  Name = 
REMARK  3 active torsions:
REMARK  status: ('A' for Active; 'I' for Inactive)
REMARK    1  A    between atoms: C_1  and  C_2
REMARK    2  A    between atoms: C_9  and  N_10
REMARK    3  A    between atoms: C_11  and  C_13
REMARK                            x       y       z     vdW  Elec       q    Type
REMARK                         _______ _______ _______ _____ _____    ______ ____
ROOT
ATOM      1  N   UNL     1       2.195   7.603  19.354  0.00  0.00    +0.000 N 
ATOM      2  C   UNL     1       2.747   7.640  18.087  0.00  0.00    +0.000 C 
ATOM      3  O   UNL     1       2.579   8.538  17.267  0.00  0.00    +0.000 OA
ATOM      4  H   UNL     1       2.425   6.779  19.912  0.00  0.00    +0.000 HD
ENDROOT
BRANCH   1  13
ATOM      5  C   UNL     1      -1.711  13.161  20.146  0.00  0.00    +0.000 C 
ATOM      6  C   UNL     1      -1.737  12.603  21.540  0.00  0.00    +0.000 C 
ATOM      7  O   UNL     1      -2.375  13.201  22.413  0.00  0.00    +0.000 OA
ATOM      8  N   UNL     1      -1.064  11.435  21.817  0.00  0.00    +0.000 N 
ATOM      9  C   UNL     1      -1.180  10.849  23.162  0.00  0.00    +0.000 C 
ATOM     10  C   UNL     1      -0.233   9.656  23.235  0.00  0.00    +0.000 C 
ATOM     11  C   UNL     1       0.188   9.526  21.808  0.00  0.00    +0.000 A 
ATOM     12  C   UNL     1       0.995   8.520  21.297  0.00  0.00    +0.000 A 
ATOM     13  C   UNL     1       1.369   8.569  19.958  0.00  0.00    +0.000 A 
ATOM     14  C   UNL     1       0.912   9.632  19.161  0.00  0.00    +0.000 A 
ATOM     15  C   UNL     1       0.089  10.642  19.689  0.00  0.00    +0.000 A 
ATOM     16  C   UNL     1      -0.274  10.583  21.023  0.00  0.00    +0.000 A 
ENDBRANCH   1  13
BRANCH   2  17
ATOM     17  C   UNL     1       3.624   6.493  17.691  0.00  0.00    +0.000 A 
ATOM     18  C   UNL     1       4.927   6.830  17.269  0.00  0.00    +0.000 A 
ATOM     19  C   UNL     1       5.837   5.846  16.908  0.00  0.00    +0.000 A 
ATOM     20  C   UNL     1       5.450   4.514  16.970  0.00  0.00    +0.000 A 
ATOM     21  C   UNL     1       4.154   4.164  17.385  0.00  0.00    +0.000 A 
ATOM     22  C   UNL     1       3.780   2.816  17.452  0.00  0.00    +0.000 A 
ATOM     23  C   UNL     1       2.502   2.464  17.863  0.00  0.00    +0.000 A 
ATOM     24  C   UNL     1       1.630   3.479  18.188  0.00  0.00    +0.000 A 
ATOM     25  N   UNL     1       1.954   4.790  18.139  0.00  0.00    +0.000 NA
ATOM     26  C   UNL     1       3.207   5.152  17.748  0.00  0.00    +0.000 A 
ENDBRANCH   2  17
TORSDOF 2
ENDMDL
MODEL 2
REMARK VINA RESULT:      -8.6      2.318      3.340
REMARK  Name = 
REMARK  3 active torsions:
REMARK  status: ('A' for Active; 'I' for Inactive)
REMARK    1  A    between atoms: C_1  and  C_2
REMARK    2  A    between atoms: C_9  and  N_10
REMARK    3  A    between atoms: C_11  and  C_13
REMARK                            x       y       z     vdW  Elec       q    Type
REMARK                         _______ _______ _______ _____ _____    ______ ____
ROOT
ATOM      1  N   UNL     1       1.977   8.321  17.825  0.00  0.00    +0.000 N 
ATOM      2  C   UNL     1       2.339   7.317  18.705  0.00  0.00    +0.000 C 
ATOM      3  O   UNL     1       2.296   7.398  19.929  0.00  0.00    +0.000 OA
ATOM      4  H   UNL     1       2.081   8.098  16.834  0.00  0.00    +0.000 HD
ENDROOT
BRANCH   1  13
ATOM      5  C   UNL     1       1.737  15.082  18.825  0.00  0.00    +0.000 C 
ATOM      6  C   UNL     1       0.337  14.696  19.206  0.00  0.00    +0.000 C 
ATOM      7  O   UNL     1      -0.448  15.576  19.574  0.00  0.00    +0.000 OA
ATOM      8  N   UNL     1      -0.049  13.377  19.126  0.00  0.00    +0.000 N 
ATOM      9  C   UNL     1      -1.451  13.029  19.407  0.00  0.00    +0.000 C 
ATOM     10  C   UNL     1      -1.568  11.509  19.386  0.00  0.00    +0.000 C 
ATOM     11  C   UNL     1      -0.227  11.117  18.858  0.00  0.00    +0.000 A 
ATOM     12  C   UNL     1       0.170   9.824  18.554  0.00  0.00    +0.000 A 
ATOM     13  C   UNL     1       1.479   9.598  18.140  0.00  0.00    +0.000 A 
ATOM     14  C   UNL     1       2.359  10.689  18.036  0.00  0.00    +0.000 A 
ATOM     15  C   UNL     1       1.942  11.997  18.341  0.00  0.00    +0.000 A 
ATOM     16  C   UNL     1       0.637  12.207  18.753  0.00  0.00    +0.000 A 
ENDBRANCH   1  13
BRANCH   2  17
ATOM     17  C   UNL     1       2.814   6.027  18.110  0.00  0.00    +0.000 A 
ATOM     18  C   UNL     1       1.900   4.954  18.155  0.00  0.00    +0.000 A 
ATOM     19  C   UNL     1       2.222   3.720  17.607  0.00  0.00    +0.000 A 
ATOM     20  C   UNL     1       3.461   3.552  17.005  0.00  0.00    +0.000 A 
ATOM     21  C   UNL     1       4.383   4.611  16.955  0.00  0.00    +0.000 A 
ATOM     22  C   UNL     1       5.626   4.431  16.336  0.00  0.00    +0.000 A 
ATOM     23  C   UNL     1       6.539   5.474  16.282  0.00  0.00    +0.000 A 
ATOM     24  C   UNL     1       6.181   6.671  16.862  0.00  0.00    +0.000 A 
ATOM     25  N   UNL     1       4.991   6.885  17.466  0.00  0.00    +0.000 NA
ATOM     26  C   UNL     1       4.079   5.875  17.518  0.00  0.00    +0.000 A 
ENDBRANCH   2  17
TORSDOF 2
ENDMDL
MODEL 3
REMARK VINA RESULT:      -8.5      2.216      3.456
REMARK  Name = 
REMARK  3 active torsions:
REMARK  status: ('A' for Active; 'I' for Inactive)
REMARK    1  A    between atoms: C_1  and  C_2
REMARK    2  A    between atoms: C_9  and  N_10
REMARK    3  A    between atoms: C_11  and  C_13
REMARK                            x       y       z     vdW  Elec       q    Type
REMARK                         _______ _______ _______ _____ _____    ______ ____
ROOT
ATOM      1  N   UNL     1       2.007   8.317  17.934  0.00  0.00    +0.000 N 
ATOM      2  C   UNL     1       2.325   7.287  18.800  0.00  0.00    +0.000 C 
ATOM      3  O   UNL     1       2.292   7.356  20.025  0.00  0.00    +0.000 OA
ATOM      4  H   UNL     1       2.095   8.102  16.940  0.00  0.00    +0.000 HD
ENDROOT
BRANCH   1  13
ATOM      5  C   UNL     1      -1.980  13.408  20.165  0.00  0.00    +0.000 C 
ATOM      6  C   UNL     1      -0.768  14.177  19.724  0.00  0.00    +0.000 C 
ATOM      7  O   UNL     1      -0.763  15.407  19.843  0.00  0.00    +0.000 OA
ATOM      8  N   UNL     1       0.316  13.502  19.210  0.00  0.00    +0.000 N 
ATOM      9  C   UNL     1       1.532  14.260  18.875  0.00  0.00    +0.000 C 
ATOM     10  C   UNL     1       2.509  13.302  18.201  0.00  0.00    +0.000 C 
ATOM     11  C   UNL     1       1.831  11.989  18.419  0.00  0.00    +0.000 A 
ATOM     12  C   UNL     1       2.350  10.750  18.073  0.00  0.00    +0.000 A 
ATOM     13  C   UNL     1       1.572   9.613  18.267  0.00  0.00    +0.000 A 
ATOM     14  C   UNL     1       0.285   9.753  18.814  0.00  0.00    +0.000 A 
ATOM     15  C   UNL     1      -0.228  11.014  19.167  0.00  0.00    +0.000 A 
ATOM     16  C   UNL     1       0.557  12.137  18.967  0.00  0.00    +0.000 A 
ENDBRANCH   1  13
BRANCH   2  17
ATOM     17  C   UNL     1       2.735   5.983  18.187  0.00  0.00    +0.000 A 
ATOM     18  C   UNL     1       1.814   4.923  18.319  0.00  0.00    +0.000 A 
ATOM     19  C   UNL     1       2.075   3.679  17.764  0.00  0.00    +0.000 A 
ATOM     20  C   UNL     1       3.260   3.485  17.069  0.00  0.00    +0.000 A 
ATOM     21  C   UNL     1       4.189   4.531  16.932  0.00  0.00    +0.000 A 
ATOM     22  C   UNL     1       5.377   4.326  16.219  0.00  0.00    +0.000 A 
ATOM     23  C   UNL     1       6.297   5.355  16.080  0.00  0.00    +0.000 A 
ATOM     24  C   UNL     1       6.001   6.564  16.669  0.00  0.00    +0.000 A 
ATOM     25  N   UNL     1       4.865   6.803  17.362  0.00  0.00    +0.000 NA
ATOM     26  C   UNL     1       3.947   5.806  17.499  0.00  0.00    +0.000 A 
ENDBRANCH   2  17
TORSDOF 2
ENDMDL
MODEL 4
REMARK VINA RESULT:      -8.5      2.198      2.478
REMARK  Name = 
REMARK  3 active torsions:
REMARK  status: ('A' for Active; 'I' for Inactive)
REMARK    1  A    between atoms: C_1  and  C_2
REMARK    2  A    between atoms: C_9  and  N_10
REMARK    3  A    between atoms: C_11  and  C_13
REMARK                            x       y       z     vdW  Elec       q    Type
REMARK                         _______ _______ _______ _____ _____    ______ ____
ROOT
ATOM      1  N   UNL     1       2.182   8.417  17.690  0.00  0.00    +0.000 N 
ATOM      2  C   UNL     1       2.574   7.389  18.528  0.00  0.00    +0.000 C 
ATOM      3  O   UNL     1       2.449   7.383  19.749  0.00  0.00    +0.000 OA
ATOM      4  H   UNL     1       2.365   8.271  16.696  0.00  0.00    +0.000 HD
ENDROOT
BRANCH   1  13
ATOM      5  C   UNL     1       1.313  15.044  19.140  0.00  0.00    +0.000 C 
ATOM      6  C   UNL     1      -0.077  14.526  19.369  0.00  0.00    +0.000 C 
ATOM      7  O   UNL     1      -0.959  15.313  19.729  0.00  0.00    +0.000 OA
ATOM      8  N   UNL     1      -0.347  13.192  19.163  0.00  0.00    +0.000 N 
ATOM      9  C   UNL     1      -1.735  12.718  19.297  0.00  0.00    +0.000 C 
ATOM     10  C   UNL     1      -1.726  11.200  19.159  0.00  0.00    +0.000 C 
ATOM     11  C   UNL     1      -0.319  10.952  18.722  0.00  0.00    +0.000 A 
ATOM     12  C   UNL     1       0.205   9.719  18.364  0.00  0.00    +0.000 A 
ATOM     13  C   UNL     1       1.558   9.625  18.050  0.00  0.00    +0.000 A 
ATOM     14  C   UNL     1       2.351  10.784  18.100  0.00  0.00    +0.000 A 
ATOM     15  C   UNL     1       1.806  12.030  18.459  0.00  0.00    +0.000 A 
ATOM     16  C   UNL     1       0.460  12.109  18.770  0.00  0.00    +0.000 A 
ENDBRANCH   1  13
BRANCH   2  17
ATOM     17  C   UNL     1       3.193   6.185  17.887  0.00  0.00    +0.000 A 
ATOM     18  C   UNL     1       4.350   6.424  17.116  0.00  0.00    +0.000 A 
ATOM     19  C   UNL     1       5.025   5.379  16.501  0.00  0.00    +0.000 A 
ATOM     20  C   UNL     1       4.549   4.084  16.656  0.00  0.00    +0.000 A 
ATOM     21  C   UNL     1       3.396   3.832  17.419  0.00  0.00    +0.000 A 
ATOM     22  C   UNL     1       2.933   2.520  17.576  0.00  0.00    +0.000 A 
ATOM     23  C   UNL     1       1.796   2.264  18.330  0.00  0.00    +0.000 A 
ATOM     24  C   UNL     1       1.149   3.338  18.900  0.00  0.00    +0.000 A 
ATOM     25  N   UNL     1       1.566   4.618  18.774  0.00  0.00    +0.000 NA
ATOM     26  C   UNL     1       2.686   4.885  18.046  0.00  0.00    +0.000 A 
ENDBRANCH   2  17
TORSDOF 2
ENDMDL
MODEL 5
REMARK VINA RESULT:      -8.5      2.221      8.199
REMARK  Name = 
REMARK  3 active torsions:
REMARK  status: ('A' for Active; 'I' for Inactive)
REMARK    1  A    between atoms: C_1  and  C_2
REMARK    2  A    between atoms: C_9  and  N_10
REMARK    3  A    between atoms: C_11  and  C_13
REMARK                            x       y       z     vdW  Elec       q    Type
REMARK                         _______ _______ _______ _____ _____    ______ ____
ROOT
ATOM      1  N   UNL     1       1.705   8.795  19.934  0.00  0.00    +0.000 N 
ATOM      2  C   UNL     1       1.079   9.675  19.070  0.00  0.00    +0.000 C 
ATOM      3  O   UNL     1       0.707   9.406  17.932  0.00  0.00    +0.000 OA
ATOM      4  H   UNL     1       1.963   9.178  20.845  0.00  0.00    +0.000 HD
ENDROOT
BRANCH   1  13
ATOM      5  C   UNL     1       4.291   3.184  17.000  0.00  0.00    +0.000 C 
ATOM      6  C   UNL     1       3.555   2.576  18.159  0.00  0.00    +0.000 C 
ATOM      7  O   UNL     1       3.574   1.350  18.305  0.00  0.00    +0.000 OA
ATOM      8  N   UNL     1       2.887   3.393  19.043  0.00  0.00    +0.000 N 
ATOM      9  C   UNL     1       2.254   2.792  20.228  0.00  0.00    +0.000 C 
ATOM     10  C   UNL     1       1.473   3.887  20.947  0.00  0.00    +0.000 C 
ATOM     11  C   UNL     1       1.926   5.104  20.210  0.00  0.00    +0.000 A 
ATOM     12  C   UNL     1       1.581   6.409  20.526  0.00  0.00    +0.000 A 
ATOM     13  C   UNL     1       2.017   7.443  19.702  0.00  0.00    +0.000 A 
ATOM     14  C   UNL     1       2.800   7.133  18.578  0.00  0.00    +0.000 A 
ATOM     15  C   UNL     1       3.150   5.806  18.271  0.00  0.00    +0.000 A 
ATOM     16  C   UNL     1       2.708   4.788  19.098  0.00  0.00    +0.000 A 
ENDBRANCH   1  13
BRANCH   2  17
ATOM     17  C   UNL     1       0.833  11.064  19.572  0.00  0.00    +0.000 A 
ATOM     18  C   UNL     1       1.324  12.109  18.762  0.00  0.00    +0.000 A 
ATOM     19  C   UNL     1       1.127  13.437  19.113  0.00  0.00    +0.000 A 
ATOM     20  C   UNL     1       0.431  13.730  20.277  0.00  0.00    +0.000 A 
ATOM     21  C   UNL     1      -0.061  12.700  21.096  0.00  0.00    +0.000 A 
ATOM     22  C   UNL     1      -0.770  13.010  22.264  0.00  0.00    +0.000 A 
ATOM     23  C   UNL     1      -1.260  11.997  23.075  0.00  0.00    +0.000 A 
ATOM     24  C   UNL     1      -1.017  10.696  22.694  0.00  0.00    +0.000 A 
ATOM     25  N   UNL     1      -0.341  10.356  21.575  0.00  0.00    +0.000 NA
ATOM     26  C   UNL     1       0.138  11.338  20.762  0.00  0.00    +0.000 A 
ENDBRANCH   2  17
TORSDOF 2
ENDMDL
MODEL 6
REMARK VINA RESULT:      -8.5      0.621      1.824
REMARK  Name = 
REMARK  3 active torsions:
REMARK  status: ('A' for Active; 'I' for Inactive)
REMARK    1  A    between atoms: C_1  and  C_2
REMARK    2  A    between atoms: C_9  and  N_10
REMARK    3  A    between atoms: C_11  and  C_13
REMARK                            x       y       z     vdW  Elec       q    Type
REMARK                         _______ _______ _______ _____ _____    ______ ____
ROOT
ATOM      1  N   UNL     1       2.115   7.729  19.061  0.00  0.00    +0.000 N 
ATOM      2  C   UNL     1       2.871   7.716  17.904  0.00  0.00    +0.000 C 
ATOM      3  O   UNL     1       2.894   8.608  17.061  0.00  0.00    +0.000 OA
ATOM      4  H   UNL     1       2.200   6.903  19.654  0.00  0.00    +0.000 HD
ENDROOT
BRANCH   1  13
ATOM      5  C   UNL     1      -1.631  11.624  23.254  0.00  0.00    +0.000 C 
ATOM      6  C   UNL     1      -1.929  12.273  21.933  0.00  0.00    +0.000 C 
ATOM      7  O   UNL     1      -2.693  13.243  21.901  0.00  0.00    +0.000 OA
ATOM      8  N   UNL     1      -1.338  11.787  20.789  0.00  0.00    +0.000 N 
ATOM      9  C   UNL     1      -1.562  12.494  19.518  0.00  0.00    +0.000 C 
ATOM     10  C   UNL     1      -0.919  11.671  18.406  0.00  0.00    +0.000 C 
ATOM     11  C   UNL     1      -0.168  10.649  19.193  0.00  0.00    +0.000 A 
ATOM     12  C   UNL     1       0.679   9.688  18.661  0.00  0.00    +0.000 A 
ATOM     13  C   UNL     1       1.255   8.749  19.511  0.00  0.00    +0.000 A 
ATOM     14  C   UNL     1       0.967   8.805  20.884  0.00  0.00    +0.000 A 
ATOM     15  C   UNL     1       0.111   9.788  21.414  0.00  0.00    +0.000 A 
ATOM     16  C   UNL     1      -0.456  10.715  20.557  0.00  0.00    +0.000 A 
ENDBRANCH   1  13
BRANCH   2  17
ATOM     17  C   UNL     1       3.735   6.515  17.668  0.00  0.00    +0.000 A 
ATOM     18  C   UNL     1       5.091   6.778  17.382  0.00  0.00    +0.000 A 
ATOM     19  C   UNL     1       5.990   5.741  17.177  0.00  0.00    +0.000 A 
ATOM     20  C   UNL     1       5.540   4.431  17.260  0.00  0.00    +0.000 A 
ATOM     21  C   UNL     1       4.191   4.154  17.541  0.00  0.00    +0.000 A 
ATOM     22  C   UNL     1       3.752   2.827  17.632  0.00  0.00    +0.000 A 
ATOM     23  C   UNL     1       2.422   2.548  17.910  0.00  0.00    +0.000 A 
ATOM     24  C   UNL     1       1.565   3.612  18.083  0.00  0.00    +0.000 A 
ATOM     25  N   UNL     1       1.950   4.905  18.006  0.00  0.00    +0.000 NA
ATOM     26  C   UNL     1       3.255   5.197  17.743  0.00  0.00    +0.000 A 
ENDBRANCH   2  17
TORSDOF 2
ENDMDL
MODEL 7
REMARK VINA RESULT:      -8.4      2.561      8.454
REMARK  Name = 
REMARK  3 active torsions:
REMARK  status: ('A' for Active; 'I' for Inactive)
REMARK    1  A    between atoms: C_1  and  C_2
REMARK    2  A    between atoms: C_9  and  N_10
REMARK    3  A    between atoms: C_11  and  C_13
REMARK                            x       y       z     vdW  Elec       q    Type
REMARK                         _______ _______ _______ _____ _____    ______ ____
ROOT
ATOM      1  N   UNL     1       1.261   8.614  20.574  0.00  0.00    +0.000 N 
ATOM      2  C   UNL     1       0.096   8.933  21.249  0.00  0.00    +0.000 C 
ATOM      3  O   UNL     1      -0.751   8.127  21.619  0.00  0.00    +0.000 OA
ATOM      4  H   UNL     1       1.858   9.404  20.327  0.00  0.00    +0.000 HD
ENDROOT
BRANCH   1  13
ATOM      5  C   UNL     1       4.186   3.612  16.941  0.00  0.00    +0.000 C 
ATOM      6  C   UNL     1       3.668   2.835  18.116  0.00  0.00    +0.000 C 
ATOM      7  O   UNL     1       3.857   1.614  18.158  0.00  0.00    +0.000 OA
ATOM      8  N   UNL     1       3.005   3.493  19.128  0.00  0.00    +0.000 N 
ATOM      9  C   UNL     1       2.591   2.733  20.318  0.00  0.00    +0.000 C 
ATOM     10  C   UNL     1       1.765   3.662  21.201  0.00  0.00    +0.000 C 
ATOM     11  C   UNL     1       1.975   4.976  20.523  0.00  0.00    +0.000 A 
ATOM     12  C   UNL     1       1.505   6.199  20.979  0.00  0.00    +0.000 A 
ATOM     13  C   UNL     1       1.712   7.335  20.202  0.00  0.00    +0.000 A 
ATOM     14  C   UNL     1       2.397   7.210  18.981  0.00  0.00    +0.000 A 
ATOM     15  C   UNL     1       2.874   5.966  18.533  0.00  0.00    +0.000 A 
ATOM     16  C   UNL     1       2.660   4.843  19.315  0.00  0.00    +0.000 A 
ENDBRANCH   1  13
BRANCH   2  17
ATOM     17  C   UNL     1      -0.140  10.380  21.555  0.00  0.00    +0.000 A 
ATOM     18  C   UNL     1      -0.909  10.649  22.706  0.00  0.00    +0.000 A 
ATOM     19  C   UNL     1      -1.166  11.954  23.103  0.00  0.00    +0.000 A 
ATOM     20  C   UNL     1      -0.651  13.001  22.353  0.00  0.00    +0.000 A 
ATOM     21  C   UNL     1       0.114  12.748  21.201  0.00  0.00    +0.000 A 
ATOM     22  C   UNL     1       0.636  13.815  20.459  0.00  0.00    +0.000 A 
ATOM     23  C   UNL     1       1.394  13.571  19.322  0.00  0.00    +0.000 A 
ATOM     24  C   UNL     1       1.601  12.259  18.958  0.00  0.00    +0.000 A 
ATOM     25  N   UNL     1       1.116  11.204  19.649  0.00  0.00    +0.000 NA
ATOM     26  C   UNL     1       0.379  11.425  20.772  0.00  0.00    +0.000 A 
ENDBRANCH   2  17
TORSDOF 2
ENDMDL
MODEL 8
REMARK VINA RESULT:      -8.4      1.554      1.613
REMARK  Name = 
REMARK  3 active torsions:
REMARK  status: ('A' for Active; 'I' for Inactive)
REMARK    1  A    between atoms: C_1  and  C_2
REMARK    2  A    between atoms: C_9  and  N_10
REMARK    3  A    between atoms: C_11  and  C_13
REMARK                            x       y       z     vdW  Elec       q    Type
REMARK                         _______ _______ _______ _____ _____    ______ ____
ROOT
ATOM      1  N   UNL     1       1.978   7.664  20.241  0.00  0.00    +0.000 N 
ATOM      2  C   UNL     1       2.362   7.238  18.983  0.00  0.00    +0.000 C 
ATOM      3  O   UNL     1       2.063   7.786  17.927  0.00  0.00    +0.000 OA
ATOM      4  H   UNL     1       2.303   7.090  21.021  0.00  0.00    +0.000 HD
ENDROOT
BRANCH   1  13
ATOM      5  C   UNL     1      -0.974  13.814  19.749  0.00  0.00    +0.000 C 
ATOM      6  C   UNL     1      -1.459  13.381  21.103  0.00  0.00    +0.000 C 
ATOM      7  O   UNL     1      -2.189  14.140  21.749  0.00  0.00    +0.000 OA
ATOM      8  N   UNL     1      -1.094  12.148  21.593  0.00  0.00    +0.000 N 
ATOM      9  C   UNL     1      -1.657  11.698  22.876  0.00  0.00    +0.000 C 
ATOM     10  C   UNL     1      -0.984  10.380  23.245  0.00  0.00    +0.000 C 
ATOM     11  C   UNL     1      -0.235  10.071  21.991  0.00  0.00    +0.000 A 
ATOM     12  C   UNL     1       0.490   8.913  21.753  0.00  0.00    +0.000 A 
ATOM     13  C   UNL     1       1.203   8.793  20.564  0.00  0.00    +0.000 A 
ATOM     14  C   UNL     1       1.162   9.847  19.636  0.00  0.00    +0.000 A 
ATOM     15  C   UNL     1       0.418  11.014  19.885  0.00  0.00    +0.000 A 
ATOM     16  C   UNL     1      -0.285  11.121  21.073  0.00  0.00    +0.000 A 
ENDBRANCH   1  13
BRANCH   2  17
ATOM     17  C   UNL     1       3.220   6.012  18.911  0.00  0.00    +0.000 A 
ATOM     18  C   UNL     1       4.304   6.070  18.010  0.00  0.00    +0.000 A 
ATOM     19  C   UNL     1       5.182   5.003  17.882  0.00  0.00    +0.000 A 
ATOM     20  C   UNL     1       4.986   3.870  18.659  0.00  0.00    +0.000 A 
ATOM     21  C   UNL     1       3.908   3.797  19.559  0.00  0.00    +0.000 A 
ATOM     22  C   UNL     1       3.727   2.652  20.344  0.00  0.00    +0.000 A 
ATOM     23  C   UNL     1       2.666   2.575  21.235  0.00  0.00    +0.000 A 
ATOM     24  C   UNL     1       1.809   3.651  21.307  0.00  0.00    +0.000 A 
ATOM     25  N   UNL     1       1.952   4.774  20.569  0.00  0.00    +0.000 NA
ATOM     26  C   UNL     1       2.993   4.870  19.697  0.00  0.00    +0.000 A 
ENDBRANCH   2  17
TORSDOF 2
ENDMDL
MODEL 9
REMARK VINA RESULT:      -8.4      2.015      2.615
REMARK  Name = 
REMARK  3 active torsions:
REMARK  status: ('A' for Active; 'I' for Inactive)
REMARK    1  A    between atoms: C_1  and  C_2
REMARK    2  A    between atoms: C_9  and  N_10
REMARK    3  A    between atoms: C_11  and  C_13
REMARK                            x       y       z     vdW  Elec       q    Type
REMARK                         _______ _______ _______ _____ _____    ______ ____
ROOT
ATOM      1  N   UNL     1       2.229   8.382  17.778  0.00  0.00    +0.000 N 
ATOM      2  C   UNL     1       2.623   7.336  18.591  0.00  0.00    +0.000 C 
ATOM      3  O   UNL     1       2.540   7.319  19.815  0.00  0.00    +0.000 OA
ATOM      4  H   UNL     1       2.375   8.243  16.777  0.00  0.00    +0.000 HD
ENDROOT
BRANCH   1  13
ATOM      5  C   UNL     1      -2.346  12.871  20.164  0.00  0.00    +0.000 C 
ATOM      6  C   UNL     1      -1.212  13.791  19.814  0.00  0.00    +0.000 C 
ATOM      7  O   UNL     1      -1.343  15.005  20.006  0.00  0.00    +0.000 OA
ATOM      8  N   UNL     1      -0.047  13.268  19.299  0.00  0.00    +0.000 N 
ATOM      9  C   UNL     1       1.090  14.170  19.054  0.00  0.00    +0.000 C 
ATOM     10  C   UNL     1       2.183  13.365  18.359  0.00  0.00    +0.000 C 
ATOM     11  C   UNL     1       1.645  11.977  18.475  0.00  0.00    +0.000 A 
ATOM     12  C   UNL     1       2.304  10.824  18.074  0.00  0.00    +0.000 A 
ATOM     13  C   UNL     1       1.648   9.602  18.172  0.00  0.00    +0.000 A 
ATOM     14  C   UNL     1       0.338   9.570  18.680  0.00  0.00    +0.000 A 
ATOM     15  C   UNL     1      -0.318  10.745  19.089  0.00  0.00    +0.000 A 
ATOM     16  C   UNL     1       0.346  11.955  18.984  0.00  0.00    +0.000 A 
ENDBRANCH   1  13
BRANCH   2  17
ATOM     17  C   UNL     1       3.191   6.125  17.917  0.00  0.00    +0.000 A 
ATOM     18  C   UNL     1       4.321   6.345  17.102  0.00  0.00    +0.000 A 
ATOM     19  C   UNL     1       4.948   5.292  16.452  0.00  0.00    +0.000 A 
ATOM     20  C   UNL     1       4.452   4.006  16.617  0.00  0.00    +0.000 A 
ATOM     21  C   UNL     1       3.325   3.771  17.423  0.00  0.00    +0.000 A 
ATOM     22  C   UNL     1       2.840   2.468  17.589  0.00  0.00    +0.000 A 
ATOM     23  C   UNL     1       1.729   2.230  18.385  0.00  0.00    +0.000 A 
ATOM     24  C   UNL     1       1.129   3.313  18.989  0.00  0.00    +0.000 A 
ATOM     25  N   UNL     1       1.568   4.584  18.856  0.00  0.00    +0.000 NA
ATOM     26  C   UNL     1       2.663   4.834  18.086  0.00  0.00    +0.000 A 
ENDBRANCH   2  17
TORSDOF 2
ENDMDL
