MODEL 1
REMARK VINA RESULT:      -7.7      0.000      0.000
REMARK  Name = 
REMARK  8 active torsions:
REMARK  status: ('A' for Active; 'I' for Inactive)
REMARK    1  A    between atoms: C_1  and  C_2
REMARK    2  A    between atoms: C_2  and  C_3
REMARK    3  A    between atoms: C_3  and  N_4
REMARK    4  A    between atoms: C_8  and  C_9
REMARK    5  A    between atoms: C_9  and  C_10
REMARK    6  A    between atoms: C_12  and  N_13
REMARK    7  A    between atoms: C_20  and  C_21
REMARK    8  A    between atoms: C_29  and  C_30
REMARK                            x       y       z     vdW  Elec       q    Type
REMARK                         _______ _______ _______ _____ _____    ______ ____
ROOT
ATOM      1  C   UNL     1       5.888   4.314  16.169  0.00  0.00    +0.000 A 
ATOM      2  C   UNL     1       4.494   4.387  16.037  0.00  0.00    +0.000 A 
ATOM      3  C   UNL     1       3.689   4.809  17.107  0.00  0.00    +0.000 A 
ATOM      4  C   UNL     1       4.288   5.430  18.203  0.00  0.00    +0.000 A 
ATOM      5  C   UNL     1       5.679   5.440  18.314  0.00  0.00    +0.000 A 
ATOM      6  C   UNL     1       6.485   4.821  17.340  0.00  0.00    +0.000 A 
ATOM      7  C   UNL     1       7.941   4.604  17.639  0.00  0.00    +0.000 C 
ENDROOT
BRANCH   3   8
ATOM      8  N   UNL     1       2.357   4.253  17.265  0.00  0.00    +0.000 N 
ATOM      9  C   UNL     1       1.500   5.173  18.046  0.00  0.00    +0.000 C 
ATOM     10  C   UNL     1       1.596   4.614  19.432  0.00  0.00    +0.000 A 
ATOM     11  C   UNL     1       1.924   3.263  19.322  0.00  0.00    +0.000 A 
ATOM     12  C   UNL     1       2.215   2.467  20.415  0.00  0.00    +0.000 A 
ATOM     13  C   UNL     1       2.168   3.069  21.670  0.00  0.00    +0.000 A 
ATOM     14  C   UNL     1       1.853   4.436  21.796  0.00  0.00    +0.000 A 
ATOM     15  C   UNL     1       1.569   5.241  20.674  0.00  0.00    +0.000 A 
ATOM     16  C   UNL     1       2.282   2.995  17.913  0.00  0.00    +0.000 C 
ATOM     17  O   UNL     1       2.641   1.906  17.498  0.00  0.00    +0.000 OA
BRANCH  15  18
ATOM     18  C   UNL     1       1.350   6.722  20.856  0.00  0.00    +0.000 C 
ATOM     19  F   UNL     1       0.044   7.069  21.038  0.00  0.00    +0.000 F 
ATOM     20  F   UNL     1       1.998   7.196  21.960  0.00  0.00    +0.000 F 
ATOM     21  F   UNL     1       1.790   7.481  19.820  0.00  0.00    +0.000 F 
ENDBRANCH  15  18
ENDBRANCH   3   8
BRANCH   1  22
ATOM     22  C   UNL     1       6.653   3.532  15.113  0.00  0.00    +0.000 C 
BRANCH  22  27
ATOM     23  N   UNL     1       6.856   4.149  12.646  0.00  0.00    +0.000 N 
ATOM     24  C   UNL     1       7.482   5.137  11.947  0.00  0.00    +0.000 A 
ATOM     25  N   UNL     1       8.152   5.902  12.771  0.00  0.00    +0.000 NA
ATOM     26  N   UNL     1       7.945   5.424  14.042  0.00  0.00    +0.000 NA
ATOM     27  C   UNL     1       7.152   4.366  13.973  0.00  0.00    +0.000 A 
BRANCH  23  28
ATOM     28  C   UNL     1       6.010   3.128  12.065  0.00  0.00    +0.000 C 
BRANCH  28  30
ATOM     29  C   UNL     1       3.825   3.179  10.803  0.00  0.00    +0.000 C 
ATOM     30  C   UNL     1       4.519   3.470  12.125  0.00  0.00    +0.000 C 
ENDBRANCH  28  30
ENDBRANCH  23  28
ENDBRANCH  22  27
ENDBRANCH   1  22
TORSDOF 6
ENDMDL
MODEL 2
REMARK VINA RESULT:      -7.6      4.716      8.820
REMARK  Name = 
REMARK  8 active torsions:
REMARK  status: ('A' for Active; 'I' for Inactive)
REMARK    1  A    between atoms: C_1  and  C_2
REMARK    2  A    between atoms: C_2  and  C_3
REMARK    3  A    between atoms: C_3  and  N_4
REMARK    4  A    between atoms: C_8  and  C_9
REMARK    5  A    between atoms: C_9  and  C_10
REMARK    6  A    between atoms: C_12  and  N_13
REMARK    7  A    between atoms: C_20  and  C_21
REMARK    8  A    between atoms: C_29  and  C_30
REMARK                            x       y       z     vdW  Elec       q    Type
REMARK                         _______ _______ _______ _____ _____    ______ ____
ROOT
ATOM      1  C   UNL     1       1.206   8.902  19.834  0.00  0.00    +0.000 A 
ATOM      2  C   UNL     1       1.971   7.788  20.208  0.00  0.00    +0.000 A 
ATOM      3  C   UNL     1       2.613   6.996  19.242  0.00  0.00    +0.000 A 
ATOM      4  C   UNL     1       2.730   7.478  17.938  0.00  0.00    +0.000 A 
ATOM      5  C   UNL     1       2.041   8.633  17.566  0.00  0.00    +0.000 A 
ATOM      6  C   UNL     1       1.219   9.311  18.486  0.00  0.00    +0.000 A 
ATOM      7  C   UNL     1       0.280  10.366  17.974  0.00  0.00    +0.000 C 
ENDROOT
BRANCH   3   8
ATOM      8  N   UNL     1       2.771   5.572  19.474  0.00  0.00    +0.000 N 
ATOM      9  C   UNL     1       4.175   5.256  19.820  0.00  0.00    +0.000 C 
ATOM     10  C   UNL     1       4.749   4.824  18.506  0.00  0.00    +0.000 A 
ATOM     11  C   UNL     1       3.695   4.368  17.713  0.00  0.00    +0.000 A 
ATOM     12  C   UNL     1       3.851   4.009  16.388  0.00  0.00    +0.000 A 
ATOM     13  C   UNL     1       5.129   4.115  15.846  0.00  0.00    +0.000 A 
ATOM     14  C   UNL     1       6.200   4.588  16.629  0.00  0.00    +0.000 A 
ATOM     15  C   UNL     1       6.028   4.963  17.978  0.00  0.00    +0.000 A 
ATOM     16  C   UNL     1       2.430   4.724  18.391  0.00  0.00    +0.000 C 
ATOM     17  O   UNL     1       1.325   4.483  17.937  0.00  0.00    +0.000 OA
BRANCH  15  18
ATOM     18  C   UNL     1       7.183   5.568  18.736  0.00  0.00    +0.000 C 
ATOM     19  F   UNL     1       8.362   4.903  18.569  0.00  0.00    +0.000 F 
ATOM     20  F   UNL     1       7.438   6.846  18.329  0.00  0.00    +0.000 F 
ATOM     21  F   UNL     1       6.989   5.642  20.077  0.00  0.00    +0.000 F 
ENDBRANCH  15  18
ENDBRANCH   3   8
BRANCH   1  22
ATOM     22  C   UNL     1       0.273   9.495  20.877  0.00  0.00    +0.000 C 
BRANCH  22  27
ATOM     23  N   UNL     1      -0.529  11.897  21.189  0.00  0.00    +0.000 N 
ATOM     24  C   UNL     1       0.076  13.089  21.451  0.00  0.00    +0.000 A 
ATOM     25  N   UNL     1       1.373  12.921  21.512  0.00  0.00    +0.000 NA
ATOM     26  N   UNL     1       1.627  11.587  21.311  0.00  0.00    +0.000 NA
ATOM     27  C   UNL     1       0.477  10.959  21.123  0.00  0.00    +0.000 A 
BRANCH  23  28
ATOM     28  C   UNL     1      -1.957  11.699  21.069  0.00  0.00    +0.000 C 
BRANCH  28  30
ATOM     29  C   UNL     1      -2.909  12.099  23.372  0.00  0.00    +0.000 C 
ATOM     30  C   UNL     1      -2.776  12.640  21.956  0.00  0.00    +0.000 C 
ENDBRANCH  28  30
ENDBRANCH  23  28
ENDBRANCH  22  27
ENDBRANCH   1  22
TORSDOF 6
ENDMDL
MODEL 3
REMARK VINA RESULT:      -7.6      4.649      8.439
REMARK  Name = 
REMARK  8 active torsions:
REMARK  status: ('A' for Active; 'I' for Inactive)
REMARK    1  A    between atoms: C_1  and  C_2
REMARK    2  A    between atoms: C_2  and  C_3
REMARK    3  A    between atoms: C_3  and  N_4
REMARK    4  A    between atoms: C_8  and  C_9
REMARK    5  A    between atoms: C_9  and  C_10
REMARK    6  A    between atoms: C_12  and  N_13
REMARK    7  A    between atoms: C_20  and  C_21
REMARK    8  A    between atoms: C_29  and  C_30
REMARK                            x       y       z     vdW  Elec       q    Type
REMARK                         _______ _______ _______ _____ _____    ______ ____
ROOT
ATOM      1  C   UNL     1       1.331   8.761  19.756  0.00  0.00    +0.000 A 
ATOM      2  C   UNL     1       2.101   7.653  20.137  0.00  0.00    +0.000 A 
ATOM      3  C   UNL     1       2.809   6.904  19.183  0.00  0.00    +0.000 A 
ATOM      4  C   UNL     1       2.980   7.426  17.902  0.00  0.00    +0.000 A 
ATOM      5  C   UNL     1       2.285   8.577  17.527  0.00  0.00    +0.000 A 
ATOM      6  C   UNL     1       1.401   9.210  18.423  0.00  0.00    +0.000 A 
ATOM      7  C   UNL     1       0.466  10.258  17.894  0.00  0.00    +0.000 C 
ENDROOT
BRANCH   3   8
ATOM      8  N   UNL     1       2.988   5.477  19.383  0.00  0.00    +0.000 N 
ATOM      9  C   UNL     1       4.390   5.178  19.752  0.00  0.00    +0.000 C 
ATOM     10  C   UNL     1       5.000   4.790  18.442  0.00  0.00    +0.000 A 
ATOM     11  C   UNL     1       3.973   4.336  17.614  0.00  0.00    +0.000 A 
ATOM     12  C   UNL     1       4.164   4.014  16.284  0.00  0.00    +0.000 A 
ATOM     13  C   UNL     1       5.453   4.156  15.774  0.00  0.00    +0.000 A 
ATOM     14  C   UNL     1       6.497   4.629  16.592  0.00  0.00    +0.000 A 
ATOM     15  C   UNL     1       6.288   4.965  17.946  0.00  0.00    +0.000 A 
ATOM     16  C   UNL     1       2.687   4.652  18.272  0.00  0.00    +0.000 C 
ATOM     17  O   UNL     1       1.596   4.402  17.787  0.00  0.00    +0.000 OA
BRANCH  15  18
ATOM     18  C   UNL     1       7.415   5.572  18.745  0.00  0.00    +0.000 C 
ATOM     19  F   UNL     1       7.136   5.713  20.073  0.00  0.00    +0.000 F 
ATOM     20  F   UNL     1       8.538   4.797  18.701  0.00  0.00    +0.000 F 
ATOM     21  F   UNL     1       7.800   6.801  18.318  0.00  0.00    +0.000 F 
ENDBRANCH  15  18
ENDBRANCH   3   8
BRANCH   1  22
ATOM     22  C   UNL     1       0.333   9.303  20.767  0.00  0.00    +0.000 C 
BRANCH  22  27
ATOM     23  N   UNL     1      -0.613  11.671  20.870  0.00  0.00    +0.000 N 
ATOM     24  C   UNL     1      -0.111  12.896  21.187  0.00  0.00    +0.000 A 
ATOM     25  N   UNL     1       1.165  12.793  21.461  0.00  0.00    +0.000 NA
ATOM     26  N   UNL     1       1.506  11.467  21.345  0.00  0.00    +0.000 NA
ATOM     27  C   UNL     1       0.430  10.781  20.995  0.00  0.00    +0.000 A 
BRANCH  23  28
ATOM     28  C   UNL     1      -1.994  11.401  20.529  0.00  0.00    +0.000 C 
BRANCH  28  30
ATOM     29  C   UNL     1      -3.006  11.614  18.227  0.00  0.00    +0.000 C 
ATOM     30  C   UNL     1      -2.556  12.358  19.475  0.00  0.00    +0.000 C 
ENDBRANCH  28  30
ENDBRANCH  23  28
ENDBRANCH  22  27
ENDBRANCH   1  22
TORSDOF 6
ENDMDL
MODEL 4
REMARK VINA RESULT:      -7.6      9.150     12.147
REMARK  Name = 
REMARK  8 active torsions:
REMARK  status: ('A' for Active; 'I' for Inactive)
REMARK    1  A    between atoms: C_1  and  C_2
REMARK    2  A    between atoms: C_2  and  C_3
REMARK    3  A    between atoms: C_3  and  N_4
REMARK    4  A    between atoms: C_8  and  C_9
REMARK    5  A    between atoms: C_9  and  C_10
REMARK    6  A    between atoms: C_12  and  N_13
REMARK    7  A    between atoms: C_20  and  C_21
REMARK    8  A    between atoms: C_29  and  C_30
REMARK                            x       y       z     vdW  Elec       q    Type
REMARK                         _______ _______ _______ _____ _____    ______ ____
ROOT
ATOM      1  C   UNL     1      -4.389  13.088  21.583  0.00  0.00    +0.000 A 
ATOM      2  C   UNL     1      -3.200  12.354  21.701  0.00  0.00    +0.000 A 
ATOM      3  C   UNL     1      -2.634  12.093  22.960  0.00  0.00    +0.000 A 
ATOM      4  C   UNL     1      -3.399  12.311  24.105  0.00  0.00    +0.000 A 
ATOM      5  C   UNL     1      -4.625  12.969  24.001  0.00  0.00    +0.000 A 
ATOM      6  C   UNL     1      -5.095  13.426  22.755  0.00  0.00    +0.000 A 
ATOM      7  C   UNL     1      -6.262  14.371  22.725  0.00  0.00    +0.000 C 
ENDROOT
BRANCH   3   8
ATOM      8  N   UNL     1      -1.191  12.006  23.092  0.00  0.00    +0.000 N 
ATOM      9  C   UNL     1      -0.528  12.943  22.157  0.00  0.00    +0.000 C 
ATOM     10  C   UNL     1      -0.196  12.064  20.992  0.00  0.00    +0.000 A 
ATOM     11  C   UNL     1      -0.111  10.753  21.460  0.00  0.00    +0.000 A 
ATOM     12  C   UNL     1       0.059   9.664  20.625  0.00  0.00    +0.000 A 
ATOM     13  C   UNL     1       0.148   9.919  19.259  0.00  0.00    +0.000 A 
ATOM     14  C   UNL     1       0.048  11.236  18.769  0.00  0.00    +0.000 A 
ATOM     15  C   UNL     1      -0.136  12.338  19.629  0.00  0.00    +0.000 A 
ATOM     16  C   UNL     1      -0.620  10.732  22.847  0.00  0.00    +0.000 C 
ATOM     17  O   UNL     1      -0.699   9.724  23.528  0.00  0.00    +0.000 OA
BRANCH  15  18
ATOM     18  C   UNL     1      -0.349  13.712  19.043  0.00  0.00    +0.000 C 
ATOM     19  F   UNL     1      -0.554  13.712  17.695  0.00  0.00    +0.000 F 
ATOM     20  F   UNL     1      -1.453  14.318  19.568  0.00  0.00    +0.000 F 
ATOM     21  F   UNL     1       0.679  14.572  19.258  0.00  0.00    +0.000 F 
ENDBRANCH  15  18
ENDBRANCH   3   8
BRANCH   1  22
ATOM     22  C   UNL     1      -4.750  13.624  20.208  0.00  0.00    +0.000 C 
BRANCH  22  27
ATOM     23  N   UNL     1      -5.036  11.802  18.445  0.00  0.00    +0.000 N 
ATOM     24  C   UNL     1      -6.094  11.113  17.932  0.00  0.00    +0.000 A 
ATOM     25  N   UNL     1      -7.205  11.546  18.473  0.00  0.00    +0.000 NA
ATOM     26  N   UNL     1      -6.871  12.523  19.379  0.00  0.00    +0.000 NA
ATOM     27  C   UNL     1      -5.556  12.676  19.372  0.00  0.00    +0.000 A 
BRANCH  23  28
ATOM     28  C   UNL     1      -3.650  11.580  18.091  0.00  0.00    +0.000 C 
BRANCH  28  30
ATOM     29  C   UNL     1      -2.533  10.038  16.435  0.00  0.00    +0.000 C 
ATOM     30  C   UNL     1      -3.345  10.127  17.718  0.00  0.00    +0.000 C 
ENDBRANCH  28  30
ENDBRANCH  23  28
ENDBRANCH  22  27
ENDBRANCH   1  22
TORSDOF 6
ENDMDL
MODEL 5
REMARK VINA RESULT:      -7.5      4.841      8.925
REMARK  Name = 
REMARK  8 active torsions:
REMARK  status: ('A' for Active; 'I' for Inactive)
REMARK    1  A    between atoms: C_1  and  C_2
REMARK    2  A    between atoms: C_2  and  C_3
REMARK    3  A    between atoms: C_3  and  N_4
REMARK    4  A    between atoms: C_8  and  C_9
REMARK    5  A    between atoms: C_9  and  C_10
REMARK    6  A    between atoms: C_12  and  N_13
REMARK    7  A    between atoms: C_20  and  C_21
REMARK    8  A    between atoms: C_29  and  C_30
REMARK                            x       y       z     vdW  Elec       q    Type
REMARK                         _______ _______ _______ _____ _____    ______ ____
ROOT
ATOM      1  C   UNL     1       0.881   9.101  20.020  0.00  0.00    +0.000 A 
ATOM      2  C   UNL     1       1.736   8.163  20.616  0.00  0.00    +0.000 A 
ATOM      3  C   UNL     1       2.430   7.222  19.839  0.00  0.00    +0.000 A 
ATOM      4  C   UNL     1       2.496   7.401  18.457  0.00  0.00    +0.000 A 
ATOM      5  C   UNL     1       1.714   8.384  17.851  0.00  0.00    +0.000 A 
ATOM      6  C   UNL     1       0.848   9.190  18.614  0.00  0.00    +0.000 A 
ATOM      7  C   UNL     1      -0.176  10.026  17.903  0.00  0.00    +0.000 C 
ENDROOT
BRANCH   3   8
ATOM      8  N   UNL     1       2.705   5.905  20.384  0.00  0.00    +0.000 N 
ATOM      9  C   UNL     1       4.045   5.438  19.962  0.00  0.00    +0.000 C 
ATOM     10  C   UNL     1       3.736   4.578  18.777  0.00  0.00    +0.000 A 
ATOM     11  C   UNL     1       2.420   4.133  18.908  0.00  0.00    +0.000 A 
ATOM     12  C   UNL     1       1.766   3.415  17.923  0.00  0.00    +0.000 A 
ATOM     13  C   UNL     1       2.479   3.138  16.759  0.00  0.00    +0.000 A 
ATOM     14  C   UNL     1       3.802   3.595  16.605  0.00  0.00    +0.000 A 
ATOM     15  C   UNL     1       4.457   4.335  17.612  0.00  0.00    +0.000 A 
ATOM     16  C   UNL     1       1.796   4.880  20.020  0.00  0.00    +0.000 C 
ATOM     17  O   UNL     1       0.637   4.736  20.370  0.00  0.00    +0.000 OA
BRANCH  15  18
ATOM     18  C   UNL     1       5.832   4.895  17.350  0.00  0.00    +0.000 C 
ATOM     19  F   UNL     1       5.896   6.256  17.415  0.00  0.00    +0.000 F 
ATOM     20  F   UNL     1       6.739   4.454  18.269  0.00  0.00    +0.000 F 
ATOM     21  F   UNL     1       6.346   4.561  16.138  0.00  0.00    +0.000 F 
ENDBRANCH  15  18
ENDBRANCH   3   8
BRANCH   1  22
ATOM     22  C   UNL     1      -0.086   9.844  20.926  0.00  0.00    +0.000 C 
BRANCH  22  27
ATOM     23  N   UNL     1      -0.600  12.266  21.545  0.00  0.00    +0.000 N 
ATOM     24  C   UNL     1       0.139  13.400  21.696  0.00  0.00    +0.000 A 
ATOM     25  N   UNL     1       1.392  13.150  21.412  0.00  0.00    +0.000 NA
ATOM     26  N   UNL     1       1.486  11.818  21.091  0.00  0.00    +0.000 NA
ATOM     27  C   UNL     1       0.283  11.275  21.178  0.00  0.00    +0.000 A 
BRANCH  23  28
ATOM     28  C   UNL     1      -2.023  12.162  21.789  0.00  0.00    +0.000 C 
BRANCH  28  30
ATOM     29  C   UNL     1      -3.516  12.600  23.776  0.00  0.00    +0.000 C 
ATOM     30  C   UNL     1      -2.364  11.771  23.229  0.00  0.00    +0.000 C 
ENDBRANCH  28  30
ENDBRANCH  23  28
ENDBRANCH  22  27
ENDBRANCH   1  22
TORSDOF 6
ENDMDL
MODEL 6
REMARK VINA RESULT:      -7.4     10.164     12.883
REMARK  Name = 
REMARK  8 active torsions:
REMARK  status: ('A' for Active; 'I' for Inactive)
REMARK    1  A    between atoms: C_1  and  C_2
REMARK    2  A    between atoms: C_2  and  C_3
REMARK    3  A    between atoms: C_3  and  N_4
REMARK    4  A    between atoms: C_8  and  C_9
REMARK    5  A    between atoms: C_9  and  C_10
REMARK    6  A    between atoms: C_12  and  N_13
REMARK    7  A    between atoms: C_20  and  C_21
REMARK    8  A    between atoms: C_29  and  C_30
REMARK                            x       y       z     vdW  Elec       q    Type
REMARK                         _______ _______ _______ _____ _____    ______ ____
ROOT
ATOM      1  C   UNL     1      -4.682  13.367  21.775  0.00  0.00    +0.000 A 
ATOM      2  C   UNL     1      -3.558  12.622  22.160  0.00  0.00    +0.000 A 
ATOM      3  C   UNL     1      -2.805  12.984  23.289  0.00  0.00    +0.000 A 
ATOM      4  C   UNL     1      -3.336  13.906  24.191  0.00  0.00    +0.000 A 
ATOM      5  C   UNL     1      -4.501  14.600  23.863  0.00  0.00    +0.000 A 
ATOM      6  C   UNL     1      -5.141  14.391  22.626  0.00  0.00    +0.000 A 
ATOM      7  C   UNL     1      -6.210  15.353  22.194  0.00  0.00    +0.000 C 
ENDROOT
BRANCH   3   8
ATOM      8  N   UNL     1      -1.374  12.742  23.303  0.00  0.00    +0.000 N 
ATOM      9  C   UNL     1      -0.664  13.786  22.530  0.00  0.00    +0.000 C 
ATOM     10  C   UNL     1      -0.480  13.137  21.194  0.00  0.00    +0.000 A 
ATOM     11  C   UNL     1      -0.508  11.756  21.385  0.00  0.00    +0.000 A 
ATOM     12  C   UNL     1      -0.492  10.849  20.341  0.00  0.00    +0.000 A 
ATOM     13  C   UNL     1      -0.443  11.368  19.050  0.00  0.00    +0.000 A 
ATOM     14  C   UNL     1      -0.431  12.761  18.839  0.00  0.00    +0.000 A 
ATOM     15  C   UNL     1      -0.458  13.677  19.911  0.00  0.00    +0.000 A 
ATOM     16  C   UNL     1      -0.949  11.498  22.773  0.00  0.00    +0.000 C 
ATOM     17  O   UNL     1      -1.099  10.384  23.243  0.00  0.00    +0.000 OA
BRANCH  15  18
ATOM     18  C   UNL     1      -0.557  15.155  19.626  0.00  0.00    +0.000 C 
ATOM     19  F   UNL     1      -1.719  15.724  20.057  0.00  0.00    +0.000 F 
ATOM     20  F   UNL     1       0.432  15.856  20.252  0.00  0.00    +0.000 F 
ATOM     21  F   UNL     1      -0.458  15.474  18.311  0.00  0.00    +0.000 F 
ENDBRANCH  15  18
ENDBRANCH   3   8
BRANCH   1  22
ATOM     22  C   UNL     1      -5.232  13.135  20.377  0.00  0.00    +0.000 C 
BRANCH  22  27
ATOM     23  N   UNL     1      -6.065  11.088  19.101  0.00  0.00    +0.000 N 
ATOM     24  C   UNL     1      -6.878  10.036  19.392  0.00  0.00    +0.000 A 
ATOM     25  N   UNL     1      -7.347  10.164  20.607  0.00  0.00    +0.000 NA
ATOM     26  N   UNL     1      -6.813  11.313  21.137  0.00  0.00    +0.000 NA
ATOM     27  C   UNL     1      -6.028  11.873  20.231  0.00  0.00    +0.000 A 
BRANCH  23  28
ATOM     28  C   UNL     1      -5.357  11.271  17.851  0.00  0.00    +0.000 C 
BRANCH  28  30
ATOM     29  C   UNL     1      -3.354   9.808  17.385  0.00  0.00    +0.000 C 
ATOM     30  C   UNL     1      -3.840  11.118  17.987  0.00  0.00    +0.000 C 
ENDBRANCH  28  30
ENDBRANCH  23  28
ENDBRANCH  22  27
ENDBRANCH   1  22
TORSDOF 6
ENDMDL
MODEL 7
REMARK VINA RESULT:      -7.4      4.695      6.779
REMARK  Name = 
REMARK  8 active torsions:
REMARK  status: ('A' for Active; 'I' for Inactive)
REMARK    1  A    between atoms: C_1  and  C_2
REMARK    2  A    between atoms: C_2  and  C_3
REMARK    3  A    between atoms: C_3  and  N_4
REMARK    4  A    between atoms: C_8  and  C_9
REMARK    5  A    between atoms: C_9  and  C_10
REMARK    6  A    between atoms: C_12  and  N_13
REMARK    7  A    between atoms: C_20  and  C_21
REMARK    8  A    between atoms: C_29  and  C_30
REMARK                            x       y       z     vdW  Elec       q    Type
REMARK                         _______ _______ _______ _____ _____    ______ ____
ROOT
ATOM      1  C   UNL     1       2.466   6.956  18.929  0.00  0.00    +0.000 A 
ATOM      2  C   UNL     1       2.423   8.238  18.363  0.00  0.00    +0.000 A 
ATOM      3  C   UNL     1       1.656   9.260  18.947  0.00  0.00    +0.000 A 
ATOM      4  C   UNL     1       1.170   9.086  20.242  0.00  0.00    +0.000 A 
ATOM      5  C   UNL     1       1.276   7.839  20.857  0.00  0.00    +0.000 A 
ATOM      6  C   UNL     1       1.856   6.748  20.182  0.00  0.00    +0.000 A 
ATOM      7  C   UNL     1       1.691   5.371  20.758  0.00  0.00    +0.000 C 
ENDROOT
BRANCH   3   8
ATOM      8  N   UNL     1       1.039  10.265  18.100  0.00  0.00    +0.000 N 
ATOM      9  C   UNL     1       1.597  11.604  18.396  0.00  0.00    +0.000 C 
ATOM     10  C   UNL     1       0.588  12.179  19.340  0.00  0.00    +0.000 A 
ATOM     11  C   UNL     1      -0.627  11.534  19.108  0.00  0.00    +0.000 A 
ATOM     12  C   UNL     1      -1.748  11.734  19.891  0.00  0.00    +0.000 A 
ATOM     13  C   UNL     1      -1.630  12.627  20.954  0.00  0.00    +0.000 A 
ATOM     14  C   UNL     1      -0.406  13.274  21.211  0.00  0.00    +0.000 A 
ATOM     15  C   UNL     1       0.735  13.055  20.411  0.00  0.00    +0.000 A 
ATOM     16  C   UNL     1      -0.368  10.389  18.209  0.00  0.00    +0.000 C 
ATOM     17  O   UNL     1      -1.229   9.610  17.836  0.00  0.00    +0.000 OA
BRANCH  15  18
ATOM     18  C   UNL     1       2.049  13.687  20.799  0.00  0.00    +0.000 C 
ATOM     19  F   UNL     1       2.592  14.473  19.825  0.00  0.00    +0.000 F 
ATOM     20  F   UNL     1       1.913  14.508  21.880  0.00  0.00    +0.000 F 
ATOM     21  F   UNL     1       3.016  12.796  21.134  0.00  0.00    +0.000 F 
ENDBRANCH  15  18
ENDBRANCH   3   8
BRANCH   1  22
ATOM     22  C   UNL     1       3.020   5.829  18.073  0.00  0.00    +0.000 C 
BRANCH  22  27
ATOM     23  N   UNL     1       5.347   4.963  17.486  0.00  0.00    +0.000 N 
ATOM     24  C   UNL     1       6.508   4.774  18.173  0.00  0.00    +0.000 A 
ATOM     25  N   UNL     1       6.331   5.090  19.432  0.00  0.00    +0.000 NA
ATOM     26  N   UNL     1       5.033   5.518  19.572  0.00  0.00    +0.000 NA
ATOM     27  C   UNL     1       4.434   5.452  18.394  0.00  0.00    +0.000 A 
BRANCH  23  28
ATOM     28  C   UNL     1       5.174   4.732  16.067  0.00  0.00    +0.000 C 
BRANCH  28  30
ATOM     29  C   UNL     1       6.212   3.915  13.917  0.00  0.00    +0.000 C 
ATOM     30  C   UNL     1       6.470   4.334  15.356  0.00  0.00    +0.000 C 
ENDBRANCH  28  30
ENDBRANCH  23  28
ENDBRANCH  22  27
ENDBRANCH   1  22
TORSDOF 6
ENDMDL
MODEL 8
REMARK VINA RESULT:      -7.3      4.893      7.132
REMARK  Name = 
REMARK  8 active torsions:
REMARK  status: ('A' for Active; 'I' for Inactive)
REMARK    1  A    between atoms: C_1  and  C_2
REMARK    2  A    between atoms: C_2  and  C_3
REMARK    3  A    between atoms: C_3  and  N_4
REMARK    4  A    between atoms: C_8  and  C_9
REMARK    5  A    between atoms: C_9  and  C_10
REMARK    6  A    between atoms: C_12  and  N_13
REMARK    7  A    between atoms: C_20  and  C_21
REMARK    8  A    between atoms: C_29  and  C_30
REMARK                            x       y       z     vdW  Elec       q    Type
REMARK                         _______ _______ _______ _____ _____    ______ ____
ROOT
ATOM      1  C   UNL     1       2.260   7.354  18.860  0.00  0.00    +0.000 A 
ATOM      2  C   UNL     1       2.065   8.668  18.410  0.00  0.00    +0.000 A 
ATOM      3  C   UNL     1       1.334   9.592  19.175  0.00  0.00    +0.000 A 
ATOM      4  C   UNL     1       1.047   9.293  20.506  0.00  0.00    +0.000 A 
ATOM      5  C   UNL     1       1.308   8.014  20.998  0.00  0.00    +0.000 A 
ATOM      6  C   UNL     1       1.847   7.016  20.163  0.00  0.00    +0.000 A 
ATOM      7  C   UNL     1       1.842   5.593  20.643  0.00  0.00    +0.000 C 
ENDROOT
BRANCH   3   8
ATOM      8  N   UNL     1       0.548  10.612  18.505  0.00  0.00    +0.000 N 
ATOM      9  C   UNL     1       1.156  11.947  18.703  0.00  0.00    +0.000 C 
ATOM     10  C   UNL     1       0.376  12.496  19.856  0.00  0.00    +0.000 A 
ATOM     11  C   UNL     1      -0.860  11.850  19.878  0.00  0.00    +0.000 A 
ATOM     12  C   UNL     1      -1.785  12.026  20.890  0.00  0.00    +0.000 A 
ATOM     13  C   UNL     1      -1.440  12.896  21.922  0.00  0.00    +0.000 A 
ATOM     14  C   UNL     1      -0.190  13.544  21.923  0.00  0.00    +0.000 A 
ATOM     15  C   UNL     1       0.751  13.348  20.891  0.00  0.00    +0.000 A 
ATOM     16  C   UNL     1      -0.803  10.727  18.919  0.00  0.00    +0.000 C 
ATOM     17  O   UNL     1      -1.723   9.952  18.723  0.00  0.00    +0.000 OA
BRANCH  15  18
ATOM     18  C   UNL     1       2.117  13.978  20.999  0.00  0.00    +0.000 C 
ATOM     19  F   UNL     1       2.435  14.791  19.951  0.00  0.00    +0.000 F 
ATOM     20  F   UNL     1       2.220  14.772  22.104  0.00  0.00    +0.000 F 
ATOM     21  F   UNL     1       3.135  13.085  21.092  0.00  0.00    +0.000 F 
ENDBRANCH  15  18
ENDBRANCH   3   8
BRANCH   1  22
ATOM     22  C   UNL     1       2.749   6.331  17.847  0.00  0.00    +0.000 C 
BRANCH  22  27
ATOM     23  N   UNL     1       4.916   5.042  18.234  0.00  0.00    +0.000 N 
ATOM     24  C   UNL     1       6.237   5.286  18.011  0.00  0.00    +0.000 A 
ATOM     25  N   UNL     1       6.384   6.489  17.514  0.00  0.00    +0.000 NA
ATOM     26  N   UNL     1       5.132   7.039  17.386  0.00  0.00    +0.000 NA
ATOM     27  C   UNL     1       4.238   6.163  17.813  0.00  0.00    +0.000 A 
BRANCH  23  28
ATOM     28  C   UNL     1       4.378   3.806  18.762  0.00  0.00    +0.000 C 
BRANCH  28  30
ATOM     29  C   UNL     1       2.401   2.434  18.003  0.00  0.00    +0.000 C 
ATOM     30  C   UNL     1       3.820   2.877  17.681  0.00  0.00    +0.000 C 
ENDBRANCH  28  30
ENDBRANCH  23  28
ENDBRANCH  22  27
ENDBRANCH   1  22
TORSDOF 6
ENDMDL
MODEL 9
REMARK VINA RESULT:      -7.3      4.791      8.475
REMARK  Name = 
REMARK  8 active torsions:
REMARK  status: ('A' for Active; 'I' for Inactive)
REMARK    1  A    between atoms: C_1  and  C_2
REMARK    2  A    between atoms: C_2  and  C_3
REMARK    3  A    between atoms: C_3  and  N_4
REMARK    4  A    between atoms: C_8  and  C_9
REMARK    5  A    between atoms: C_9  and  C_10
REMARK    6  A    between atoms: C_12  and  N_13
REMARK    7  A    between atoms: C_20  and  C_21
REMARK    8  A    between atoms: C_29  and  C_30
REMARK                            x       y       z     vdW  Elec       q    Type
REMARK                         _______ _______ _______ _____ _____    ______ ____
ROOT
ATOM      1  C   UNL     1       0.870   9.031  19.886  0.00  0.00    +0.000 A 
ATOM      2  C   UNL     1       1.707   8.119  20.545  0.00  0.00    +0.000 A 
ATOM      3  C   UNL     1       2.471   7.189  19.822  0.00  0.00    +0.000 A 
ATOM      4  C   UNL     1       2.621   7.358  18.446  0.00  0.00    +0.000 A 
ATOM      5  C   UNL     1       1.857   8.317  17.781  0.00  0.00    +0.000 A 
ATOM      6  C   UNL     1       0.925   9.108  18.480  0.00  0.00    +0.000 A 
ATOM      7  C   UNL     1      -0.072   9.913  17.696  0.00  0.00    +0.000 C 
ENDROOT
BRANCH   3   8
ATOM      8  N   UNL     1       2.741   5.884  20.397  0.00  0.00    +0.000 N 
ATOM      9  C   UNL     1       4.066   5.389  19.959  0.00  0.00    +0.000 C 
ATOM     10  C   UNL     1       3.720   4.501  18.805  0.00  0.00    +0.000 A 
ATOM     11  C   UNL     1       2.403   4.076  18.975  0.00  0.00    +0.000 A 
ATOM     12  C   UNL     1       1.718   3.341  18.025  0.00  0.00    +0.000 A 
ATOM     13  C   UNL     1       2.402   3.024  16.854  0.00  0.00    +0.000 A 
ATOM     14  C   UNL     1       3.727   3.459  16.659  0.00  0.00    +0.000 A 
ATOM     15  C   UNL     1       4.412   4.218  17.631  0.00  0.00    +0.000 A 
ATOM     16  C   UNL     1       1.812   4.862  20.080  0.00  0.00    +0.000 C 
ATOM     17  O   UNL     1       0.659   4.742  20.459  0.00  0.00    +0.000 OA
BRANCH  15  18
ATOM     18  C   UNL     1       5.789   4.753  17.324  0.00  0.00    +0.000 C 
ATOM     19  F   UNL     1       6.304   4.306  16.143  0.00  0.00    +0.000 F 
ATOM     20  F   UNL     1       5.788   6.113  17.216  0.00  0.00    +0.000 F 
ATOM     21  F   UNL     1       6.721   4.459  18.265  0.00  0.00    +0.000 F 
ENDBRANCH  15  18
ENDBRANCH   3   8
BRANCH   1  22
ATOM     22  C   UNL     1      -0.172   9.758  20.721  0.00  0.00    +0.000 C 
BRANCH  22  27
ATOM     23  N   UNL     1      -0.723  12.246  20.847  0.00  0.00    +0.000 N 
ATOM     24  C   UNL     1      -0.045  13.366  21.221  0.00  0.00    +0.000 A 
ATOM     25  N   UNL     1       1.183  13.049  21.549  0.00  0.00    +0.000 NA
ATOM     26  N   UNL     1       1.309  11.688  21.412  0.00  0.00    +0.000 NA
ATOM     27  C   UNL     1       0.154  11.195  20.995  0.00  0.00    +0.000 A 
BRANCH  23  28
ATOM     28  C   UNL     1      -2.111  12.213  20.437  0.00  0.00    +0.000 C 
BRANCH  28  30
ATOM     29  C   UNL     1      -3.467  11.469  18.443  0.00  0.00    +0.000 C 
ATOM     30  C   UNL     1      -2.297  12.316  18.921  0.00  0.00    +0.000 C 
ENDBRANCH  28  30
ENDBRANCH  23  28
ENDBRANCH  22  27
ENDBRANCH   1  22
TORSDOF 6
ENDMDL
