MODEL 1
REMARK VINA RESULT:      -9.2      0.000      0.000
REMARK  Name = 
REMARK  6 active torsions:
REMARK  status: ('A' for Active; 'I' for Inactive)
REMARK    1  A    between atoms: C_2  and  C_3
REMARK    2  A    between atoms: C_3  and  C_4
REMARK    3  A    between atoms: C_4  and  C_5
REMARK    4  A    between atoms: N_11  and  C_12
REMARK    5  A    between atoms: C_16  and  N_17
REMARK    6  A    between atoms: C_18  and  C_20
REMARK                            x       y       z     vdW  Elec       q    Type
REMARK                         _______ _______ _______ _____ _____    ______ ____
ROOT
ATOM      1  C   UNL     1       4.199   3.975  19.213  0.00  0.00    +0.000 A 
ATOM      2  C   UNL     1       3.899   2.832  19.959  0.00  0.00    +0.000 A 
ATOM      3  C   UNL     1       2.865   2.841  20.884  0.00  0.00    +0.000 A 
ATOM      4  C   UNL     1       2.147   4.008  21.108  0.00  0.00    +0.000 A 
ATOM      5  C   UNL     1       2.485   5.201  20.459  0.00  0.00    +0.000 A 
ATOM      6  C   UNL     1       3.497   5.168  19.483  0.00  0.00    +0.000 A 
ENDROOT
BRANCH   1   9
ATOM      7  O   UNL     1       6.906   5.112  19.333  0.00  0.00    +0.000 OA
ATOM      8  C   UNL     1       6.462   4.553  18.332  0.00  0.00    +0.000 C 
ATOM      9  N   UNL     1       5.207   3.967  18.214  0.00  0.00    +0.000 N 
ATOM     10  H   UNL     1       5.037   3.389  17.401  0.00  0.00    +0.000 HD
BRANCH   8  11
ATOM     11  C   UNL     1       7.293   4.474  17.063  0.00  0.00    +0.000 C 
BRANCH  11  12
ATOM     12  C   UNL     1       6.777   5.471  16.020  0.00  0.00    +0.000 C 
BRANCH  12  13
ATOM     13  C   UNL     1       6.738   4.889  14.635  0.00  0.00    +0.000 A 
ATOM     14  C   UNL     1       5.771   3.949  14.270  0.00  0.00    +0.000 A 
ATOM     15  C   UNL     1       5.763   3.434  12.978  0.00  0.00    +0.000 A 
ATOM     16  C   UNL     1       6.732   3.873  12.090  0.00  0.00    +0.000 A 
ATOM     17  N   UNL     1       7.688   4.773  12.408  0.00  0.00    +0.000 NA
ATOM     18  C   UNL     1       7.664   5.263  13.667  0.00  0.00    +0.000 A 
ENDBRANCH  12  13
ENDBRANCH  11  12
ENDBRANCH   8  11
ENDBRANCH   1   9
BRANCH   5  19
ATOM     19  N   UNL     1       1.838   6.431  20.779  0.00  0.00    +0.000 N 
ATOM     20  C   UNL     1       1.873   7.554  19.956  0.00  0.00    +0.000 C 
ATOM     21  O   UNL     1       2.413   7.612  18.856  0.00  0.00    +0.000 OA
ATOM     22  H   UNL     1       1.184   6.423  21.549  0.00  0.00    +0.000 HD
BRANCH  20  23
ATOM     23  C   UNL     1       1.167   8.791  20.390  0.00  0.00    +0.000 A 
ATOM     24  C   UNL     1       0.777   9.822  19.513  0.00  0.00    +0.000 A 
ATOM     25  C   UNL     1      -0.010  10.889  19.985  0.00  0.00    +0.000 A 
ATOM     26  C   UNL     1      -0.395  10.880  21.313  0.00  0.00    +0.000 A 
ATOM     27  C   UNL     1      -0.006   9.882  22.168  0.00  0.00    +0.000 A 
ATOM     28  C   UNL     1       0.778   8.835  21.744  0.00  0.00    +0.000 A 
ATOM     29  O   UNL     1      -0.506  10.036  23.423  0.00  0.00    +0.000 OA
ATOM     30  C   UNL     1      -1.332  11.201  23.238  0.00  0.00    +0.000 C 
ATOM     31  O   UNL     1      -1.197  11.792  21.925  0.00  0.00    +0.000 OA
ENDBRANCH  20  23
ENDBRANCH   5  19
TORSDOF 6
ENDMDL
MODEL 2
REMARK VINA RESULT:      -8.7      4.461     11.109
REMARK  Name = 
REMARK  6 active torsions:
REMARK  status: ('A' for Active; 'I' for Inactive)
REMARK    1  A    between atoms: C_2  and  C_3
REMARK    2  A    between atoms: C_3  and  C_4
REMARK    3  A    between atoms: C_4  and  C_5
REMARK    4  A    between atoms: N_11  and  C_12
REMARK    5  A    between atoms: C_16  and  N_17
REMARK    6  A    between atoms: C_18  and  C_20
REMARK                            x       y       z     vdW  Elec       q    Type
REMARK                         _______ _______ _______ _____ _____    ______ ____
ROOT
ATOM      1  C   UNL     1      -1.345  11.087  18.470  0.00  0.00    +0.000 A 
ATOM      2  C   UNL     1      -0.728  12.136  19.157  0.00  0.00    +0.000 A 
ATOM      3  C   UNL     1       0.651  12.173  19.303  0.00  0.00    +0.000 A 
ATOM      4  C   UNL     1       1.428  11.137  18.803  0.00  0.00    +0.000 A 
ATOM      5  C   UNL     1       0.842  10.017  18.202  0.00  0.00    +0.000 A 
ATOM      6  C   UNL     1      -0.551  10.016  18.008  0.00  0.00    +0.000 A 
ENDROOT
BRANCH   1   9
ATOM      7  O   UNL     1      -2.801  11.239  15.922  0.00  0.00    +0.000 OA
ATOM      8  C   UNL     1      -3.369  11.170  17.011  0.00  0.00    +0.000 C 
ATOM      9  N   UNL     1      -2.746  11.064  18.250  0.00  0.00    +0.000 N 
ATOM     10  H   UNL     1      -3.327  10.837  19.046  0.00  0.00    +0.000 HD
BRANCH   8  11
ATOM     11  C   UNL     1      -4.885  11.217  17.093  0.00  0.00    +0.000 C 
BRANCH  11  12
ATOM     12  C   UNL     1      -5.331  12.124  18.244  0.00  0.00    +0.000 C 
BRANCH  12  13
ATOM     13  C   UNL     1      -6.233  11.420  19.218  0.00  0.00    +0.000 A 
ATOM     14  C   UNL     1      -6.806  12.098  20.297  0.00  0.00    +0.000 A 
ATOM     15  C   UNL     1      -7.639  11.414  21.177  0.00  0.00    +0.000 A 
ATOM     16  C   UNL     1      -7.865  10.066  20.953  0.00  0.00    +0.000 A 
ATOM     17  N   UNL     1      -7.323   9.375  19.928  0.00  0.00    +0.000 NA
ATOM     18  C   UNL     1      -6.527  10.067  19.084  0.00  0.00    +0.000 A 
ENDBRANCH  12  13
ENDBRANCH  11  12
ENDBRANCH   8  11
ENDBRANCH   1   9
BRANCH   5  19
ATOM     19  N   UNL     1       1.622   8.892  17.803  0.00  0.00    +0.000 N 
ATOM     20  C   UNL     1       2.116   7.944  18.694  0.00  0.00    +0.000 C 
ATOM     21  O   UNL     1       1.910   7.931  19.904  0.00  0.00    +0.000 OA
ATOM     22  H   UNL     1       1.663   8.685  16.814  0.00  0.00    +0.000 HD
BRANCH  20  23
ATOM     23  C   UNL     1       2.925   6.810  18.170  0.00  0.00    +0.000 A 
ATOM     24  C   UNL     1       2.555   5.456  18.292  0.00  0.00    +0.000 A 
ATOM     25  C   UNL     1       3.307   4.459  17.644  0.00  0.00    +0.000 A 
ATOM     26  C   UNL     1       4.393   4.848  16.883  0.00  0.00    +0.000 A 
ATOM     27  C   UNL     1       4.760   6.165  16.774  0.00  0.00    +0.000 A 
ATOM     28  C   UNL     1       4.058   7.163  17.408  0.00  0.00    +0.000 A 
ATOM     29  O   UNL     1       5.835   6.349  15.963  0.00  0.00    +0.000 OA
ATOM     30  C   UNL     1       6.050   5.003  15.499  0.00  0.00    +0.000 C 
ATOM     31  O   UNL     1       5.194   4.032  16.147  0.00  0.00    +0.000 OA
ENDBRANCH  20  23
ENDBRANCH   5  19
TORSDOF 6
ENDMDL
MODEL 3
REMARK VINA RESULT:      -8.6      5.382      8.498
REMARK  Name = 
REMARK  6 active torsions:
REMARK  status: ('A' for Active; 'I' for Inactive)
REMARK    1  A    between atoms: C_2  and  C_3
REMARK    2  A    between atoms: C_3  and  C_4
REMARK    3  A    between atoms: C_4  and  C_5
REMARK    4  A    between atoms: N_11  and  C_12
REMARK    5  A    between atoms: C_16  and  N_17
REMARK    6  A    between atoms: C_18  and  C_20
REMARK                            x       y       z     vdW  Elec       q    Type
REMARK                         _______ _______ _______ _____ _____    ______ ____
ROOT
ATOM      1  C   UNL     1       5.622   6.041  17.834  0.00  0.00    +0.000 A 
ATOM      2  C   UNL     1       6.456   5.150  18.514  0.00  0.00    +0.000 A 
ATOM      3  C   UNL     1       7.701   5.554  18.973  0.00  0.00    +0.000 A 
ATOM      4  C   UNL     1       8.148   6.843  18.717  0.00  0.00    +0.000 A 
ATOM      5  C   UNL     1       7.389   7.733  17.949  0.00  0.00    +0.000 A 
ATOM      6  C   UNL     1       6.104   7.333  17.537  0.00  0.00    +0.000 A 
ENDROOT
BRANCH   1   9
ATOM      7  O   UNL     1       3.071   6.418  19.243  0.00  0.00    +0.000 OA
ATOM      8  C   UNL     1       3.153   5.854  18.153  0.00  0.00    +0.000 C 
ATOM      9  N   UNL     1       4.318   5.669  17.417  0.00  0.00    +0.000 N 
ATOM     10  H   UNL     1       4.220   5.351  16.461  0.00  0.00    +0.000 HD
BRANCH   8  11
ATOM     11  C   UNL     1       1.917   5.264  17.497  0.00  0.00    +0.000 C 
BRANCH  11  12
ATOM     12  C   UNL     1       1.963   3.733  17.545  0.00  0.00    +0.000 C 
BRANCH  12  13
ATOM     13  C   UNL     1       2.150   3.204  18.938  0.00  0.00    +0.000 A 
ATOM     14  C   UNL     1       1.103   3.213  19.864  0.00  0.00    +0.000 A 
ATOM     15  C   UNL     1       1.312   2.712  21.145  0.00  0.00    +0.000 A 
ATOM     16  C   UNL     1       2.569   2.223  21.463  0.00  0.00    +0.000 A 
ATOM     17  N   UNL     1       3.607   2.206  20.599  0.00  0.00    +0.000 NA
ATOM     18  C   UNL     1       3.372   2.690  19.359  0.00  0.00    +0.000 A 
ENDBRANCH  12  13
ENDBRANCH  11  12
ENDBRANCH   8  11
ENDBRANCH   1   9
BRANCH   5  19
ATOM     19  N   UNL     1       7.895   9.012  17.573  0.00  0.00    +0.000 N 
ATOM     20  C   UNL     1       8.618   9.835  18.432  0.00  0.00    +0.000 C 
ATOM     21  O   UNL     1       8.944   9.552  19.581  0.00  0.00    +0.000 OA
ATOM     22  H   UNL     1       7.877   9.246  16.590  0.00  0.00    +0.000 HD
BRANCH  20  23
ATOM     23  C   UNL     1       9.096  11.156  17.938  0.00  0.00    +0.000 A 
ATOM     24  C   UNL     1       8.260  12.272  17.743  0.00  0.00    +0.000 A 
ATOM     25  C   UNL     1       8.817  13.521  17.409  0.00  0.00    +0.000 A 
ATOM     26  C   UNL     1      10.192  13.615  17.297  0.00  0.00    +0.000 A 
ATOM     27  C   UNL     1      11.004  12.525  17.476  0.00  0.00    +0.000 A 
ATOM     28  C   UNL     1      10.491  11.287  17.785  0.00  0.00    +0.000 A 
ATOM     29  O   UNL     1      12.324  12.824  17.350  0.00  0.00    +0.000 OA
ATOM     30  C   UNL     1      12.256  14.250  17.161  0.00  0.00    +0.000 C 
ATOM     31  O   UNL     1      10.902  14.745  17.039  0.00  0.00    +0.000 OA
ENDBRANCH  20  23
ENDBRANCH   5  19
TORSDOF 6
ENDMDL
MODEL 4
REMARK VINA RESULT:      -8.5      2.804      5.050
REMARK  Name = 
REMARK  6 active torsions:
REMARK  status: ('A' for Active; 'I' for Inactive)
REMARK    1  A    between atoms: C_2  and  C_3
REMARK    2  A    between atoms: C_3  and  C_4
REMARK    3  A    between atoms: C_4  and  C_5
REMARK    4  A    between atoms: N_11  and  C_12
REMARK    5  A    between atoms: C_16  and  N_17
REMARK    6  A    between atoms: C_18  and  C_20
REMARK                            x       y       z     vdW  Elec       q    Type
REMARK                         _______ _______ _______ _____ _____    ______ ____
ROOT
ATOM      1  C   UNL     1       2.069   7.374  19.718  0.00  0.00    +0.000 A 
ATOM      2  C   UNL     1       2.442   7.622  18.394  0.00  0.00    +0.000 A 
ATOM      3  C   UNL     1       2.062   8.795  17.758  0.00  0.00    +0.000 A 
ATOM      4  C   UNL     1       1.264   9.716  18.424  0.00  0.00    +0.000 A 
ATOM      5  C   UNL     1       0.781   9.457  19.712  0.00  0.00    +0.000 A 
ATOM      6  C   UNL     1       1.219   8.292  20.369  0.00  0.00    +0.000 A 
ENDROOT
BRANCH   1   9
ATOM      7  O   UNL     1       0.611   4.867  20.185  0.00  0.00    +0.000 OA
ATOM      8  C   UNL     1       1.745   5.068  20.616  0.00  0.00    +0.000 C 
ATOM      9  N   UNL     1       2.504   6.214  20.408  0.00  0.00    +0.000 N 
ATOM     10  H   UNL     1       3.482   6.178  20.665  0.00  0.00    +0.000 HD
BRANCH   8  11
ATOM     11  C   UNL     1       2.437   4.025  21.476  0.00  0.00    +0.000 C 
BRANCH  11  12
ATOM     12  C   UNL     1       2.912   2.849  20.617  0.00  0.00    +0.000 C 
BRANCH  12  13
ATOM     13  C   UNL     1       3.680   3.293  19.405  0.00  0.00    +0.000 A 
ATOM     14  C   UNL     1       3.132   3.197  18.123  0.00  0.00    +0.000 A 
ATOM     15  C   UNL     1       3.871   3.621  17.023  0.00  0.00    +0.000 A 
ATOM     16  C   UNL     1       5.144   4.122  17.241  0.00  0.00    +0.000 A 
ATOM     17  N   UNL     1       5.711   4.222  18.463  0.00  0.00    +0.000 NA
ATOM     18  C   UNL     1       4.966   3.812  19.513  0.00  0.00    +0.000 A 
ENDBRANCH  12  13
ENDBRANCH  11  12
ENDBRANCH   8  11
ENDBRANCH   1   9
BRANCH   5  19
ATOM     19  N   UNL     1      -0.142  10.336  20.352  0.00  0.00    +0.000 N 
ATOM     20  C   UNL     1       0.242  11.355  21.219  0.00  0.00    +0.000 C 
ATOM     21  O   UNL     1       1.399  11.650  21.500  0.00  0.00    +0.000 OA
ATOM     22  H   UNL     1      -1.097  10.325  20.020  0.00  0.00    +0.000 HD
BRANCH  20  23
ATOM     23  C   UNL     1      -0.807  12.212  21.838  0.00  0.00    +0.000 A 
ATOM     24  C   UNL     1      -1.058  13.545  21.458  0.00  0.00    +0.000 A 
ATOM     25  C   UNL     1      -2.160  14.235  21.997  0.00  0.00    +0.000 A 
ATOM     26  C   UNL     1      -2.983  13.565  22.883  0.00  0.00    +0.000 A 
ATOM     27  C   UNL     1      -2.731  12.271  23.260  0.00  0.00    +0.000 A 
ATOM     28  C   UNL     1      -1.653  11.574  22.767  0.00  0.00    +0.000 A 
ATOM     29  O   UNL     1      -3.665  11.779  24.116  0.00  0.00    +0.000 OA
ATOM     30  C   UNL     1      -4.588  12.883  24.166  0.00  0.00    +0.000 C 
ATOM     31  O   UNL     1      -4.116  14.052  23.455  0.00  0.00    +0.000 OA
ENDBRANCH  20  23
ENDBRANCH   5  19
TORSDOF 6
ENDMDL
MODEL 5
REMARK VINA RESULT:      -8.2      0.795      1.413
REMARK  Name = 
REMARK  6 active torsions:
REMARK  status: ('A' for Active; 'I' for Inactive)
REMARK    1  A    between atoms: C_2  and  C_3
REMARK    2  A    between atoms: C_3  and  C_4
REMARK    3  A    between atoms: C_4  and  C_5
REMARK    4  A    between atoms: N_11  and  C_12
REMARK    5  A    between atoms: C_16  and  N_17
REMARK    6  A    between atoms: C_18  and  C_20
REMARK                            x       y       z     vdW  Elec       q    Type
REMARK                         _______ _______ _______ _____ _____    ______ ____
ROOT
ATOM      1  C   UNL     1       3.716   4.101  19.146  0.00  0.00    +0.000 A 
ATOM      2  C   UNL     1       3.434   2.890  19.783  0.00  0.00    +0.000 A 
ATOM      3  C   UNL     1       2.407   2.800  20.712  0.00  0.00    +0.000 A 
ATOM      4  C   UNL     1       1.679   3.932  21.050  0.00  0.00    +0.000 A 
ATOM      5  C   UNL     1       1.999   5.185  20.515  0.00  0.00    +0.000 A 
ATOM      6  C   UNL     1       3.003   5.256  19.533  0.00  0.00    +0.000 A 
ENDROOT
BRANCH   1   9
ATOM      7  O   UNL     1       6.566   4.744  19.460  0.00  0.00    +0.000 OA
ATOM      8  C   UNL     1       6.046   4.538  18.365  0.00  0.00    +0.000 C 
ATOM      9  N   UNL     1       4.716   4.199  18.145  0.00  0.00    +0.000 N 
ATOM     10  H   UNL     1       4.462   3.884  17.217  0.00  0.00    +0.000 HD
BRANCH   8  11
ATOM     11  C   UNL     1       6.862   4.664  17.090  0.00  0.00    +0.000 C 
BRANCH  11  12
ATOM     12  C   UNL     1       6.071   5.422  16.019  0.00  0.00    +0.000 C 
BRANCH  12  13
ATOM     13  C   UNL     1       6.305   4.881  14.637  0.00  0.00    +0.000 A 
ATOM     14  C   UNL     1       5.401   3.998  14.041  0.00  0.00    +0.000 A 
ATOM     15  C   UNL     1       5.649   3.520  12.758  0.00  0.00    +0.000 A 
ATOM     16  C   UNL     1       6.802   3.937  12.113  0.00  0.00    +0.000 A 
ATOM     17  N   UNL     1       7.703   4.782  12.659  0.00  0.00    +0.000 NA
ATOM     18  C   UNL     1       7.431   5.237  13.902  0.00  0.00    +0.000 A 
ENDBRANCH  12  13
ENDBRANCH  11  12
ENDBRANCH   8  11
ENDBRANCH   1   9
BRANCH   5  19
ATOM     19  N   UNL     1       1.342   6.373  20.954  0.00  0.00    +0.000 N 
ATOM     20  C   UNL     1       1.521   7.616  20.355  0.00  0.00    +0.000 C 
ATOM     21  O   UNL     1       2.217   7.836  19.368  0.00  0.00    +0.000 OA
ATOM     22  H   UNL     1       0.583   6.264  21.612  0.00  0.00    +0.000 HD
BRANCH  20  23
ATOM     23  C   UNL     1       0.789   8.793  20.898  0.00  0.00    +0.000 A 
ATOM     24  C   UNL     1       0.708   9.106  22.269  0.00  0.00    +0.000 A 
ATOM     25  C   UNL     1       0.117  10.314  22.683  0.00  0.00    +0.000 A 
ATOM     26  C   UNL     1      -0.359  11.176  21.712  0.00  0.00    +0.000 A 
ATOM     27  C   UNL     1      -0.290  10.866  20.378  0.00  0.00    +0.000 A 
ATOM     28  C   UNL     1       0.265   9.687  19.941  0.00  0.00    +0.000 A 
ATOM     29  O   UNL     1      -0.785  11.849  19.581  0.00  0.00    +0.000 OA
ATOM     30  C   UNL     1      -1.093  12.857  20.562  0.00  0.00    +0.000 C 
ATOM     31  O   UNL     1      -0.906  12.403  21.923  0.00  0.00    +0.000 OA
ENDBRANCH  20  23
ENDBRANCH   5  19
TORSDOF 6
ENDMDL
MODEL 6
REMARK VINA RESULT:      -8.2      4.570     10.975
REMARK  Name = 
REMARK  6 active torsions:
REMARK  status: ('A' for Active; 'I' for Inactive)
REMARK    1  A    between atoms: C_2  and  C_3
REMARK    2  A    between atoms: C_3  and  C_4
REMARK    3  A    between atoms: C_4  and  C_5
REMARK    4  A    between atoms: N_11  and  C_12
REMARK    5  A    between atoms: C_16  and  N_17
REMARK    6  A    between atoms: C_18  and  C_20
REMARK                            x       y       z     vdW  Elec       q    Type
REMARK                         _______ _______ _______ _____ _____    ______ ____
ROOT
ATOM      1  C   UNL     1      -1.500  11.603  18.736  0.00  0.00    +0.000 A 
ATOM      2  C   UNL     1      -0.989  12.320  19.821  0.00  0.00    +0.000 A 
ATOM      3  C   UNL     1       0.311  12.113  20.260  0.00  0.00    +0.000 A 
ATOM      4  C   UNL     1       1.102  11.151  19.648  0.00  0.00    +0.000 A 
ATOM      5  C   UNL     1       0.594  10.338  18.628  0.00  0.00    +0.000 A 
ATOM      6  C   UNL     1      -0.704  10.595  18.152  0.00  0.00    +0.000 A 
ENDROOT
BRANCH   1   9
ATOM      7  O   UNL     1      -3.471   9.666  17.738  0.00  0.00    +0.000 OA
ATOM      8  C   UNL     1      -3.673  10.879  17.745  0.00  0.00    +0.000 C 
ATOM      9  N   UNL     1      -2.801  11.848  18.229  0.00  0.00    +0.000 N 
ATOM     10  H   UNL     1      -3.162  12.787  18.338  0.00  0.00    +0.000 HD
BRANCH   8  11
ATOM     11  C   UNL     1      -4.960  11.448  17.172  0.00  0.00    +0.000 C 
BRANCH  11  12
ATOM     12  C   UNL     1      -5.733  12.215  18.249  0.00  0.00    +0.000 C 
BRANCH  12  13
ATOM     13  C   UNL     1      -6.437  11.304  19.214  0.00  0.00    +0.000 A 
ATOM     14  C   UNL     1      -6.763   9.991  18.866  0.00  0.00    +0.000 A 
ATOM     15  C   UNL     1      -7.412   9.174  19.788  0.00  0.00    +0.000 A 
ATOM     16  C   UNL     1      -7.723   9.704  21.029  0.00  0.00    +0.000 A 
ATOM     17  N   UNL     1      -7.432  10.970  21.399  0.00  0.00    +0.000 NA
ATOM     18  C   UNL     1      -6.793  11.736  20.488  0.00  0.00    +0.000 A 
ENDBRANCH  12  13
ENDBRANCH  11  12
ENDBRANCH   8  11
ENDBRANCH   1   9
BRANCH   5  19
ATOM     19  N   UNL     1       1.357   9.263  18.083  0.00  0.00    +0.000 N 
ATOM     20  C   UNL     1       1.893   8.234  18.852  0.00  0.00    +0.000 C 
ATOM     21  O   UNL     1       1.742   8.099  20.062  0.00  0.00    +0.000 OA
ATOM     22  H   UNL     1       1.353   9.156  17.078  0.00  0.00    +0.000 HD
BRANCH  20  23
ATOM     23  C   UNL     1       2.679   7.162  18.181  0.00  0.00    +0.000 A 
ATOM     24  C   UNL     1       3.859   7.395  17.447  0.00  0.00    +0.000 A 
ATOM     25  C   UNL     1       4.615   6.310  16.965  0.00  0.00    +0.000 A 
ATOM     26  C   UNL     1       4.176   5.030  17.247  0.00  0.00    +0.000 A 
ATOM     27  C   UNL     1       3.022   4.804  17.952  0.00  0.00    +0.000 A 
ATOM     28  C   UNL     1       2.250   5.841  18.421  0.00  0.00    +0.000 A 
ATOM     29  O   UNL     1       2.773   3.483  18.150  0.00  0.00    +0.000 OA
ATOM     30  C   UNL     1       3.953   2.900  17.566  0.00  0.00    +0.000 C 
ATOM     31  O   UNL     1       4.805   3.871  16.914  0.00  0.00    +0.000 OA
ENDBRANCH  20  23
ENDBRANCH   5  19
TORSDOF 6
ENDMDL
MODEL 7
REMARK VINA RESULT:      -8.2      2.407      5.112
REMARK  Name = 
REMARK  6 active torsions:
REMARK  status: ('A' for Active; 'I' for Inactive)
REMARK    1  A    between atoms: C_2  and  C_3
REMARK    2  A    between atoms: C_3  and  C_4
REMARK    3  A    between atoms: C_4  and  C_5
REMARK    4  A    between atoms: N_11  and  C_12
REMARK    5  A    between atoms: C_16  and  N_17
REMARK    6  A    between atoms: C_18  and  C_20
REMARK                            x       y       z     vdW  Elec       q    Type
REMARK                         _______ _______ _______ _____ _____    ______ ____
ROOT
ATOM      1  C   UNL     1       1.970   7.895  19.575  0.00  0.00    +0.000 A 
ATOM      2  C   UNL     1       2.220   8.333  18.272  0.00  0.00    +0.000 A 
ATOM      3  C   UNL     1       1.726   9.551  17.826  0.00  0.00    +0.000 A 
ATOM      4  C   UNL     1       0.936  10.325  18.664  0.00  0.00    +0.000 A 
ATOM      5  C   UNL     1       0.574   9.875  19.939  0.00  0.00    +0.000 A 
ATOM      6  C   UNL     1       1.126   8.667  20.402  0.00  0.00    +0.000 A 
ENDROOT
BRANCH   1   9
ATOM      7  O   UNL     1       1.593   5.160  18.571  0.00  0.00    +0.000 OA
ATOM      8  C   UNL     1       2.276   5.418  19.560  0.00  0.00    +0.000 C 
ATOM      9  N   UNL     1       2.522   6.687  20.072  0.00  0.00    +0.000 N 
ATOM     10  H   UNL     1       3.241   6.773  20.779  0.00  0.00    +0.000 HD
BRANCH   8  11
ATOM     11  C   UNL     1       2.924   4.302  20.360  0.00  0.00    +0.000 C 
BRANCH  11  12
ATOM     12  C   UNL     1       3.445   3.205  19.425  0.00  0.00    +0.000 C 
BRANCH  12  13
ATOM     13  C   UNL     1       4.558   3.683  18.537  0.00  0.00    +0.000 A 
ATOM     14  C   UNL     1       4.467   3.592  17.146  0.00  0.00    +0.000 A 
ATOM     15  C   UNL     1       5.517   4.048  16.354  0.00  0.00    +0.000 A 
ATOM     16  C   UNL     1       6.632   4.575  16.984  0.00  0.00    +0.000 A 
ATOM     17  N   UNL     1       6.761   4.672  18.325  0.00  0.00    +0.000 NA
ATOM     18  C   UNL     1       5.722   4.230  19.067  0.00  0.00    +0.000 A 
ENDBRANCH  12  13
ENDBRANCH  11  12
ENDBRANCH   8  11
ENDBRANCH   1   9
BRANCH   5  19
ATOM     19  N   UNL     1      -0.340  10.603  20.755  0.00  0.00    +0.000 N 
ATOM     20  C   UNL     1       0.006  11.755  21.457  0.00  0.00    +0.000 C 
ATOM     21  O   UNL     1       1.104  12.302  21.428  0.00  0.00    +0.000 OA
ATOM     22  H   UNL     1      -1.320  10.369  20.674  0.00  0.00    +0.000 HD
BRANCH  20  23
ATOM     23  C   UNL     1      -1.027  12.435  22.286  0.00  0.00    +0.000 A 
ATOM     24  C   UNL     1      -2.288  11.881  22.583  0.00  0.00    +0.000 A 
ATOM     25  C   UNL     1      -3.148  12.530  23.488  0.00  0.00    +0.000 A 
ATOM     26  C   UNL     1      -2.712  13.701  24.080  0.00  0.00    +0.000 A 
ATOM     27  C   UNL     1      -1.489  14.245  23.782  0.00  0.00    +0.000 A 
ATOM     28  C   UNL     1      -0.633  13.647  22.888  0.00  0.00    +0.000 A 
ATOM     29  O   UNL     1      -1.231  15.380  24.483  0.00  0.00    +0.000 OA
ATOM     30  C   UNL     1      -2.396  15.442  25.327  0.00  0.00    +0.000 C 
ATOM     31  O   UNL     1      -3.380  14.428  25.015  0.00  0.00    +0.000 OA
ENDBRANCH  20  23
ENDBRANCH   5  19
TORSDOF 6
ENDMDL
MODEL 8
REMARK VINA RESULT:      -8.1      3.068      5.143
REMARK  Name = 
REMARK  6 active torsions:
REMARK  status: ('A' for Active; 'I' for Inactive)
REMARK    1  A    between atoms: C_2  and  C_3
REMARK    2  A    between atoms: C_3  and  C_4
REMARK    3  A    between atoms: C_4  and  C_5
REMARK    4  A    between atoms: N_11  and  C_12
REMARK    5  A    between atoms: C_16  and  N_17
REMARK    6  A    between atoms: C_18  and  C_20
REMARK                            x       y       z     vdW  Elec       q    Type
REMARK                         _______ _______ _______ _____ _____    ______ ____
ROOT
ATOM      1  C   UNL     1       2.209   7.269  19.699  0.00  0.00    +0.000 A 
ATOM      2  C   UNL     1       2.717   7.493  18.416  0.00  0.00    +0.000 A 
ATOM      3  C   UNL     1       2.392   8.646  17.716  0.00  0.00    +0.000 A 
ATOM      4  C   UNL     1       1.519   9.570  18.273  0.00  0.00    +0.000 A 
ATOM      5  C   UNL     1       0.906   9.334  19.509  0.00  0.00    +0.000 A 
ATOM      6  C   UNL     1       1.285   8.190  20.235  0.00  0.00    +0.000 A 
ENDROOT
BRANCH   1   9
ATOM      7  O   UNL     1       0.601   4.899  20.355  0.00  0.00    +0.000 OA
ATOM      8  C   UNL     1       1.754   5.053  20.753  0.00  0.00    +0.000 C 
ATOM      9  N   UNL     1       2.582   6.130  20.457  0.00  0.00    +0.000 N 
ATOM     10  H   UNL     1       3.561   6.046  20.700  0.00  0.00    +0.000 HD
BRANCH   8  11
ATOM     11  C   UNL     1       2.395   4.025  21.670  0.00  0.00    +0.000 C 
BRANCH  11  12
ATOM     12  C   UNL     1       2.677   2.727  20.907  0.00  0.00    +0.000 C 
BRANCH  12  13
ATOM     13  C   UNL     1       3.076   2.971  19.479  0.00  0.00    +0.000 A 
ATOM     14  C   UNL     1       4.319   3.521  19.157  0.00  0.00    +0.000 A 
ATOM     15  C   UNL     1       4.656   3.730  17.823  0.00  0.00    +0.000 A 
ATOM     16  C   UNL     1       3.730   3.388  16.851  0.00  0.00    +0.000 A 
ATOM     17  N   UNL     1       2.515   2.864  17.123  0.00  0.00    +0.000 NA
ATOM     18  C   UNL     1       2.220   2.662  18.427  0.00  0.00    +0.000 A 
ENDBRANCH  12  13
ENDBRANCH  11  12
ENDBRANCH   8  11
ENDBRANCH   1   9
BRANCH   5  19
ATOM     19  N   UNL     1      -0.089  10.214  20.028  0.00  0.00    +0.000 N 
ATOM     20  C   UNL     1       0.101  11.009  21.155  0.00  0.00    +0.000 C 
ATOM     21  O   UNL     1       1.140  11.086  21.803  0.00  0.00    +0.000 OA
ATOM     22  H   UNL     1      -0.896  10.394  19.447  0.00  0.00    +0.000 HD
BRANCH  20  23
ATOM     23  C   UNL     1      -1.008  11.889  21.615  0.00  0.00    +0.000 A 
ATOM     24  C   UNL     1      -1.464  13.017  20.905  0.00  0.00    +0.000 A 
ATOM     25  C   UNL     1      -2.609  13.709  21.340  0.00  0.00    +0.000 A 
ATOM     26  C   UNL     1      -3.270  13.242  22.461  0.00  0.00    +0.000 A 
ATOM     27  C   UNL     1      -2.820  12.150  23.158  0.00  0.00    +0.000 A 
ATOM     28  C   UNL     1      -1.694  11.462  22.770  0.00  0.00    +0.000 A 
ATOM     29  O   UNL     1      -3.617  11.830  24.211  0.00  0.00    +0.000 OA
ATOM     30  C   UNL     1      -4.675  12.792  24.045  0.00  0.00    +0.000 C 
ATOM     31  O   UNL     1      -4.417  13.747  22.989  0.00  0.00    +0.000 OA
ENDBRANCH  20  23
ENDBRANCH   5  19
TORSDOF 6
ENDMDL
MODEL 9
REMARK VINA RESULT:      -8.1      4.421     10.199
REMARK  Name = 
REMARK  6 active torsions:
REMARK  status: ('A' for Active; 'I' for Inactive)
REMARK    1  A    between atoms: C_2  and  C_3
REMARK    2  A    between atoms: C_3  and  C_4
REMARK    3  A    between atoms: C_4  and  C_5
REMARK    4  A    between atoms: N_11  and  C_12
REMARK    5  A    between atoms: C_16  and  N_17
REMARK    6  A    between atoms: C_18  and  C_20
REMARK                            x       y       z     vdW  Elec       q    Type
REMARK                         _______ _______ _______ _____ _____    ______ ____
ROOT
ATOM      1  C   UNL     1       0.160  10.644  20.095  0.00  0.00    +0.000 A 
ATOM      2  C   UNL     1      -0.245  10.192  21.354  0.00  0.00    +0.000 A 
ATOM      3  C   UNL     1       0.268   9.016  21.884  0.00  0.00    +0.000 A 
ATOM      4  C   UNL     1       1.158   8.253  21.141  0.00  0.00    +0.000 A 
ATOM      5  C   UNL     1       1.508   8.615  19.835  0.00  0.00    +0.000 A 
ATOM      6  C   UNL     1       1.028   9.837  19.329  0.00  0.00    +0.000 A 
ENDROOT
BRANCH   1   9
ATOM      7  O   UNL     1       1.687  13.103  19.592  0.00  0.00    +0.000 OA
ATOM      8  C   UNL     1       0.479  13.014  19.379  0.00  0.00    +0.000 C 
ATOM      9  N   UNL     1      -0.299  11.876  19.564  0.00  0.00    +0.000 N 
ATOM     10  H   UNL     1      -1.237  11.886  19.183  0.00  0.00    +0.000 HD
BRANCH   8  11
ATOM     11  C   UNL     1      -0.307  14.217  18.888  0.00  0.00    +0.000 C 
BRANCH  11  12
ATOM     12  C   UNL     1       0.233  15.505  19.518  0.00  0.00    +0.000 C 
BRANCH  12  13
ATOM     13  C   UNL     1       0.452  16.594  18.507  0.00  0.00    +0.000 A 
ATOM     14  C   UNL     1      -0.623  17.249  17.901  0.00  0.00    +0.000 A 
ATOM     15  C   UNL     1      -0.383  18.256  16.972  0.00  0.00    +0.000 A 
ATOM     16  C   UNL     1       0.932  18.571  16.671  0.00  0.00    +0.000 A 
ATOM     17  N   UNL     1       1.998  17.956  17.229  0.00  0.00    +0.000 NA
ATOM     18  C   UNL     1       1.733  16.989  18.135  0.00  0.00    +0.000 A 
ENDBRANCH  12  13
ENDBRANCH  11  12
ENDBRANCH   8  11
ENDBRANCH   1   9
BRANCH   5  19
ATOM     19  N   UNL     1       2.319   7.771  19.020  0.00  0.00    +0.000 N 
ATOM     20  C   UNL     1       2.482   6.408  19.249  0.00  0.00    +0.000 C 
ATOM     21  O   UNL     1       1.927   5.765  20.135  0.00  0.00    +0.000 OA
ATOM     22  H   UNL     1       2.641   8.150  18.140  0.00  0.00    +0.000 HD
BRANCH  20  23
ATOM     23  C   UNL     1       3.358   5.621  18.338  0.00  0.00    +0.000 A 
ATOM     24  C   UNL     1       3.279   4.223  18.185  0.00  0.00    +0.000 A 
ATOM     25  C   UNL     1       4.048   3.577  17.199  0.00  0.00    +0.000 A 
ATOM     26  C   UNL     1       4.857   4.352  16.389  0.00  0.00    +0.000 A 
ATOM     27  C   UNL     1       4.942   5.711  16.546  0.00  0.00    +0.000 A 
ATOM     28  C   UNL     1       4.219   6.371  17.511  0.00  0.00    +0.000 A 
ATOM     29  O   UNL     1       5.768   6.297  15.640  0.00  0.00    +0.000 OA
ATOM     30  C   UNL     1       6.125   5.160  14.832  0.00  0.00    +0.000 C 
ATOM     31  O   UNL     1       5.621   3.909  15.354  0.00  0.00    +0.000 OA
ENDBRANCH  20  23
ENDBRANCH   5  19
TORSDOF 6
ENDMDL
