MODEL 1
REMARK VINA RESULT:      -8.6      0.000      0.000
REMARK  Name = 
REMARK  7 active torsions:
REMARK  status: ('A' for Active; 'I' for Inactive)
REMARK    1  A    between atoms: C_1  and  C_2
REMARK    2  A    between atoms: C_2  and  C_10
REMARK    3  A    between atoms: C_3  and  C_4
REMARK    4  A    between atoms: N_8  and  C_9
REMARK    5  A    between atoms: C_14  and  N_15
REMARK    6  A    between atoms: C_23  and  C_24
REMARK    7  A    between atoms: C_24  and  C_25
REMARK                            x       y       z     vdW  Elec       q    Type
REMARK                         _______ _______ _______ _____ _____    ______ ____
ROOT
ATOM      1  C   UNL     1       2.178   5.748  20.103  0.00  0.00    +0.000 A 
ATOM      2  C   UNL     1       1.152   5.029  20.728  0.00  0.00    +0.000 A 
ATOM      3  C   UNL     1       1.339   3.690  21.060  0.00  0.00    +0.000 A 
ATOM      4  C   UNL     1       2.506   3.037  20.673  0.00  0.00    +0.000 A 
ATOM      5  C   UNL     1       3.422   3.692  19.834  0.00  0.00    +0.000 A 
ATOM      6  C   UNL     1       3.332   5.080  19.683  0.00  0.00    +0.000 A 
ENDROOT
BRANCH   5   7
ATOM      7  N   UNL     1       4.114   2.932  18.799  0.00  0.00    +0.000 N 
ATOM      8  C   UNL     1       5.566   3.243  18.816  0.00  0.00    +0.000 C 
ATOM      9  C   UNL     1       5.658   4.372  17.834  0.00  0.00    +0.000 A 
ATOM     10  C   UNL     1       4.599   4.223  16.931  0.00  0.00    +0.000 A 
ATOM     11  C   UNL     1       4.288   5.165  15.969  0.00  0.00    +0.000 A 
ATOM     12  C   UNL     1       5.071   6.310  15.950  0.00  0.00    +0.000 A 
ATOM     13  F   UNL     1       4.767   7.297  15.098  0.00  0.00    +0.000 F 
ATOM     14  C   UNL     1       6.127   6.495  16.856  0.00  0.00    +0.000 A 
ATOM     15  C   UNL     1       6.447   5.521  17.822  0.00  0.00    +0.000 A 
ATOM     16  C   UNL     1       3.694   3.187  17.465  0.00  0.00    +0.000 C 
ATOM     17  O   UNL     1       2.676   2.821  16.916  0.00  0.00    +0.000 OA
BRANCH  15  18
ATOM     18  C   UNL     1       7.547   5.790  18.821  0.00  0.00    +0.000 C 
ATOM     19  C   UNL     1       8.161   7.158  18.585  0.00  0.00    +0.000 C 
ATOM     20  F   UNL     1       7.092   5.754  20.108  0.00  0.00    +0.000 F 
ATOM     21  F   UNL     1       8.552   4.870  18.778  0.00  0.00    +0.000 F 
ENDBRANCH  15  18
ENDBRANCH   5   7
BRANCH   1  23
ATOM     22  C   UNL     1       2.648   7.605  18.493  0.00  0.00    +0.000 C 
ATOM     23  C   UNL     1       1.991   7.174  19.779  0.00  0.00    +0.000 C 
ATOM     24  C   UNL     1       1.261   7.921  20.631  0.00  0.00    +0.000 C 
BRANCH  24  25
ATOM     25  C   UNL     1       1.042   9.302  20.459  0.00  0.00    +0.000 A 
ATOM     26  N   UNL     1       1.222  10.088  19.413  0.00  0.00    +0.000 NA
ATOM     27  N   UNL     1       0.822  11.362  19.730  0.00  0.00    +0.000 NA
ATOM     28  C   UNL     1       0.422  11.347  20.977  0.00  0.00    +0.000 A 
ATOM     29  N   UNL     1       0.561  10.088  21.487  0.00  0.00    +0.000 N 
ATOM     30  C   UNL     1       0.218   9.705  22.831  0.00  0.00    +0.000 C 
ENDBRANCH  24  25
ENDBRANCH   1  23
TORSDOF 4
ENDMDL
MODEL 2
REMARK VINA RESULT:      -8.6      4.051      8.466
REMARK  Name = 
REMARK  7 active torsions:
REMARK  status: ('A' for Active; 'I' for Inactive)
REMARK    1  A    between atoms: C_1  and  C_2
REMARK    2  A    between atoms: C_2  and  C_10
REMARK    3  A    between atoms: C_3  and  C_4
REMARK    4  A    between atoms: N_8  and  C_9
REMARK    5  A    between atoms: C_14  and  N_15
REMARK    6  A    between atoms: C_23  and  C_24
REMARK    7  A    between atoms: C_24  and  C_25
REMARK                            x       y       z     vdW  Elec       q    Type
REMARK                         _______ _______ _______ _____ _____    ______ ____
ROOT
ATOM      1  C   UNL     1       2.238   6.915  19.448  0.00  0.00    +0.000 A 
ATOM      2  C   UNL     1       2.322   7.398  18.137  0.00  0.00    +0.000 A 
ATOM      3  C   UNL     1       2.030   8.732  17.864  0.00  0.00    +0.000 A 
ATOM      4  C   UNL     1       1.549   9.557  18.877  0.00  0.00    +0.000 A 
ATOM      5  C   UNL     1       1.232   9.006  20.129  0.00  0.00    +0.000 A 
ATOM      6  C   UNL     1       1.720   7.736  20.454  0.00  0.00    +0.000 A 
ENDROOT
BRANCH   5   7
ATOM      7  N   UNL     1       0.068   9.502  20.855  0.00  0.00    +0.000 N 
ATOM      8  C   UNL     1      -1.152   9.380  20.017  0.00  0.00    +0.000 C 
ATOM      9  C   UNL     1      -1.200  10.714  19.334  0.00  0.00    +0.000 A 
ATOM     10  C   UNL     1      -0.556  11.631  20.172  0.00  0.00    +0.000 A 
ATOM     11  C   UNL     1      -0.287  12.935  19.799  0.00  0.00    +0.000 A 
ATOM     12  C   UNL     1      -0.666  13.301  18.516  0.00  0.00    +0.000 A 
ATOM     13  F   UNL     1      -0.358  14.524  18.065  0.00  0.00    +0.000 F 
ATOM     14  C   UNL     1      -1.295  12.396  17.647  0.00  0.00    +0.000 A 
ATOM     15  C   UNL     1      -1.580  11.074  18.042  0.00  0.00    +0.000 A 
ATOM     16  C   UNL     1       0.122  10.870  21.238  0.00  0.00    +0.000 C 
ATOM     17  O   UNL     1       0.771  11.375  22.130  0.00  0.00    +0.000 OA
BRANCH  15  18
ATOM     18  C   UNL     1      -2.197  10.113  17.054  0.00  0.00    +0.000 C 
ATOM     19  C   UNL     1      -2.719  10.858  15.839  0.00  0.00    +0.000 C 
ATOM     20  F   UNL     1      -1.300   9.180  16.617  0.00  0.00    +0.000 F 
ATOM     21  F   UNL     1      -3.230   9.392  17.575  0.00  0.00    +0.000 F 
ENDBRANCH  15  18
ENDBRANCH   5   7
BRANCH   1  23
ATOM     22  C   UNL     1       1.775   4.905  20.866  0.00  0.00    +0.000 C 
ATOM     23  C   UNL     1       2.577   5.511  19.743  0.00  0.00    +0.000 C 
ATOM     24  C   UNL     1       3.529   4.924  18.991  0.00  0.00    +0.000 C 
BRANCH  24  25
ATOM     25  C   UNL     1       3.974   3.604  19.196  0.00  0.00    +0.000 A 
ATOM     26  N   UNL     1       4.942   3.119  19.954  0.00  0.00    +0.000 NA
ATOM     27  N   UNL     1       4.959   1.751  19.845  0.00  0.00    +0.000 NA
ATOM     28  C   UNL     1       4.014   1.413  19.004  0.00  0.00    +0.000 A 
ATOM     29  N   UNL     1       3.384   2.535  18.550  0.00  0.00    +0.000 N 
ATOM     30  C   UNL     1       2.293   2.541  17.612  0.00  0.00    +0.000 C 
ENDBRANCH  24  25
ENDBRANCH   1  23
TORSDOF 4
ENDMDL
MODEL 3
REMARK VINA RESULT:      -8.6      2.396      4.135
REMARK  Name = 
REMARK  7 active torsions:
REMARK  status: ('A' for Active; 'I' for Inactive)
REMARK    1  A    between atoms: C_1  and  C_2
REMARK    2  A    between atoms: C_2  and  C_10
REMARK    3  A    between atoms: C_3  and  C_4
REMARK    4  A    between atoms: N_8  and  C_9
REMARK    5  A    between atoms: C_14  and  N_15
REMARK    6  A    between atoms: C_23  and  C_24
REMARK    7  A    between atoms: C_24  and  C_25
REMARK                            x       y       z     vdW  Elec       q    Type
REMARK                         _______ _______ _______ _____ _____    ______ ____
ROOT
ATOM      1  C   UNL     1       1.033   8.990  20.021  0.00  0.00    +0.000 A 
ATOM      2  C   UNL     1       1.490   9.579  18.836  0.00  0.00    +0.000 A 
ATOM      3  C   UNL     1       2.229   8.830  17.923  0.00  0.00    +0.000 A 
ATOM      4  C   UNL     1       2.605   7.528  18.240  0.00  0.00    +0.000 A 
ATOM      5  C   UNL     1       2.357   7.028  19.528  0.00  0.00    +0.000 A 
ATOM      6  C   UNL     1       1.444   7.695  20.351  0.00  0.00    +0.000 A 
ENDROOT
BRANCH   5   7
ATOM      7  N   UNL     1       3.343   6.157  20.159  0.00  0.00    +0.000 N 
ATOM      8  C   UNL     1       4.520   5.984  19.271  0.00  0.00    +0.000 C 
ATOM      9  C   UNL     1       4.153   4.752  18.498  0.00  0.00    +0.000 A 
ATOM     10  C   UNL     1       3.292   4.000  19.304  0.00  0.00    +0.000 A 
ATOM     11  C   UNL     1       2.639   2.865  18.858  0.00  0.00    +0.000 A 
ATOM     12  C   UNL     1       2.857   2.507  17.536  0.00  0.00    +0.000 A 
ATOM     13  F   UNL     1       2.189   1.467  17.020  0.00  0.00    +0.000 F 
ATOM     14  C   UNL     1       3.700   3.255  16.699  0.00  0.00    +0.000 A 
ATOM     15  C   UNL     1       4.374   4.400  17.167  0.00  0.00    +0.000 A 
ATOM     16  C   UNL     1       2.899   4.839  20.452  0.00  0.00    +0.000 C 
ATOM     17  O   UNL     1       2.156   4.477  21.340  0.00  0.00    +0.000 OA
BRANCH  15  18
ATOM     18  C   UNL     1       5.218   5.215  16.216  0.00  0.00    +0.000 C 
ATOM     19  C   UNL     1       5.400   4.479  14.901  0.00  0.00    +0.000 C 
ATOM     20  F   UNL     1       4.655   6.428  15.940  0.00  0.00    +0.000 F 
ATOM     21  F   UNL     1       6.456   5.504  16.706  0.00  0.00    +0.000 F 
ENDBRANCH  15  18
ENDBRANCH   5   7
BRANCH   1  23
ATOM     22  C   UNL     1      -0.401   8.953  22.072  0.00  0.00    +0.000 C 
ATOM     23  C   UNL     1       0.224   9.774  20.973  0.00  0.00    +0.000 C 
ATOM     24  C   UNL     1       0.143  11.105  20.780  0.00  0.00    +0.000 C 
BRANCH  24  25
ATOM     25  C   UNL     1      -0.629  11.959  21.591  0.00  0.00    +0.000 A 
ATOM     26  N   UNL     1      -0.440  12.393  22.824  0.00  0.00    +0.000 NA
ATOM     27  N   UNL     1      -1.459  13.247  23.164  0.00  0.00    +0.000 NA
ATOM     28  C   UNL     1      -2.274  13.311  22.141  0.00  0.00    +0.000 A 
ATOM     29  N   UNL     1      -1.814  12.506  21.140  0.00  0.00    +0.000 N 
ATOM     30  C   UNL     1      -2.459  12.331  19.865  0.00  0.00    +0.000 C 
ENDBRANCH  24  25
ENDBRANCH   1  23
TORSDOF 4
ENDMDL
MODEL 4
REMARK VINA RESULT:      -8.3      5.137      9.610
REMARK  Name = 
REMARK  7 active torsions:
REMARK  status: ('A' for Active; 'I' for Inactive)
REMARK    1  A    between atoms: C_1  and  C_2
REMARK    2  A    between atoms: C_2  and  C_10
REMARK    3  A    between atoms: C_3  and  C_4
REMARK    4  A    between atoms: N_8  and  C_9
REMARK    5  A    between atoms: C_14  and  N_15
REMARK    6  A    between atoms: C_23  and  C_24
REMARK    7  A    between atoms: C_24  and  C_25
REMARK                            x       y       z     vdW  Elec       q    Type
REMARK                         _______ _______ _______ _____ _____    ______ ____
ROOT
ATOM      1  C   UNL     1       1.205   8.650  19.936  0.00  0.00    +0.000 A 
ATOM      2  C   UNL     1       1.219   8.421  21.317  0.00  0.00    +0.000 A 
ATOM      3  C   UNL     1       0.351   9.123  22.151  0.00  0.00    +0.000 A 
ATOM      4  C   UNL     1      -0.454  10.128  21.624  0.00  0.00    +0.000 A 
ATOM      5  C   UNL     1      -0.286  10.522  20.286  0.00  0.00    +0.000 A 
ATOM      6  C   UNL     1       0.422   9.686  19.417  0.00  0.00    +0.000 A 
ENDROOT
BRANCH   5   7
ATOM      7  N   UNL     1      -0.411  11.932  19.934  0.00  0.00    +0.000 N 
ATOM      8  C   UNL     1      -0.781  12.730  21.130  0.00  0.00    +0.000 C 
ATOM      9  C   UNL     1      -2.279  12.735  21.054  0.00  0.00    +0.000 A 
ATOM     10  C   UNL     1      -2.625  12.592  19.705  0.00  0.00    +0.000 A 
ATOM     11  C   UNL     1      -3.926  12.414  19.274  0.00  0.00    +0.000 A 
ATOM     12  C   UNL     1      -4.900  12.354  20.259  0.00  0.00    +0.000 A 
ATOM     13  F   UNL     1      -6.169  12.100  19.913  0.00  0.00    +0.000 F 
ATOM     14  C   UNL     1      -4.580  12.476  21.621  0.00  0.00    +0.000 A 
ATOM     15  C   UNL     1      -3.253  12.673  22.049  0.00  0.00    +0.000 A 
ATOM     16  C   UNL     1      -1.402  12.236  18.961  0.00  0.00    +0.000 C 
ATOM     17  O   UNL     1      -1.363  12.042  17.764  0.00  0.00    +0.000 OA
BRANCH  15  18
ATOM     18  C   UNL     1      -2.943  12.731  23.526  0.00  0.00    +0.000 C 
ATOM     19  C   UNL     1      -4.217  12.625  24.344  0.00  0.00    +0.000 C 
ATOM     20  F   UNL     1      -2.112  11.720  23.916  0.00  0.00    +0.000 F 
ATOM     21  F   UNL     1      -2.304  13.876  23.899  0.00  0.00    +0.000 F 
ENDBRANCH  15  18
ENDBRANCH   5   7
BRANCH   1  23
ATOM     22  C   UNL     1       2.396   8.565  17.737  0.00  0.00    +0.000 C 
ATOM     23  C   UNL     1       2.101   7.885  19.050  0.00  0.00    +0.000 C 
ATOM     24  C   UNL     1       2.565   6.702  19.497  0.00  0.00    +0.000 C 
BRANCH  24  25
ATOM     25  C   UNL     1       3.394   5.857  18.734  0.00  0.00    +0.000 A 
ATOM     26  N   UNL     1       4.705   5.836  18.574  0.00  0.00    +0.000 NA
ATOM     27  N   UNL     1       5.045   4.787  17.757  0.00  0.00    +0.000 NA
ATOM     28  C   UNL     1       3.934   4.188  17.406  0.00  0.00    +0.000 A 
ATOM     29  N   UNL     1       2.871   4.832  17.970  0.00  0.00    +0.000 N 
ATOM     30  C   UNL     1       1.495   4.447  17.800  0.00  0.00    +0.000 C 
ENDBRANCH  24  25
ENDBRANCH   1  23
TORSDOF 4
ENDMDL
MODEL 5
REMARK VINA RESULT:      -8.3      5.566     10.052
REMARK  Name = 
REMARK  7 active torsions:
REMARK  status: ('A' for Active; 'I' for Inactive)
REMARK    1  A    between atoms: C_1  and  C_2
REMARK    2  A    between atoms: C_2  and  C_10
REMARK    3  A    between atoms: C_3  and  C_4
REMARK    4  A    between atoms: N_8  and  C_9
REMARK    5  A    between atoms: C_14  and  N_15
REMARK    6  A    between atoms: C_23  and  C_24
REMARK    7  A    between atoms: C_24  and  C_25
REMARK                            x       y       z     vdW  Elec       q    Type
REMARK                         _______ _______ _______ _____ _____    ______ ____
ROOT
ATOM      1  C   UNL     1       0.675   8.983  20.899  0.00  0.00    +0.000 A 
ATOM      2  C   UNL     1       0.840   8.909  22.287  0.00  0.00    +0.000 A 
ATOM      3  C   UNL     1       0.060   9.700  23.127  0.00  0.00    +0.000 A 
ATOM      4  C   UNL     1      -0.808  10.642  22.582  0.00  0.00    +0.000 A 
ATOM      5  C   UNL     1      -0.789  10.884  21.199  0.00  0.00    +0.000 A 
ATOM      6  C   UNL     1      -0.170   9.956  20.356  0.00  0.00    +0.000 A 
ENDROOT
BRANCH   5   7
ATOM      7  N   UNL     1      -0.967  12.247  20.709  0.00  0.00    +0.000 N 
ATOM      8  C   UNL     1      -1.677  13.069  21.721  0.00  0.00    +0.000 C 
ATOM      9  C   UNL     1      -3.111  12.899  21.313  0.00  0.00    +0.000 A 
ATOM     10  C   UNL     1      -3.122  12.635  19.939  0.00  0.00    +0.000 A 
ATOM     11  C   UNL     1      -4.266  12.284  19.247  0.00  0.00    +0.000 A 
ATOM     12  C   UNL     1      -5.430  12.174  19.993  0.00  0.00    +0.000 A 
ATOM     13  F   UNL     1      -6.554  11.755  19.397  0.00  0.00    +0.000 F 
ATOM     14  C   UNL     1      -5.444  12.414  21.376  0.00  0.00    +0.000 A 
ATOM     15  C   UNL     1      -4.276  12.788  22.070  0.00  0.00    +0.000 A 
ATOM     16  C   UNL     1      -1.732  12.376  19.518  0.00  0.00    +0.000 C 
ATOM     17  O   UNL     1      -1.400  12.114  18.381  0.00  0.00    +0.000 OA
BRANCH  15  18
ATOM     18  C   UNL     1      -4.321  12.971  23.568  0.00  0.00    +0.000 C 
ATOM     19  C   UNL     1      -5.749  12.884  24.074  0.00  0.00    +0.000 C 
ATOM     20  F   UNL     1      -3.588  12.023  24.223  0.00  0.00    +0.000 F 
ATOM     21  F   UNL     1      -3.805  14.163  23.982  0.00  0.00    +0.000 F 
ENDBRANCH  15  18
ENDBRANCH   5   7
BRANCH   1  23
ATOM     22  C   UNL     1       1.785   8.739  18.669  0.00  0.00    +0.000 C 
ATOM     23  C   UNL     1       1.480   8.124  20.012  0.00  0.00    +0.000 C 
ATOM     24  C   UNL     1       1.864   6.921  20.482  0.00  0.00    +0.000 C 
BRANCH  24  25
ATOM     25  C   UNL     1       2.598   5.991  19.721  0.00  0.00    +0.000 A 
ATOM     26  N   UNL     1       3.716   6.121  19.030  0.00  0.00    +0.000 NA
ATOM     27  N   UNL     1       4.059   4.906  18.492  0.00  0.00    +0.000 NA
ATOM     28  C   UNL     1       3.135   4.047  18.843  0.00  0.00    +0.000 A 
ATOM     29  N   UNL     1       2.185   4.679  19.592  0.00  0.00    +0.000 N 
ATOM     30  C   UNL     1       1.021   4.042  20.149  0.00  0.00    +0.000 C 
ENDBRANCH  24  25
ENDBRANCH   1  23
TORSDOF 4
ENDMDL
MODEL 6
REMARK VINA RESULT:      -8.3      2.377      4.098
REMARK  Name = 
REMARK  7 active torsions:
REMARK  status: ('A' for Active; 'I' for Inactive)
REMARK    1  A    between atoms: C_1  and  C_2
REMARK    2  A    between atoms: C_2  and  C_10
REMARK    3  A    between atoms: C_3  and  C_4
REMARK    4  A    between atoms: N_8  and  C_9
REMARK    5  A    between atoms: C_14  and  N_15
REMARK    6  A    between atoms: C_23  and  C_24
REMARK    7  A    between atoms: C_24  and  C_25
REMARK                            x       y       z     vdW  Elec       q    Type
REMARK                         _______ _______ _______ _____ _____    ______ ____
ROOT
ATOM      1  C   UNL     1       1.071   9.217  19.266  0.00  0.00    +0.000 A 
ATOM      2  C   UNL     1       1.784   9.716  18.170  0.00  0.00    +0.000 A 
ATOM      3  C   UNL     1       2.657   8.888  17.468  0.00  0.00    +0.000 A 
ATOM      4  C   UNL     1       2.903   7.595  17.924  0.00  0.00    +0.000 A 
ATOM      5  C   UNL     1       2.377   7.184  19.159  0.00  0.00    +0.000 A 
ATOM      6  C   UNL     1       1.349   7.931  19.742  0.00  0.00    +0.000 A 
ENDROOT
BRANCH   5   7
ATOM      7  N   UNL     1       3.175   6.321  20.024  0.00  0.00    +0.000 N 
ATOM      8  C   UNL     1       4.461   5.981  19.365  0.00  0.00    +0.000 C 
ATOM      9  C   UNL     1       4.124   4.702  18.657  0.00  0.00    +0.000 A 
ATOM     10  C   UNL     1       3.086   4.094  19.373  0.00  0.00    +0.000 A 
ATOM     11  C   UNL     1       2.423   2.965  18.930  0.00  0.00    +0.000 A 
ATOM     12  C   UNL     1       2.820   2.458  17.701  0.00  0.00    +0.000 A 
ATOM     13  F   UNL     1       2.161   1.416  17.178  0.00  0.00    +0.000 F 
ATOM     14  C   UNL     1       3.844   3.059  16.953  0.00  0.00    +0.000 A 
ATOM     15  C   UNL     1       4.525   4.200  17.420  0.00  0.00    +0.000 A 
ATOM     16  C   UNL     1       2.584   5.072  20.357  0.00  0.00    +0.000 C 
ATOM     17  O   UNL     1       1.681   4.854  21.137  0.00  0.00    +0.000 OA
BRANCH  15  18
ATOM     18  C   UNL     1       5.575   4.854  16.553  0.00  0.00    +0.000 C 
ATOM     19  C   UNL     1       5.871   3.999  15.335  0.00  0.00    +0.000 C 
ATOM     20  F   UNL     1       5.181   6.086  16.112  0.00  0.00    +0.000 F 
ATOM     21  F   UNL     1       6.752   5.073  17.204  0.00  0.00    +0.000 F 
ENDBRANCH  15  18
ENDBRANCH   5   7
BRANCH   1  23
ATOM     22  C   UNL     1      -1.112  10.438  19.203  0.00  0.00    +0.000 C 
ATOM     23  C   UNL     1       0.124  10.084  19.990  0.00  0.00    +0.000 C 
ATOM     24  C   UNL     1       0.442  10.447  21.248  0.00  0.00    +0.000 C 
BRANCH  24  25
ATOM     25  C   UNL     1      -0.355  11.304  22.031  0.00  0.00    +0.000 A 
ATOM     26  N   UNL     1      -1.320  11.047  22.896  0.00  0.00    +0.000 NA
ATOM     27  N   UNL     1      -1.768  12.226  23.439  0.00  0.00    +0.000 NA
ATOM     28  C   UNL     1      -1.085  13.196  22.883  0.00  0.00    +0.000 A 
ATOM     29  N   UNL     1      -0.206  12.676  21.979  0.00  0.00    +0.000 N 
ATOM     30  C   UNL     1       0.707  13.453  21.182  0.00  0.00    +0.000 C 
ENDBRANCH  24  25
ENDBRANCH   1  23
TORSDOF 4
ENDMDL
MODEL 7
REMARK VINA RESULT:      -8.2      2.360      4.024
REMARK  Name = 
REMARK  7 active torsions:
REMARK  status: ('A' for Active; 'I' for Inactive)
REMARK    1  A    between atoms: C_1  and  C_2
REMARK    2  A    between atoms: C_2  and  C_10
REMARK    3  A    between atoms: C_3  and  C_4
REMARK    4  A    between atoms: N_8  and  C_9
REMARK    5  A    between atoms: C_14  and  N_15
REMARK    6  A    between atoms: C_23  and  C_24
REMARK    7  A    between atoms: C_24  and  C_25
REMARK                            x       y       z     vdW  Elec       q    Type
REMARK                         _______ _______ _______ _____ _____    ______ ____
ROOT
ATOM      1  C   UNL     1       1.207   9.358  19.100  0.00  0.00    +0.000 A 
ATOM      2  C   UNL     1       1.944   9.742  17.973  0.00  0.00    +0.000 A 
ATOM      3  C   UNL     1       2.749   8.815  17.316  0.00  0.00    +0.000 A 
ATOM      4  C   UNL     1       2.904   7.535  17.842  0.00  0.00    +0.000 A 
ATOM      5  C   UNL     1       2.362   7.233  19.101  0.00  0.00    +0.000 A 
ATOM      6  C   UNL     1       1.395   8.084  19.646  0.00  0.00    +0.000 A 
ENDROOT
BRANCH   5   7
ATOM      7  N   UNL     1       3.103   6.364  20.009  0.00  0.00    +0.000 N 
ATOM      8  C   UNL     1       4.404   5.980  19.406  0.00  0.00    +0.000 C 
ATOM      9  C   UNL     1       4.060   4.698  18.706  0.00  0.00    +0.000 A 
ATOM     10  C   UNL     1       2.980   4.130  19.390  0.00  0.00    +0.000 A 
ATOM     11  C   UNL     1       2.305   3.011  18.940  0.00  0.00    +0.000 A 
ATOM     12  C   UNL     1       2.734   2.474  17.736  0.00  0.00    +0.000 A 
ATOM     13  F   UNL     1       2.068   1.441  17.204  0.00  0.00    +0.000 F 
ATOM     14  C   UNL     1       3.802   3.035  17.018  0.00  0.00    +0.000 A 
ATOM     15  C   UNL     1       4.495   4.166  17.493  0.00  0.00    +0.000 A 
ATOM     16  C   UNL     1       2.467   5.136  20.339  0.00  0.00    +0.000 C 
ATOM     17  O   UNL     1       1.529   4.955  21.087  0.00  0.00    +0.000 OA
BRANCH  15  18
ATOM     18  C   UNL     1       5.593   4.778  16.657  0.00  0.00    +0.000 C 
ATOM     19  C   UNL     1       5.942   3.875  15.489  0.00  0.00    +0.000 C 
ATOM     20  F   UNL     1       5.236   5.996  16.152  0.00  0.00    +0.000 F 
ATOM     21  F   UNL     1       6.739   5.011  17.359  0.00  0.00    +0.000 F 
ENDBRANCH  15  18
ENDBRANCH   5   7
BRANCH   1  23
ATOM     22  C   UNL     1      -1.040  10.457  19.166  0.00  0.00    +0.000 C 
ATOM     23  C   UNL     1       0.332  10.331  19.778  0.00  0.00    +0.000 C 
ATOM     24  C   UNL     1       0.825  10.976  20.853  0.00  0.00    +0.000 C 
BRANCH  24  25
ATOM     25  C   UNL     1       0.107  11.958  21.564  0.00  0.00    +0.000 A 
ATOM     26  N   UNL     1       0.043  13.269  21.413  0.00  0.00    +0.000 NA
ATOM     27  N   UNL     1      -0.834  13.787  22.333  0.00  0.00    +0.000 NA
ATOM     28  C   UNL     1      -1.281  12.789  23.053  0.00  0.00    +0.000 A 
ATOM     29  N   UNL     1      -0.706  11.626  22.629  0.00  0.00    +0.000 N 
ATOM     30  C   UNL     1      -0.967  10.328  23.194  0.00  0.00    +0.000 C 
ENDBRANCH  24  25
ENDBRANCH   1  23
TORSDOF 4
ENDMDL
MODEL 8
REMARK VINA RESULT:      -8.2      3.890      6.279
REMARK  Name = 
REMARK  7 active torsions:
REMARK  status: ('A' for Active; 'I' for Inactive)
REMARK    1  A    between atoms: C_1  and  C_2
REMARK    2  A    between atoms: C_2  and  C_10
REMARK    3  A    between atoms: C_3  and  C_4
REMARK    4  A    between atoms: N_8  and  C_9
REMARK    5  A    between atoms: C_14  and  N_15
REMARK    6  A    between atoms: C_23  and  C_24
REMARK    7  A    between atoms: C_24  and  C_25
REMARK                            x       y       z     vdW  Elec       q    Type
REMARK                         _______ _______ _______ _____ _____    ______ ____
ROOT
ATOM      1  C   UNL     1       7.960   7.706  18.015  0.00  0.00    +0.000 A 
ATOM      2  C   UNL     1       7.914   6.898  19.157  0.00  0.00    +0.000 A 
ATOM      3  C   UNL     1       7.676   5.531  19.038  0.00  0.00    +0.000 A 
ATOM      4  C   UNL     1       7.378   4.986  17.792  0.00  0.00    +0.000 A 
ATOM      5  C   UNL     1       7.182   5.837  16.692  0.00  0.00    +0.000 A 
ATOM      6  C   UNL     1       7.623   7.161  16.771  0.00  0.00    +0.000 A 
ENDROOT
BRANCH   5   7
ATOM      7  N   UNL     1       6.150   5.513  15.712  0.00  0.00    +0.000 N 
ATOM      8  C   UNL     1       4.953   6.365  15.925  0.00  0.00    +0.000 C 
ATOM      9  C   UNL     1       4.126   5.521  16.848  0.00  0.00    +0.000 A 
ATOM     10  C   UNL     1       4.469   4.186  16.607  0.00  0.00    +0.000 A 
ATOM     11  C   UNL     1       4.005   3.136  17.377  0.00  0.00    +0.000 A 
ATOM     12  C   UNL     1       3.186   3.468  18.445  0.00  0.00    +0.000 A 
ATOM     13  F   UNL     1       2.772   2.506  19.279  0.00  0.00    +0.000 F 
ATOM     14  C   UNL     1       2.841   4.801  18.723  0.00  0.00    +0.000 A 
ATOM     15  C   UNL     1       3.305   5.863  17.922  0.00  0.00    +0.000 A 
ATOM     16  C   UNL     1       5.668   4.176  15.748  0.00  0.00    +0.000 C 
ATOM     17  O   UNL     1       6.219   3.169  15.355  0.00  0.00    +0.000 OA
BRANCH  15  18
ATOM     18  C   UNL     1       2.967   7.286  18.295  0.00  0.00    +0.000 C 
ATOM     19  C   UNL     1       2.395   7.349  19.700  0.00  0.00    +0.000 C 
ATOM     20  F   UNL     1       4.061   8.102  18.254  0.00  0.00    +0.000 F 
ATOM     21  F   UNL     1       2.065   7.865  17.453  0.00  0.00    +0.000 F 
ENDBRANCH  15  18
ENDBRANCH   5   7
BRANCH   1  23
ATOM     22  C   UNL     1       7.317  10.027  17.336  0.00  0.00    +0.000 C 
ATOM     23  C   UNL     1       8.241   9.147  18.138  0.00  0.00    +0.000 C 
ATOM     24  C   UNL     1       9.254   9.522  18.944  0.00  0.00    +0.000 C 
BRANCH  24  25
ATOM     25  C   UNL     1       9.652  10.862  19.116  0.00  0.00    +0.000 A 
ATOM     26  N   UNL     1      10.248  11.706  18.293  0.00  0.00    +0.000 NA
ATOM     27  N   UNL     1      10.388  12.922  18.915  0.00  0.00    +0.000 NA
ATOM     28  C   UNL     1       9.895  12.802  20.122  0.00  0.00    +0.000 A 
ATOM     29  N   UNL     1       9.444  11.528  20.308  0.00  0.00    +0.000 N 
ATOM     30  C   UNL     1       8.838  11.040  21.519  0.00  0.00    +0.000 C 
ENDBRANCH  24  25
ENDBRANCH   1  23
TORSDOF 4
ENDMDL
MODEL 9
REMARK VINA RESULT:      -8.2      1.898      2.973
REMARK  Name = 
REMARK  7 active torsions:
REMARK  status: ('A' for Active; 'I' for Inactive)
REMARK    1  A    between atoms: C_1  and  C_2
REMARK    2  A    between atoms: C_2  and  C_10
REMARK    3  A    between atoms: C_3  and  C_4
REMARK    4  A    between atoms: N_8  and  C_9
REMARK    5  A    between atoms: C_14  and  N_15
REMARK    6  A    between atoms: C_23  and  C_24
REMARK    7  A    between atoms: C_24  and  C_25
REMARK                            x       y       z     vdW  Elec       q    Type
REMARK                         _______ _______ _______ _____ _____    ______ ____
ROOT
ATOM      1  C   UNL     1       1.789   8.240  19.808  0.00  0.00    +0.000 A 
ATOM      2  C   UNL     1       2.224   8.865  18.634  0.00  0.00    +0.000 A 
ATOM      3  C   UNL     1       2.712   8.102  17.575  0.00  0.00    +0.000 A 
ATOM      4  C   UNL     1       2.867   6.727  17.726  0.00  0.00    +0.000 A 
ATOM      5  C   UNL     1       2.663   6.140  18.986  0.00  0.00    +0.000 A 
ATOM      6  C   UNL     1       1.981   6.864  19.969  0.00  0.00    +0.000 A 
ENDROOT
BRANCH   5   7
ATOM      7  N   UNL     1       3.527   5.045  19.413  0.00  0.00    +0.000 N 
ATOM      8  C   UNL     1       4.945   5.485  19.431  0.00  0.00    +0.000 C 
ATOM      9  C   UNL     1       5.408   5.111  18.054  0.00  0.00    +0.000 A 
ATOM     10  C   UNL     1       4.619   4.035  17.631  0.00  0.00    +0.000 A 
ATOM     11  C   UNL     1       4.671   3.518  16.350  0.00  0.00    +0.000 A 
ATOM     12  C   UNL     1       5.541   4.142  15.467  0.00  0.00    +0.000 A 
ATOM     13  F   UNL     1       5.576   3.743  14.190  0.00  0.00    +0.000 F 
ATOM     14  C   UNL     1       6.329   5.235  15.859  0.00  0.00    +0.000 A 
ATOM     15  C   UNL     1       6.282   5.744  17.172  0.00  0.00    +0.000 A 
ATOM     16  C   UNL     1       3.505   3.888  18.587  0.00  0.00    +0.000 C 
ATOM     17  O   UNL     1       2.640   3.042  18.503  0.00  0.00    +0.000 OA
BRANCH  15  18
ATOM     18  C   UNL     1       7.096   6.963  17.533  0.00  0.00    +0.000 C 
ATOM     19  C   UNL     1       7.970   6.683  18.741  0.00  0.00    +0.000 C 
ATOM     20  F   UNL     1       7.912   7.357  16.511  0.00  0.00    +0.000 F 
ATOM     21  F   UNL     1       6.333   8.057  17.816  0.00  0.00    +0.000 F 
ENDBRANCH  15  18
ENDBRANCH   5   7
BRANCH   1  23
ATOM     22  C   UNL     1       1.816   8.699  22.268  0.00  0.00    +0.000 C 
ATOM     23  C   UNL     1       1.244   9.044  20.916  0.00  0.00    +0.000 C 
ATOM     24  C   UNL     1       0.331   9.989  20.617  0.00  0.00    +0.000 C 
BRANCH  24  25
ATOM     25  C   UNL     1      -0.296  10.796  21.586  0.00  0.00    +0.000 A 
ATOM     26  N   UNL     1      -1.002  10.480  22.657  0.00  0.00    +0.000 NA
ATOM     27  N   UNL     1      -1.368  11.629  23.312  0.00  0.00    +0.000 NA
ATOM     28  C   UNL     1      -0.901  12.639  22.622  0.00  0.00    +0.000 A 
ATOM     29  N   UNL     1      -0.243  12.174  21.520  0.00  0.00    +0.000 N 
ATOM     30  C   UNL     1       0.399  13.005  20.536  0.00  0.00    +0.000 C 
ENDBRANCH  24  25
ENDBRANCH   1  23
TORSDOF 4
ENDMDL
