MODEL 1
REMARK VINA RESULT:      -8.5      0.000      0.000
REMARK  Name = 
REMARK  3 active torsions:
REMARK  status: ('A' for Active; 'I' for Inactive)
REMARK    1  A    between atoms: C_2  and  C_14
REMARK    2  A    between atoms: N_3  and  C_4
REMARK    3  A    between atoms: C_18  and  C_19
REMARK                            x       y       z     vdW  Elec       q    Type
REMARK                         _______ _______ _______ _____ _____    ______ ____
ROOT
ATOM      1  O   UNL     1       2.173   8.725  17.204  0.00  0.00    +0.000 OA
ATOM      2  C   UNL     1       2.061   8.415  18.386  0.00  0.00    +0.000 C 
ATOM      3  N   UNL     1       2.468   7.225  18.974  0.00  0.00    +0.000 N 
ATOM      4  H   UNL     1       2.124   7.038  19.904  0.00  0.00    +0.000 HD
ENDROOT
BRANCH   3   5
ATOM      5  C   UNL     1       3.100   6.147  18.287  0.00  0.00    +0.000 A 
ATOM      6  C   UNL     1       4.216   6.384  17.471  0.00  0.00    +0.000 A 
ATOM      7  C   UNL     1       4.799   5.370  16.718  0.00  0.00    +0.000 A 
ATOM      8  C   UNL     1       4.283   4.084  16.781  0.00  0.00    +0.000 A 
ATOM      9  C   UNL     1       3.199   3.798  17.623  0.00  0.00    +0.000 A 
ATOM     10  C   UNL     1       2.690   2.500  17.696  0.00  0.00    +0.000 A 
ATOM     11  N   UNL     1       1.656   2.122  18.477  0.00  0.00    +0.000 NA
ATOM     12  C   UNL     1       1.096   3.085  19.225  0.00  0.00    +0.000 A 
ATOM     13  C   UNL     1       1.513   4.410  19.227  0.00  0.00    +0.000 A 
ATOM     14  C   UNL     1       2.593   4.812  18.405  0.00  0.00    +0.000 A 
ENDBRANCH   3   5
BRANCH   2  15
ATOM     15  C   UNL     1       1.343   9.379  19.262  0.00  0.00    +0.000 A 
ATOM     16  C   UNL     1       1.149  10.674  18.761  0.00  0.00    +0.000 A 
ATOM     17  C   UNL     1       0.535  11.649  19.542  0.00  0.00    +0.000 A 
ATOM     18  C   UNL     1       0.107  11.334  20.830  0.00  0.00    +0.000 A 
ATOM     19  C   UNL     1       0.287  10.040  21.349  0.00  0.00    +0.000 A 
ATOM     20  C   UNL     1       0.920   9.062  20.557  0.00  0.00    +0.000 A 
BRANCH  19  21
ATOM     21  C   UNL     1      -0.194   9.698  22.739  0.00  0.00    +0.000 C 
ATOM     22  F   UNL     1      -1.028   8.623  22.780  0.00  0.00    +0.000 F 
ATOM     23  F   UNL     1       0.839   9.403  23.575  0.00  0.00    +0.000 F 
ATOM     24  F   UNL     1      -0.870  10.723  23.325  0.00  0.00    +0.000 F 
ENDBRANCH  19  21
ENDBRANCH   2  15
TORSDOF 3
ENDMDL
MODEL 2
REMARK VINA RESULT:      -8.4      5.881      8.798
REMARK  Name = 
REMARK  3 active torsions:
REMARK  status: ('A' for Active; 'I' for Inactive)
REMARK    1  A    between atoms: C_2  and  C_14
REMARK    2  A    between atoms: N_3  and  C_4
REMARK    3  A    between atoms: C_18  and  C_19
REMARK                            x       y       z     vdW  Elec       q    Type
REMARK                         _______ _______ _______ _____ _____    ______ ____
ROOT
ATOM      1  O   UNL     1       6.551   4.482  17.136  0.00  0.00    +0.000 OA
ATOM      2  C   UNL     1       5.647   4.255  16.336  0.00  0.00    +0.000 C 
ATOM      3  N   UNL     1       4.325   3.964  16.639  0.00  0.00    +0.000 N 
ATOM      4  H   UNL     1       3.757   3.601  15.888  0.00  0.00    +0.000 HD
ENDROOT
BRANCH   3   5
ATOM      5  C   UNL     1       3.784   3.885  17.957  0.00  0.00    +0.000 A 
ATOM      6  C   UNL     1       3.780   2.664  18.648  0.00  0.00    +0.000 A 
ATOM      7  C   UNL     1       3.179   2.535  19.897  0.00  0.00    +0.000 A 
ATOM      8  C   UNL     1       2.582   3.637  20.489  0.00  0.00    +0.000 A 
ATOM      9  C   UNL     1       2.608   4.885  19.850  0.00  0.00    +0.000 A 
ATOM     10  C   UNL     1       2.019   5.997  20.455  0.00  0.00    +0.000 A 
ATOM     11  N   UNL     1       1.996   7.239  19.926  0.00  0.00    +0.000 NA
ATOM     12  C   UNL     1       2.590   7.384  18.731  0.00  0.00    +0.000 A 
ATOM     13  C   UNL     1       3.200   6.348  18.034  0.00  0.00    +0.000 A 
ATOM     14  C   UNL     1       3.221   5.044  18.582  0.00  0.00    +0.000 A 
ENDBRANCH   3   5
BRANCH   2  15
ATOM     15  C   UNL     1       6.029   4.205  14.900  0.00  0.00    +0.000 A 
ATOM     16  C   UNL     1       7.254   4.784  14.544  0.00  0.00    +0.000 A 
ATOM     17  C   UNL     1       7.656   4.827  13.212  0.00  0.00    +0.000 A 
ATOM     18  C   UNL     1       6.834   4.287  12.225  0.00  0.00    +0.000 A 
ATOM     19  C   UNL     1       5.603   3.696  12.561  0.00  0.00    +0.000 A 
ATOM     20  C   UNL     1       5.198   3.667  13.910  0.00  0.00    +0.000 A 
BRANCH  19  21
ATOM     21  C   UNL     1       4.723   3.097  11.490  0.00  0.00    +0.000 C 
ATOM     22  F   UNL     1       4.620   3.867  10.373  0.00  0.00    +0.000 F 
ATOM     23  F   UNL     1       5.186   1.888  11.071  0.00  0.00    +0.000 F 
ATOM     24  F   UNL     1       3.450   2.884  11.920  0.00  0.00    +0.000 F 
ENDBRANCH  19  21
ENDBRANCH   2  15
TORSDOF 3
ENDMDL
MODEL 3
REMARK VINA RESULT:      -8.2      5.669      8.359
REMARK  Name = 
REMARK  3 active torsions:
REMARK  status: ('A' for Active; 'I' for Inactive)
REMARK    1  A    between atoms: C_2  and  C_14
REMARK    2  A    between atoms: N_3  and  C_4
REMARK    3  A    between atoms: C_18  and  C_19
REMARK                            x       y       z     vdW  Elec       q    Type
REMARK                         _______ _______ _______ _____ _____    ______ ____
ROOT
ATOM      1  O   UNL     1       5.958   4.552  17.530  0.00  0.00    +0.000 OA
ATOM      2  C   UNL     1       5.218   4.808  16.585  0.00  0.00    +0.000 C 
ATOM      3  N   UNL     1       3.897   5.226  16.655  0.00  0.00    +0.000 N 
ATOM      4  H   UNL     1       3.365   5.196  15.798  0.00  0.00    +0.000 HD
ENDROOT
BRANCH   3   5
ATOM      5  C   UNL     1       3.168   5.438  17.863  0.00  0.00    +0.000 A 
ATOM      6  C   UNL     1       3.157   6.703  18.471  0.00  0.00    +0.000 A 
ATOM      7  C   UNL     1       2.532   6.919  19.695  0.00  0.00    +0.000 A 
ATOM      8  C   UNL     1       1.885   5.870  20.330  0.00  0.00    +0.000 A 
ATOM      9  C   UNL     1       1.833   4.603  19.731  0.00  0.00    +0.000 A 
ATOM     10  C   UNL     1       1.169   3.552  20.366  0.00  0.00    +0.000 A 
ATOM     11  N   UNL     1       1.058   2.301  19.870  0.00  0.00    +0.000 NA
ATOM     12  C   UNL     1       1.639   2.082  18.680  0.00  0.00    +0.000 A 
ATOM     13  C   UNL     1       2.331   3.049  17.963  0.00  0.00    +0.000 A 
ATOM     14  C   UNL     1       2.455   4.361  18.481  0.00  0.00    +0.000 A 
ENDBRANCH   3   5
BRANCH   2  15
ATOM     15  C   UNL     1       5.768   4.564  15.225  0.00  0.00    +0.000 A 
ATOM     16  C   UNL     1       7.078   4.999  14.979  0.00  0.00    +0.000 A 
ATOM     17  C   UNL     1       7.644   4.858  13.715  0.00  0.00    +0.000 A 
ATOM     18  C   UNL     1       6.904   4.277  12.687  0.00  0.00    +0.000 A 
ATOM     19  C   UNL     1       5.590   3.829  12.914  0.00  0.00    +0.000 A 
ATOM     20  C   UNL     1       5.020   3.986  14.194  0.00  0.00    +0.000 A 
BRANCH  19  21
ATOM     21  C   UNL     1       4.797   3.185  11.803  0.00  0.00    +0.000 C 
ATOM     22  F   UNL     1       5.287   1.976  11.412  0.00  0.00    +0.000 F 
ATOM     23  F   UNL     1       3.504   2.965  12.164  0.00  0.00    +0.000 F 
ATOM     24  F   UNL     1       4.750   3.954  10.682  0.00  0.00    +0.000 F 
ENDBRANCH  19  21
ENDBRANCH   2  15
TORSDOF 3
ENDMDL
MODEL 4
REMARK VINA RESULT:      -8.2      5.678      8.595
REMARK  Name = 
REMARK  3 active torsions:
REMARK  status: ('A' for Active; 'I' for Inactive)
REMARK    1  A    between atoms: C_2  and  C_14
REMARK    2  A    between atoms: N_3  and  C_4
REMARK    3  A    between atoms: C_18  and  C_19
REMARK                            x       y       z     vdW  Elec       q    Type
REMARK                         _______ _______ _______ _____ _____    ______ ____
ROOT
ATOM      1  O   UNL     1       5.906   4.326  17.881  0.00  0.00    +0.000 OA
ATOM      2  C   UNL     1       5.165   4.163  16.916  0.00  0.00    +0.000 C 
ATOM      3  N   UNL     1       3.815   3.842  16.952  0.00  0.00    +0.000 N 
ATOM      4  H   UNL     1       3.398   3.541  16.084  0.00  0.00    +0.000 HD
ENDROOT
BRANCH   3   5
ATOM      5  C   UNL     1       3.049   3.651  18.140  0.00  0.00    +0.000 A 
ATOM      6  C   UNL     1       2.678   2.359  18.543  0.00  0.00    +0.000 A 
ATOM      7  C   UNL     1       1.855   2.147  19.645  0.00  0.00    +0.000 A 
ATOM      8  C   UNL     1       1.401   3.230  20.381  0.00  0.00    +0.000 A 
ATOM      9  C   UNL     1       1.790   4.533  20.038  0.00  0.00    +0.000 A 
ATOM     10  C   UNL     1       1.342   5.621  20.790  0.00  0.00    +0.000 A 
ATOM     11  N   UNL     1       1.664   6.909  20.545  0.00  0.00    +0.000 NA
ATOM     12  C   UNL     1       2.473   7.128  19.497  0.00  0.00    +0.000 A 
ATOM     13  C   UNL     1       2.972   6.125  18.676  0.00  0.00    +0.000 A 
ATOM     14  C   UNL     1       2.633   4.774  18.925  0.00  0.00    +0.000 A 
ENDBRANCH   3   5
BRANCH   2  15
ATOM     15  C   UNL     1       5.798   4.235  15.572  0.00  0.00    +0.000 A 
ATOM     16  C   UNL     1       6.992   4.961  15.467  0.00  0.00    +0.000 A 
ATOM     17  C   UNL     1       7.616   5.121  14.233  0.00  0.00    +0.000 A 
ATOM     18  C   UNL     1       7.049   4.553  13.094  0.00  0.00    +0.000 A 
ATOM     19  C   UNL     1       5.854   3.817  13.178  0.00  0.00    +0.000 A 
ATOM     20  C   UNL     1       5.223   3.668  14.429  0.00  0.00    +0.000 A 
BRANCH  19  21
ATOM     21  C   UNL     1       5.252   3.188  11.944  0.00  0.00    +0.000 C 
ATOM     22  F   UNL     1       5.600   1.884  11.770  0.00  0.00    +0.000 F 
ATOM     23  F   UNL     1       3.892   3.212  11.975  0.00  0.00    +0.000 F 
ATOM     24  F   UNL     1       5.614   3.832  10.801  0.00  0.00    +0.000 F 
ENDBRANCH  19  21
ENDBRANCH   2  15
TORSDOF 3
ENDMDL
MODEL 5
REMARK VINA RESULT:      -8.1      5.781      8.587
REMARK  Name = 
REMARK  3 active torsions:
REMARK  status: ('A' for Active; 'I' for Inactive)
REMARK    1  A    between atoms: C_2  and  C_14
REMARK    2  A    between atoms: N_3  and  C_4
REMARK    3  A    between atoms: C_18  and  C_19
REMARK                            x       y       z     vdW  Elec       q    Type
REMARK                         _______ _______ _______ _____ _____    ______ ____
ROOT
ATOM      1  O   UNL     1       3.208   3.466  16.500  0.00  0.00    +0.000 OA
ATOM      2  C   UNL     1       4.310   3.840  16.889  0.00  0.00    +0.000 C 
ATOM      3  N   UNL     1       4.670   4.146  18.194  0.00  0.00    +0.000 N 
ATOM      4  H   UNL     1       5.545   4.633  18.321  0.00  0.00    +0.000 HD
ENDROOT
BRANCH   3   5
ATOM      5  C   UNL     1       3.802   4.069  19.323  0.00  0.00    +0.000 A 
ATOM      6  C   UNL     1       3.678   2.869  20.040  0.00  0.00    +0.000 A 
ATOM      7  C   UNL     1       2.772   2.736  21.089  0.00  0.00    +0.000 A 
ATOM      8  C   UNL     1       1.980   3.815  21.453  0.00  0.00    +0.000 A 
ATOM      9  C   UNL     1       2.110   5.044  20.791  0.00  0.00    +0.000 A 
ATOM     10  C   UNL     1       1.321   6.132  21.169  0.00  0.00    +0.000 A 
ATOM     11  N   UNL     1       1.375   7.355  20.600  0.00  0.00    +0.000 NA
ATOM     12  C   UNL     1       2.258   7.505  19.601  0.00  0.00    +0.000 A 
ATOM     13  C   UNL     1       3.087   6.492  19.137  0.00  0.00    +0.000 A 
ATOM     14  C   UNL     1       3.030   5.206  19.726  0.00  0.00    +0.000 A 
ENDBRANCH   3   5
BRANCH   2  15
ATOM     15  C   UNL     1       5.342   4.068  15.842  0.00  0.00    +0.000 A 
ATOM     16  C   UNL     1       6.464   4.824  16.207  0.00  0.00    +0.000 A 
ATOM     17  C   UNL     1       7.447   5.129  15.269  0.00  0.00    +0.000 A 
ATOM     18  C   UNL     1       7.314   4.674  13.958  0.00  0.00    +0.000 A 
ATOM     19  C   UNL     1       6.199   3.910  13.573  0.00  0.00    +0.000 A 
ATOM     20  C   UNL     1       5.203   3.616  14.526  0.00  0.00    +0.000 A 
BRANCH  19  21
ATOM     21  C   UNL     1       6.067   3.406  12.156  0.00  0.00    +0.000 C 
ATOM     22  F   UNL     1       6.115   2.049  12.052  0.00  0.00    +0.000 F 
ATOM     23  F   UNL     1       4.888   3.783  11.590  0.00  0.00    +0.000 F 
ATOM     24  F   UNL     1       7.046   3.882  11.339  0.00  0.00    +0.000 F 
ENDBRANCH  19  21
ENDBRANCH   2  15
TORSDOF 3
ENDMDL
MODEL 6
REMARK VINA RESULT:      -8.0      1.018      1.283
REMARK  Name = 
REMARK  3 active torsions:
REMARK  status: ('A' for Active; 'I' for Inactive)
REMARK    1  A    between atoms: C_2  and  C_14
REMARK    2  A    between atoms: N_3  and  C_4
REMARK    3  A    between atoms: C_18  and  C_19
REMARK                            x       y       z     vdW  Elec       q    Type
REMARK                         _______ _______ _______ _____ _____    ______ ____
ROOT
ATOM      1  O   UNL     1       2.443   7.859  17.848  0.00  0.00    +0.000 OA
ATOM      2  C   UNL     1       2.254   7.770  19.057  0.00  0.00    +0.000 C 
ATOM      3  N   UNL     1       2.658   6.733  19.887  0.00  0.00    +0.000 N 
ATOM      4  H   UNL     1       2.252   6.706  20.810  0.00  0.00    +0.000 HD
ENDROOT
BRANCH   3   5
ATOM      5  C   UNL     1       3.381   5.579  19.462  0.00  0.00    +0.000 A 
ATOM      6  C   UNL     1       4.758   5.660  19.207  0.00  0.00    +0.000 A 
ATOM      7  C   UNL     1       5.472   4.576  18.705  0.00  0.00    +0.000 A 
ATOM      8  C   UNL     1       4.820   3.377  18.463  0.00  0.00    +0.000 A 
ATOM      9  C   UNL     1       3.455   3.244  18.750  0.00  0.00    +0.000 A 
ATOM     10  C   UNL     1       2.803   2.030  18.519  0.00  0.00    +0.000 A 
ATOM     11  N   UNL     1       1.496   1.800  18.767  0.00  0.00    +0.000 NA
ATOM     12  C   UNL     1       0.799   2.829  19.271  0.00  0.00    +0.000 A 
ATOM     13  C   UNL     1       1.339   4.081  19.533  0.00  0.00    +0.000 A 
ATOM     14  C   UNL     1       2.708   4.330  19.269  0.00  0.00    +0.000 A 
ENDBRANCH   3   5
BRANCH   2  15
ATOM     15  C   UNL     1       1.435   8.843  19.683  0.00  0.00    +0.000 A 
ATOM     16  C   UNL     1       1.211  10.000  18.924  0.00  0.00    +0.000 A 
ATOM     17  C   UNL     1       0.503  11.071  19.460  0.00  0.00    +0.000 A 
ATOM     18  C   UNL     1       0.010  10.991  20.761  0.00  0.00    +0.000 A 
ATOM     19  C   UNL     1       0.219   9.838  21.538  0.00  0.00    +0.000 A 
ATOM     20  C   UNL     1       0.947   8.762  20.992  0.00  0.00    +0.000 A 
BRANCH  19  21
ATOM     21  C   UNL     1      -0.331   9.749  22.941  0.00  0.00    +0.000 C 
ATOM     22  F   UNL     1      -0.986  10.872  23.344  0.00  0.00    +0.000 F 
ATOM     23  F   UNL     1      -1.223   8.729  23.073  0.00  0.00    +0.000 F 
ATOM     24  F   UNL     1       0.638   9.523  23.869  0.00  0.00    +0.000 F 
ENDBRANCH  19  21
ENDBRANCH   2  15
TORSDOF 3
ENDMDL
MODEL 7
REMARK VINA RESULT:      -8.0      5.830      8.788
REMARK  Name = 
REMARK  3 active torsions:
REMARK  status: ('A' for Active; 'I' for Inactive)
REMARK    1  A    between atoms: C_2  and  C_14
REMARK    2  A    between atoms: N_3  and  C_4
REMARK    3  A    between atoms: C_18  and  C_19
REMARK                            x       y       z     vdW  Elec       q    Type
REMARK                         _______ _______ _______ _____ _____    ______ ____
ROOT
ATOM      1  O   UNL     1       6.491   4.299  17.171  0.00  0.00    +0.000 OA
ATOM      2  C   UNL     1       5.610   4.534  16.350  0.00  0.00    +0.000 C 
ATOM      3  N   UNL     1       4.281   4.831  16.620  0.00  0.00    +0.000 N 
ATOM      4  H   UNL     1       3.641   4.795  15.841  0.00  0.00    +0.000 HD
ENDROOT
BRANCH   3   5
ATOM      5  C   UNL     1       3.711   4.920  17.924  0.00  0.00    +0.000 A 
ATOM      6  C   UNL     1       3.710   3.804  18.775  0.00  0.00    +0.000 A 
ATOM      7  C   UNL     1       3.081   3.833  20.016  0.00  0.00    +0.000 A 
ATOM      8  C   UNL     1       2.453   4.994  20.441  0.00  0.00    +0.000 A 
ATOM      9  C   UNL     1       2.475   6.144  19.639  0.00  0.00    +0.000 A 
ATOM     10  C   UNL     1       1.853   7.316  20.075  0.00  0.00    +0.000 A 
ATOM     11  N   UNL     1       1.823   8.474  19.382  0.00  0.00    +0.000 NA
ATOM     12  C   UNL     1       2.443   8.468  18.192  0.00  0.00    +0.000 A 
ATOM     13  C   UNL     1       3.085   7.360  17.655  0.00  0.00    +0.000 A 
ATOM     14  C   UNL     1       3.115   6.142  18.375  0.00  0.00    +0.000 A 
ENDBRANCH   3   5
BRANCH   2  15
ATOM     15  C   UNL     1       5.985   4.404  14.916  0.00  0.00    +0.000 A 
ATOM     16  C   UNL     1       7.218   4.947  14.528  0.00  0.00    +0.000 A 
ATOM     17  C   UNL     1       7.616   4.916  13.194  0.00  0.00    +0.000 A 
ATOM     18  C   UNL     1       6.782   4.338  12.239  0.00  0.00    +0.000 A 
ATOM     19  C   UNL     1       5.544   3.784  12.608  0.00  0.00    +0.000 A 
ATOM     20  C   UNL     1       5.144   3.829  13.958  0.00  0.00    +0.000 A 
BRANCH  19  21
ATOM     21  C   UNL     1       4.651   3.144  11.572  0.00  0.00    +0.000 C 
ATOM     22  F   UNL     1       5.080   1.918  11.163  0.00  0.00    +0.000 F 
ATOM     23  F   UNL     1       3.385   2.961  12.036  0.00  0.00    +0.000 F 
ATOM     24  F   UNL     1       4.534   3.898  10.445  0.00  0.00    +0.000 F 
ENDBRANCH  19  21
ENDBRANCH   2  15
TORSDOF 3
ENDMDL
MODEL 8
REMARK VINA RESULT:      -8.0      1.356      2.832
REMARK  Name = 
REMARK  3 active torsions:
REMARK  status: ('A' for Active; 'I' for Inactive)
REMARK    1  A    between atoms: C_2  and  C_14
REMARK    2  A    between atoms: N_3  and  C_4
REMARK    3  A    between atoms: C_18  and  C_19
REMARK                            x       y       z     vdW  Elec       q    Type
REMARK                         _______ _______ _______ _____ _____    ______ ____
ROOT
ATOM      1  O   UNL     1       2.160   8.564  17.029  0.00  0.00    +0.000 OA
ATOM      2  C   UNL     1       2.143   8.281  18.223  0.00  0.00    +0.000 C 
ATOM      3  N   UNL     1       2.583   7.100  18.803  0.00  0.00    +0.000 N 
ATOM      4  H   UNL     1       2.314   6.938  19.762  0.00  0.00    +0.000 HD
ENDROOT
BRANCH   3   5
ATOM      5  C   UNL     1       3.146   5.998  18.093  0.00  0.00    +0.000 A 
ATOM      6  C   UNL     1       2.398   4.828  17.894  0.00  0.00    +0.000 A 
ATOM      7  C   UNL     1       2.950   3.704  17.285  0.00  0.00    +0.000 A 
ATOM      8  C   UNL     1       4.264   3.737  16.845  0.00  0.00    +0.000 A 
ATOM      9  C   UNL     1       5.027   4.905  16.983  0.00  0.00    +0.000 A 
ATOM     10  C   UNL     1       6.347   4.940  16.526  0.00  0.00    +0.000 A 
ATOM     11  N   UNL     1       7.160   6.015  16.607  0.00  0.00    +0.000 NA
ATOM     12  C   UNL     1       6.636   7.112  17.173  0.00  0.00    +0.000 A 
ATOM     13  C   UNL     1       5.341   7.189  17.669  0.00  0.00    +0.000 A 
ATOM     14  C   UNL     1       4.486   6.064  17.592  0.00  0.00    +0.000 A 
ENDBRANCH   3   5
BRANCH   2  15
ATOM     15  C   UNL     1       1.509   9.274  19.132  0.00  0.00    +0.000 A 
ATOM     16  C   UNL     1       1.470  10.605  18.695  0.00  0.00    +0.000 A 
ATOM     17  C   UNL     1       0.943  11.602  19.511  0.00  0.00    +0.000 A 
ATOM     18  C   UNL     1       0.449  11.272  20.772  0.00  0.00    +0.000 A 
ATOM     19  C   UNL     1       0.474   9.942  21.227  0.00  0.00    +0.000 A 
ATOM     20  C   UNL     1       1.019   8.941  20.399  0.00  0.00    +0.000 A 
BRANCH  19  21
ATOM     21  C   UNL     1      -0.078   9.587  22.586  0.00  0.00    +0.000 C 
ATOM     22  F   UNL     1       0.882   9.317  23.513  0.00  0.00    +0.000 F 
ATOM     23  F   UNL     1      -0.830  10.595  23.109  0.00  0.00    +0.000 F 
ATOM     24  F   UNL     1      -0.888   8.494  22.552  0.00  0.00    +0.000 F 
ENDBRANCH  19  21
ENDBRANCH   2  15
TORSDOF 3
ENDMDL
MODEL 9
REMARK VINA RESULT:      -7.9      2.006      2.554
REMARK  Name = 
REMARK  3 active torsions:
REMARK  status: ('A' for Active; 'I' for Inactive)
REMARK    1  A    between atoms: C_2  and  C_14
REMARK    2  A    between atoms: N_3  and  C_4
REMARK    3  A    between atoms: C_18  and  C_19
REMARK                            x       y       z     vdW  Elec       q    Type
REMARK                         _______ _______ _______ _____ _____    ______ ____
ROOT
ATOM      1  O   UNL     1       2.208   8.940  17.208  0.00  0.00    +0.000 OA
ATOM      2  C   UNL     1       1.944   8.535  18.336  0.00  0.00    +0.000 C 
ATOM      3  N   UNL     1       2.318   7.318  18.890  0.00  0.00    +0.000 N 
ATOM      4  H   UNL     1       1.854   7.047  19.744  0.00  0.00    +0.000 HD
ENDROOT
BRANCH   3   5
ATOM      5  C   UNL     1       3.093   6.321  18.228  0.00  0.00    +0.000 A 
ATOM      6  C   UNL     1       4.251   6.677  17.521  0.00  0.00    +0.000 A 
ATOM      7  C   UNL     1       4.977   5.741  16.790  0.00  0.00    +0.000 A 
ATOM      8  C   UNL     1       4.564   4.418  16.767  0.00  0.00    +0.000 A 
ATOM      9  C   UNL     1       3.439   4.015  17.500  0.00  0.00    +0.000 A 
ATOM     10  C   UNL     1       3.034   2.679  17.487  0.00  0.00    +0.000 A 
ATOM     11  N   UNL     1       1.971   2.191  18.162  0.00  0.00    +0.000 NA
ATOM     12  C   UNL     1       1.273   3.077  18.888  0.00  0.00    +0.000 A 
ATOM     13  C   UNL     1       1.579   4.429  18.969  0.00  0.00    +0.000 A 
ATOM     14  C   UNL     1       2.689   4.947  18.258  0.00  0.00    +0.000 A 
ENDBRANCH   3   5
BRANCH   2  15
ATOM     15  C   UNL     1       1.062   9.401  19.164  0.00  0.00    +0.000 A 
ATOM     16  C   UNL     1       1.073   9.184  20.549  0.00  0.00    +0.000 A 
ATOM     17  C   UNL     1       0.235   9.915  21.386  0.00  0.00    +0.000 A 
ATOM     18  C   UNL     1      -0.620  10.872  20.842  0.00  0.00    +0.000 A 
ATOM     19  C   UNL     1      -0.642  11.109  19.456  0.00  0.00    +0.000 A 
ATOM     20  C   UNL     1       0.201  10.356  18.615  0.00  0.00    +0.000 A 
BRANCH  19  21
ATOM     21  C   UNL     1      -1.557  12.159  18.873  0.00  0.00    +0.000 C 
ATOM     22  F   UNL     1      -2.771  11.675  18.490  0.00  0.00    +0.000 F 
ATOM     23  F   UNL     1      -1.816  13.157  19.761  0.00  0.00    +0.000 F 
ATOM     24  F   UNL     1      -1.027  12.762  17.774  0.00  0.00    +0.000 F 
ENDBRANCH  19  21
ENDBRANCH   2  15
TORSDOF 3
ENDMDL
