MODEL 1
REMARK VINA RESULT:      -8.7      0.000      0.000
REMARK  Name = 
REMARK  7 active torsions:
REMARK  status: ('A' for Active; 'I' for Inactive)
REMARK    1  A    between atoms: C_2  and  C_3
REMARK    2  A    between atoms: C_2  and  C_10
REMARK    3  A    between atoms: C_3  and  C_4
REMARK    4  A    between atoms: N_8  and  C_9
REMARK    5  A    between atoms: C_14  and  N_15
REMARK    6  A    between atoms: C_20  and  C_21
REMARK    7  A    between atoms: C_23  and  C_24
REMARK                            x       y       z     vdW  Elec       q    Type
REMARK                         _______ _______ _______ _____ _____    ______ ____
ROOT
ATOM      1  C   UNL     1       1.809   8.043  19.729  0.00  0.00    +0.000 A 
ATOM      2  C   UNL     1       2.276   8.747  18.609  0.00  0.00    +0.000 A 
ATOM      3  C   UNL     1       2.862   8.062  17.550  0.00  0.00    +0.000 A 
ATOM      4  C   UNL     1       3.079   6.692  17.647  0.00  0.00    +0.000 A 
ATOM      5  C   UNL     1       2.853   6.040  18.867  0.00  0.00    +0.000 A 
ATOM      6  C   UNL     1       2.081   6.674  19.852  0.00  0.00    +0.000 A 
ENDROOT
BRANCH   5   7
ATOM      7  N   UNL     1       3.764   4.987  19.289  0.00  0.00    +0.000 N 
ATOM      8  C   UNL     1       5.148   5.511  19.372  0.00  0.00    +0.000 C 
ATOM      9  C   UNL     1       5.696   5.190  18.017  0.00  0.00    +0.000 A 
ATOM     10  C   UNL     1       4.996   4.082  17.534  0.00  0.00    +0.000 A 
ATOM     11  C   UNL     1       5.161   3.586  16.252  0.00  0.00    +0.000 A 
ATOM     12  C   UNL     1       6.062   4.246  15.412  0.00  0.00    +0.000 A 
ATOM     13  C   UNL     1       6.237   3.820  13.983  0.00  0.00    +0.000 C 
ATOM     14  C   UNL     1       6.760   5.382  15.888  0.00  0.00    +0.000 A 
ATOM     15  C   UNL     1       6.587   5.877  17.199  0.00  0.00    +0.000 A 
ATOM     16  C   UNL     1       3.838   3.856  18.430  0.00  0.00    +0.000 C 
ATOM     17  O   UNL     1       3.018   2.965  18.278  0.00  0.00    +0.000 OA
BRANCH  15  18
ATOM     18  C   UNL     1       7.271   7.163  17.594  0.00  0.00    +0.000 C 
ATOM     19  F   UNL     1       8.151   7.633  16.667  0.00  0.00    +0.000 F 
ATOM     20  F   UNL     1       6.380   8.173  17.799  0.00  0.00    +0.000 F 
ATOM     21  F   UNL     1       7.977   7.042  18.751  0.00  0.00    +0.000 F 
ENDBRANCH  15  18
ENDBRANCH   5   7
BRANCH   1  23
ATOM     22  C   UNL     1       1.543   8.654  22.069  0.00  0.00    +0.000 C 
ATOM     23  C   UNL     1       1.129   8.789  20.796  0.00  0.00    +0.000 C 
BRANCH  23  24
ATOM     24  C   UNL     1       0.009   9.712  20.368  0.00  0.00    +0.000 C 
BRANCH  24  25
ATOM     25  C   UNL     1       0.228  11.154  20.689  0.00  0.00    +0.000 A 
ATOM     26  N   UNL     1       0.943  12.009  19.974  0.00  0.00    +0.000 NA
ATOM     27  N   UNL     1       0.880  13.238  20.575  0.00  0.00    +0.000 NA
ATOM     28  C   UNL     1       0.135  13.118  21.649  0.00  0.00    +0.000 A 
ATOM     29  N   UNL     1      -0.289  11.831  21.766  0.00  0.00    +0.000 N 
ATOM     30  C   UNL     1      -1.113  11.305  22.823  0.00  0.00    +0.000 C 
ENDBRANCH  24  25
ENDBRANCH  23  24
ENDBRANCH   1  23
TORSDOF 5
ENDMDL
MODEL 2
REMARK VINA RESULT:      -8.7      0.926      1.268
REMARK  Name = 
REMARK  7 active torsions:
REMARK  status: ('A' for Active; 'I' for Inactive)
REMARK    1  A    between atoms: C_2  and  C_3
REMARK    2  A    between atoms: C_2  and  C_10
REMARK    3  A    between atoms: C_3  and  C_4
REMARK    4  A    between atoms: N_8  and  C_9
REMARK    5  A    between atoms: C_14  and  N_15
REMARK    6  A    between atoms: C_20  and  C_21
REMARK    7  A    between atoms: C_23  and  C_24
REMARK                            x       y       z     vdW  Elec       q    Type
REMARK                         _______ _______ _______ _____ _____    ______ ____
ROOT
ATOM      1  C   UNL     1       1.767   7.886  19.785  0.00  0.00    +0.000 A 
ATOM      2  C   UNL     1       2.259   8.674  18.733  0.00  0.00    +0.000 A 
ATOM      3  C   UNL     1       2.916   8.076  17.664  0.00  0.00    +0.000 A 
ATOM      4  C   UNL     1       3.179   6.710  17.688  0.00  0.00    +0.000 A 
ATOM      5  C   UNL     1       2.922   5.977  18.854  0.00  0.00    +0.000 A 
ATOM      6  C   UNL     1       2.083   6.521  19.838  0.00  0.00    +0.000 A 
ENDROOT
BRANCH   5   7
ATOM      7  N   UNL     1       3.850   4.930  19.254  0.00  0.00    +0.000 N 
ATOM      8  C   UNL     1       5.228   5.472  19.332  0.00  0.00    +0.000 C 
ATOM      9  C   UNL     1       5.768   5.177  17.968  0.00  0.00    +0.000 A 
ATOM     10  C   UNL     1       5.079   4.066  17.476  0.00  0.00    +0.000 A 
ATOM     11  C   UNL     1       5.240   3.590  16.186  0.00  0.00    +0.000 A 
ATOM     12  C   UNL     1       6.124   4.273  15.347  0.00  0.00    +0.000 A 
ATOM     13  C   UNL     1       6.292   3.869  13.911  0.00  0.00    +0.000 C 
ATOM     14  C   UNL     1       6.811   5.412  15.833  0.00  0.00    +0.000 A 
ATOM     15  C   UNL     1       6.642   5.887  17.152  0.00  0.00    +0.000 A 
ATOM     16  C   UNL     1       3.932   3.812  18.379  0.00  0.00    +0.000 C 
ATOM     17  O   UNL     1       3.122   2.912  18.222  0.00  0.00    +0.000 OA
BRANCH  15  18
ATOM     18  C   UNL     1       7.313   7.176  17.559  0.00  0.00    +0.000 C 
ATOM     19  F   UNL     1       8.187   7.665  16.636  0.00  0.00    +0.000 F 
ATOM     20  F   UNL     1       6.411   8.175  17.774  0.00  0.00    +0.000 F 
ATOM     21  F   UNL     1       8.020   7.053  18.715  0.00  0.00    +0.000 F 
ENDBRANCH  15  18
ENDBRANCH   5   7
BRANCH   1  23
ATOM     22  C   UNL     1       0.264   7.796  21.697  0.00  0.00    +0.000 C 
ATOM     23  C   UNL     1       1.013   8.540  20.862  0.00  0.00    +0.000 C 
BRANCH  23  24
ATOM     24  C   UNL     1       1.172  10.039  20.985  0.00  0.00    +0.000 C 
BRANCH  24  25
ATOM     25  C   UNL     1       0.044  10.736  21.673  0.00  0.00    +0.000 A 
ATOM     26  N   UNL     1      -0.107  10.864  22.982  0.00  0.00    +0.000 NA
ATOM     27  N   UNL     1      -1.244  11.588  23.221  0.00  0.00    +0.000 NA
ATOM     28  C   UNL     1      -1.775  11.888  22.058  0.00  0.00    +0.000 A 
ATOM     29  N   UNL     1      -1.010  11.369  21.061  0.00  0.00    +0.000 N 
ATOM     30  C   UNL     1      -1.275  11.474  19.650  0.00  0.00    +0.000 C 
ENDBRANCH  24  25
ENDBRANCH  23  24
ENDBRANCH   1  23
TORSDOF 5
ENDMDL
MODEL 3
REMARK VINA RESULT:      -8.6      0.483      1.281
REMARK  Name = 
REMARK  7 active torsions:
REMARK  status: ('A' for Active; 'I' for Inactive)
REMARK    1  A    between atoms: C_2  and  C_3
REMARK    2  A    between atoms: C_2  and  C_10
REMARK    3  A    between atoms: C_3  and  C_4
REMARK    4  A    between atoms: N_8  and  C_9
REMARK    5  A    between atoms: C_14  and  N_15
REMARK    6  A    between atoms: C_20  and  C_21
REMARK    7  A    between atoms: C_23  and  C_24
REMARK                            x       y       z     vdW  Elec       q    Type
REMARK                         _______ _______ _______ _____ _____    ______ ____
ROOT
ATOM      1  C   UNL     1       1.802   8.057  19.721  0.00  0.00    +0.000 A 
ATOM      2  C   UNL     1       2.272   8.761  18.603  0.00  0.00    +0.000 A 
ATOM      3  C   UNL     1       2.859   8.076  17.545  0.00  0.00    +0.000 A 
ATOM      4  C   UNL     1       3.076   6.706  17.642  0.00  0.00    +0.000 A 
ATOM      5  C   UNL     1       2.848   6.054  18.862  0.00  0.00    +0.000 A 
ATOM      6  C   UNL     1       2.075   6.687  19.845  0.00  0.00    +0.000 A 
ENDROOT
BRANCH   5   7
ATOM      7  N   UNL     1       3.758   5.000  19.285  0.00  0.00    +0.000 N 
ATOM      8  C   UNL     1       5.143   5.524  19.368  0.00  0.00    +0.000 C 
ATOM      9  C   UNL     1       5.691   5.201  18.013  0.00  0.00    +0.000 A 
ATOM     10  C   UNL     1       4.991   4.093  17.532  0.00  0.00    +0.000 A 
ATOM     11  C   UNL     1       5.156   3.596  16.250  0.00  0.00    +0.000 A 
ATOM     12  C   UNL     1       6.058   4.255  15.410  0.00  0.00    +0.000 A 
ATOM     13  C   UNL     1       6.233   3.828  13.981  0.00  0.00    +0.000 C 
ATOM     14  C   UNL     1       6.757   5.391  15.886  0.00  0.00    +0.000 A 
ATOM     15  C   UNL     1       6.583   5.887  17.196  0.00  0.00    +0.000 A 
ATOM     16  C   UNL     1       3.832   3.869  18.427  0.00  0.00    +0.000 C 
ATOM     17  O   UNL     1       3.011   2.978  18.276  0.00  0.00    +0.000 OA
BRANCH  15  18
ATOM     18  C   UNL     1       7.267   7.173  17.591  0.00  0.00    +0.000 C 
ATOM     19  F   UNL     1       6.416   8.213  17.807  0.00  0.00    +0.000 F 
ATOM     20  F   UNL     1       7.981   7.038  18.743  0.00  0.00    +0.000 F 
ATOM     21  F   UNL     1       8.150   7.603  16.649  0.00  0.00    +0.000 F 
ENDBRANCH  15  18
ENDBRANCH   5   7
BRANCH   1  23
ATOM     22  C   UNL     1       1.542   8.679  22.060  0.00  0.00    +0.000 C 
ATOM     23  C   UNL     1       1.121   8.802  20.788  0.00  0.00    +0.000 C 
BRANCH  23  24
ATOM     24  C   UNL     1      -0.010   9.712  20.360  0.00  0.00    +0.000 C 
BRANCH  24  25
ATOM     25  C   UNL     1       0.018  11.075  20.969  0.00  0.00    +0.000 A 
ATOM     26  N   UNL     1      -0.597  11.441  22.084  0.00  0.00    +0.000 NA
ATOM     27  N   UNL     1      -0.307  12.757  22.330  0.00  0.00    +0.000 NA
ATOM     28  C   UNL     1       0.473  13.179  21.362  0.00  0.00    +0.000 A 
ATOM     29  N   UNL     1       0.697  12.166  20.483  0.00  0.00    +0.000 N 
ATOM     30  C   UNL     1       1.491  12.246  19.285  0.00  0.00    +0.000 C 
ENDBRANCH  24  25
ENDBRANCH  23  24
ENDBRANCH   1  23
TORSDOF 5
ENDMDL
MODEL 4
REMARK VINA RESULT:      -8.6      0.867      1.276
REMARK  Name = 
REMARK  7 active torsions:
REMARK  status: ('A' for Active; 'I' for Inactive)
REMARK    1  A    between atoms: C_2  and  C_3
REMARK    2  A    between atoms: C_2  and  C_10
REMARK    3  A    between atoms: C_3  and  C_4
REMARK    4  A    between atoms: N_8  and  C_9
REMARK    5  A    between atoms: C_14  and  N_15
REMARK    6  A    between atoms: C_20  and  C_21
REMARK    7  A    between atoms: C_23  and  C_24
REMARK                            x       y       z     vdW  Elec       q    Type
REMARK                         _______ _______ _______ _____ _____    ______ ____
ROOT
ATOM      1  C   UNL     1       1.786   7.944  19.900  0.00  0.00    +0.000 A 
ATOM      2  C   UNL     1       2.243   8.701  18.810  0.00  0.00    +0.000 A 
ATOM      3  C   UNL     1       2.833   8.068  17.721  0.00  0.00    +0.000 A 
ATOM      4  C   UNL     1       3.065   6.697  17.758  0.00  0.00    +0.000 A 
ATOM      5  C   UNL     1       2.849   5.991  18.949  0.00  0.00    +0.000 A 
ATOM      6  C   UNL     1       2.074   6.573  19.963  0.00  0.00    +0.000 A 
ENDROOT
BRANCH   5   7
ATOM      7  N   UNL     1       3.772   4.930  19.323  0.00  0.00    +0.000 N 
ATOM      8  C   UNL     1       5.157   5.456  19.386  0.00  0.00    +0.000 C 
ATOM      9  C   UNL     1       5.673   5.171  18.009  0.00  0.00    +0.000 A 
ATOM     10  C   UNL     1       4.964   4.073  17.516  0.00  0.00    +0.000 A 
ATOM     11  C   UNL     1       5.099   3.610  16.218  0.00  0.00    +0.000 A 
ATOM     12  C   UNL     1       5.978   4.294  15.373  0.00  0.00    +0.000 A 
ATOM     13  C   UNL     1       6.119   3.905  13.930  0.00  0.00    +0.000 C 
ATOM     14  C   UNL     1       6.685   5.419  15.862  0.00  0.00    +0.000 A 
ATOM     15  C   UNL     1       6.542   5.881  17.189  0.00  0.00    +0.000 A 
ATOM     16  C   UNL     1       3.828   3.821  18.433  0.00  0.00    +0.000 C 
ATOM     17  O   UNL     1       3.006   2.932  18.279  0.00  0.00    +0.000 OA
BRANCH  15  18
ATOM     18  C   UNL     1       7.233   7.158  17.600  0.00  0.00    +0.000 C 
ATOM     19  F   UNL     1       8.115   7.635  16.678  0.00  0.00    +0.000 F 
ATOM     20  F   UNL     1       6.347   8.170  17.818  0.00  0.00    +0.000 F 
ATOM     21  F   UNL     1       7.938   7.019  18.755  0.00  0.00    +0.000 F 
ENDBRANCH  15  18
ENDBRANCH   5   7
BRANCH   1  23
ATOM     22  C   UNL     1       1.766   8.884  22.145  0.00  0.00    +0.000 C 
ATOM     23  C   UNL     1       1.102   8.634  21.000  0.00  0.00    +0.000 C 
BRANCH  23  24
ATOM     24  C   UNL     1      -0.325   9.065  20.744  0.00  0.00    +0.000 C 
BRANCH  24  25
ATOM     25  C   UNL     1      -0.487  10.498  20.354  0.00  0.00    +0.000 A 
ATOM     26  N   UNL     1      -0.352  11.543  21.157  0.00  0.00    +0.000 NA
ATOM     27  N   UNL     1      -0.547  12.683  20.424  0.00  0.00    +0.000 NA
ATOM     28  C   UNL     1      -0.804  12.323  19.189  0.00  0.00    +0.000 A 
ATOM     29  N   UNL     1      -0.786  10.966  19.098  0.00  0.00    +0.000 N 
ATOM     30  C   UNL     1      -1.037  10.195  17.908  0.00  0.00    +0.000 C 
ENDBRANCH  24  25
ENDBRANCH  23  24
ENDBRANCH   1  23
TORSDOF 5
ENDMDL
MODEL 5
REMARK VINA RESULT:      -8.5      3.707      8.197
REMARK  Name = 
REMARK  7 active torsions:
REMARK  status: ('A' for Active; 'I' for Inactive)
REMARK    1  A    between atoms: C_2  and  C_3
REMARK    2  A    between atoms: C_2  and  C_10
REMARK    3  A    between atoms: C_3  and  C_4
REMARK    4  A    between atoms: N_8  and  C_9
REMARK    5  A    between atoms: C_14  and  N_15
REMARK    6  A    between atoms: C_20  and  C_21
REMARK    7  A    between atoms: C_23  and  C_24
REMARK                            x       y       z     vdW  Elec       q    Type
REMARK                         _______ _______ _______ _____ _____    ______ ____
ROOT
ATOM      1  C   UNL     1       2.524   4.232  18.724  0.00  0.00    +0.000 A 
ATOM      2  C   UNL     1       2.196   3.816  20.023  0.00  0.00    +0.000 A 
ATOM      3  C   UNL     1       1.600   4.706  20.910  0.00  0.00    +0.000 A 
ATOM      4  C   UNL     1       1.426   6.037  20.544  0.00  0.00    +0.000 A 
ATOM      5  C   UNL     1       1.994   6.506  19.352  0.00  0.00    +0.000 A 
ATOM      6  C   UNL     1       2.404   5.585  18.377  0.00  0.00    +0.000 A 
ENDROOT
BRANCH   5   7
ATOM      7  N   UNL     1       2.579   7.838  19.319  0.00  0.00    +0.000 N 
ATOM      8  C   UNL     1       2.194   8.595  20.535  0.00  0.00    +0.000 C 
ATOM      9  C   UNL     1       0.965   9.323  20.086  0.00  0.00    +0.000 A 
ATOM     10  C   UNL     1       1.061   9.492  18.703  0.00  0.00    +0.000 A 
ATOM     11  C   UNL     1       0.038  10.022  17.936  0.00  0.00    +0.000 A 
ATOM     12  C   UNL     1      -1.143  10.384  18.590  0.00  0.00    +0.000 A 
ATOM     13  C   UNL     1      -2.328  10.889  17.819  0.00  0.00    +0.000 C 
ATOM     14  C   UNL     1      -1.254  10.196  19.989  0.00  0.00    +0.000 A 
ATOM     15  C   UNL     1      -0.203   9.658  20.762  0.00  0.00    +0.000 A 
ATOM     16  C   UNL     1       2.187   8.656  18.224  0.00  0.00    +0.000 C 
ATOM     17  O   UNL     1       2.530   8.573  17.055  0.00  0.00    +0.000 OA
BRANCH  15  18
ATOM     18  C   UNL     1      -0.438   9.374  22.225  0.00  0.00    +0.000 C 
ATOM     19  F   UNL     1       0.687   9.428  22.991  0.00  0.00    +0.000 F 
ATOM     20  F   UNL     1      -1.306  10.263  22.785  0.00  0.00    +0.000 F 
ATOM     21  F   UNL     1      -0.974   8.141  22.436  0.00  0.00    +0.000 F 
ENDBRANCH  15  18
ENDBRANCH   5   7
BRANCH   1  23
ATOM     22  C   UNL     1       2.677   1.966  17.850  0.00  0.00    +0.000 C 
ATOM     23  C   UNL     1       3.083   3.248  17.789  0.00  0.00    +0.000 C 
BRANCH  23  24
ATOM     24  C   UNL     1       4.071   3.770  16.769  0.00  0.00    +0.000 C 
BRANCH  24  25
ATOM     25  C   UNL     1       5.415   4.121  17.320  0.00  0.00    +0.000 A 
ATOM     26  N   UNL     1       5.738   4.181  18.603  0.00  0.00    +0.000 NA
ATOM     27  N   UNL     1       7.064   4.505  18.703  0.00  0.00    +0.000 NA
ATOM     28  C   UNL     1       7.533   4.644  17.485  0.00  0.00    +0.000 A 
ATOM     29  N   UNL     1       6.537   4.422  16.586  0.00  0.00    +0.000 N 
ATOM     30  C   UNL     1       6.658   4.497  15.154  0.00  0.00    +0.000 C 
ENDBRANCH  24  25
ENDBRANCH  23  24
ENDBRANCH   1  23
TORSDOF 5
ENDMDL
MODEL 6
REMARK VINA RESULT:      -8.4      0.927      1.236
REMARK  Name = 
REMARK  7 active torsions:
REMARK  status: ('A' for Active; 'I' for Inactive)
REMARK    1  A    between atoms: C_2  and  C_3
REMARK    2  A    between atoms: C_2  and  C_10
REMARK    3  A    between atoms: C_3  and  C_4
REMARK    4  A    between atoms: N_8  and  C_9
REMARK    5  A    between atoms: C_14  and  N_15
REMARK    6  A    between atoms: C_20  and  C_21
REMARK    7  A    between atoms: C_23  and  C_24
REMARK                            x       y       z     vdW  Elec       q    Type
REMARK                         _______ _______ _______ _____ _____    ______ ____
ROOT
ATOM      1  C   UNL     1       1.785   8.116  19.615  0.00  0.00    +0.000 A 
ATOM      2  C   UNL     1       2.298   8.820  18.515  0.00  0.00    +0.000 A 
ATOM      3  C   UNL     1       2.915   8.135  17.475  0.00  0.00    +0.000 A 
ATOM      4  C   UNL     1       3.119   6.762  17.574  0.00  0.00    +0.000 A 
ATOM      5  C   UNL     1       2.844   6.108  18.783  0.00  0.00    +0.000 A 
ATOM      6  C   UNL     1       2.043   6.743  19.742  0.00  0.00    +0.000 A 
ENDROOT
BRANCH   5   7
ATOM      7  N   UNL     1       3.731   5.045  19.232  0.00  0.00    +0.000 N 
ATOM      8  C   UNL     1       5.120   5.553  19.346  0.00  0.00    +0.000 C 
ATOM      9  C   UNL     1       5.696   5.217  18.005  0.00  0.00    +0.000 A 
ATOM     10  C   UNL     1       4.994   4.115  17.512  0.00  0.00    +0.000 A 
ATOM     11  C   UNL     1       5.183   3.610  16.237  0.00  0.00    +0.000 A 
ATOM     12  C   UNL     1       6.112   4.254  15.415  0.00  0.00    +0.000 A 
ATOM     13  C   UNL     1       6.316   3.818  13.993  0.00  0.00    +0.000 C 
ATOM     14  C   UNL     1       6.813   5.384  15.902  0.00  0.00    +0.000 A 
ATOM     15  C   UNL     1       6.614   5.889  17.206  0.00  0.00    +0.000 A 
ATOM     16  C   UNL     1       3.812   3.909  18.381  0.00  0.00    +0.000 C 
ATOM     17  O   UNL     1       2.984   3.027  18.214  0.00  0.00    +0.000 OA
BRANCH  15  18
ATOM     18  C   UNL     1       7.305   7.168  17.610  0.00  0.00    +0.000 C 
ATOM     19  F   UNL     1       8.028   7.070  18.760  0.00  0.00    +0.000 F 
ATOM     20  F   UNL     1       8.183   7.596  16.661  0.00  0.00    +0.000 F 
ATOM     21  F   UNL     1       6.431   8.192  17.806  0.00  0.00    +0.000 F 
ENDBRANCH  15  18
ENDBRANCH   5   7
BRANCH   1  23
ATOM     22  C   UNL     1       0.466   8.194  21.659  0.00  0.00    +0.000 C 
ATOM     23  C   UNL     1       1.074   8.862  20.661  0.00  0.00    +0.000 C 
BRANCH  23  24
ATOM     24  C   UNL     1       1.114  10.371  20.560  0.00  0.00    +0.000 C 
BRANCH  24  25
ATOM     25  C   UNL     1      -0.167  11.005  20.126  0.00  0.00    +0.000 A 
ATOM     26  N   UNL     1      -0.647  11.020  18.892  0.00  0.00    +0.000 NA
ATOM     27  N   UNL     1      -1.853  11.668  18.902  0.00  0.00    +0.000 NA
ATOM     28  C   UNL     1      -2.091  12.045  20.136  0.00  0.00    +0.000 A 
ATOM     29  N   UNL     1      -1.061  11.660  20.936  0.00  0.00    +0.000 N 
ATOM     30  C   UNL     1      -0.951  11.906  22.350  0.00  0.00    +0.000 C 
ENDBRANCH  24  25
ENDBRANCH  23  24
ENDBRANCH   1  23
TORSDOF 5
ENDMDL
MODEL 7
REMARK VINA RESULT:      -8.3      4.289      6.474
REMARK  Name = 
REMARK  7 active torsions:
REMARK  status: ('A' for Active; 'I' for Inactive)
REMARK    1  A    between atoms: C_2  and  C_3
REMARK    2  A    between atoms: C_2  and  C_10
REMARK    3  A    between atoms: C_3  and  C_4
REMARK    4  A    between atoms: N_8  and  C_9
REMARK    5  A    between atoms: C_14  and  N_15
REMARK    6  A    between atoms: C_20  and  C_21
REMARK    7  A    between atoms: C_23  and  C_24
REMARK                            x       y       z     vdW  Elec       q    Type
REMARK                         _______ _______ _______ _____ _____    ______ ____
ROOT
ATOM      1  C   UNL     1       7.923   7.707  17.940  0.00  0.00    +0.000 A 
ATOM      2  C   UNL     1       7.965   6.858  19.057  0.00  0.00    +0.000 A 
ATOM      3  C   UNL     1       7.791   5.488  18.896  0.00  0.00    +0.000 A 
ATOM      4  C   UNL     1       7.470   4.972  17.646  0.00  0.00    +0.000 A 
ATOM      5  C   UNL     1       7.169   5.847  16.593  0.00  0.00    +0.000 A 
ATOM      6  C   UNL     1       7.541   7.196  16.692  0.00  0.00    +0.000 A 
ENDROOT
BRANCH   5   7
ATOM      7  N   UNL     1       6.104   5.501  15.664  0.00  0.00    +0.000 N 
ATOM      8  C   UNL     1       4.914   6.348  15.913  0.00  0.00    +0.000 C 
ATOM      9  C   UNL     1       4.113   5.509  16.859  0.00  0.00    +0.000 A 
ATOM     10  C   UNL     1       4.448   4.174  16.620  0.00  0.00    +0.000 A 
ATOM     11  C   UNL     1       3.984   3.129  17.401  0.00  0.00    +0.000 A 
ATOM     12  C   UNL     1       3.155   3.444  18.481  0.00  0.00    +0.000 A 
ATOM     13  C   UNL     1       2.676   2.377  19.422  0.00  0.00    +0.000 C 
ATOM     14  C   UNL     1       2.827   4.797  18.741  0.00  0.00    +0.000 A 
ATOM     15  C   UNL     1       3.304   5.855  17.936  0.00  0.00    +0.000 A 
ATOM     16  C   UNL     1       5.636   4.160  15.735  0.00  0.00    +0.000 C 
ATOM     17  O   UNL     1       6.187   3.143  15.344  0.00  0.00    +0.000 OA
BRANCH  15  18
ATOM     18  C   UNL     1       3.014   7.278  18.347  0.00  0.00    +0.000 C 
ATOM     19  F   UNL     1       4.027   8.150  18.087  0.00  0.00    +0.000 F 
ATOM     20  F   UNL     1       1.923   7.782  17.704  0.00  0.00    +0.000 F 
ATOM     21  F   UNL     1       2.754   7.393  19.677  0.00  0.00    +0.000 F 
ENDBRANCH  15  18
ENDBRANCH   5   7
BRANCH   1  23
ATOM     22  C   UNL     1       7.460  10.046  17.453  0.00  0.00    +0.000 C 
ATOM     23  C   UNL     1       8.184   9.139  18.134  0.00  0.00    +0.000 C 
BRANCH  23  24
ATOM     24  C   UNL     1       9.250   9.501  19.145  0.00  0.00    +0.000 C 
BRANCH  24  25
ATOM     25  C   UNL     1       9.780  10.893  19.027  0.00  0.00    +0.000 A 
ATOM     26  N   UNL     1      10.437  11.389  17.990  0.00  0.00    +0.000 NA
ATOM     27  N   UNL     1      10.728  12.702  18.247  0.00  0.00    +0.000 NA
ATOM     28  C   UNL     1      10.252  12.990  19.436  0.00  0.00    +0.000 A 
ATOM     29  N   UNL     1       9.657  11.888  19.966  0.00  0.00    +0.000 N 
ATOM     30  C   UNL     1       9.032  11.804  21.260  0.00  0.00    +0.000 C 
ENDBRANCH  24  25
ENDBRANCH  23  24
ENDBRANCH   1  23
TORSDOF 5
ENDMDL
MODEL 8
REMARK VINA RESULT:      -8.3      3.810      8.460
REMARK  Name = 
REMARK  7 active torsions:
REMARK  status: ('A' for Active; 'I' for Inactive)
REMARK    1  A    between atoms: C_2  and  C_3
REMARK    2  A    between atoms: C_2  and  C_10
REMARK    3  A    between atoms: C_3  and  C_4
REMARK    4  A    between atoms: N_8  and  C_9
REMARK    5  A    between atoms: C_14  and  N_15
REMARK    6  A    between atoms: C_20  and  C_21
REMARK    7  A    between atoms: C_23  and  C_24
REMARK                            x       y       z     vdW  Elec       q    Type
REMARK                         _______ _______ _______ _____ _____    ______ ____
ROOT
ATOM      1  C   UNL     1       2.471   6.778  19.330  0.00  0.00    +0.000 A 
ATOM      2  C   UNL     1       2.447   7.259  18.012  0.00  0.00    +0.000 A 
ATOM      3  C   UNL     1       2.029   8.560  17.754  0.00  0.00    +0.000 A 
ATOM      4  C   UNL     1       1.535   9.348  18.788  0.00  0.00    +0.000 A 
ATOM      5  C   UNL     1       1.314   8.775  20.049  0.00  0.00    +0.000 A 
ATOM      6  C   UNL     1       1.918   7.549  20.362  0.00  0.00    +0.000 A 
ENDROOT
BRANCH   5   7
ATOM      7  N   UNL     1       0.142   9.172  20.813  0.00  0.00    +0.000 N 
ATOM      8  C   UNL     1      -1.054   9.198  19.937  0.00  0.00    +0.000 C 
ATOM      9  C   UNL     1      -1.092  10.625  19.486  0.00  0.00    +0.000 A 
ATOM     10  C   UNL     1      -0.468  11.392  20.472  0.00  0.00    +0.000 A 
ATOM     11  C   UNL     1      -0.217  12.746  20.327  0.00  0.00    +0.000 A 
ATOM     12  C   UNL     1      -0.599  13.352  19.127  0.00  0.00    +0.000 A 
ATOM     13  C   UNL     1      -0.288  14.797  18.860  0.00  0.00    +0.000 C 
ATOM     14  C   UNL     1      -1.214  12.576  18.115  0.00  0.00    +0.000 A 
ATOM     15  C   UNL     1      -1.468  11.196  18.275  0.00  0.00    +0.000 A 
ATOM     16  C   UNL     1       0.202  10.461  21.410  0.00  0.00    +0.000 C 
ATOM     17  O   UNL     1       0.848  10.816  22.383  0.00  0.00    +0.000 OA
BRANCH  15  18
ATOM     18  C   UNL     1      -2.014  10.410  17.108  0.00  0.00    +0.000 C 
ATOM     19  F   UNL     1      -3.185   9.766  17.370  0.00  0.00    +0.000 F 
ATOM     20  F   UNL     1      -2.266  11.205  16.030  0.00  0.00    +0.000 F 
ATOM     21  F   UNL     1      -1.150   9.452  16.677  0.00  0.00    +0.000 F 
ENDBRANCH  15  18
ENDBRANCH   5   7
BRANCH   1  23
ATOM     22  C   UNL     1       2.535   4.721  20.630  0.00  0.00    +0.000 C 
ATOM     23  C   UNL     1       2.987   5.425  19.576  0.00  0.00    +0.000 C 
BRANCH  23  24
ATOM     24  C   UNL     1       3.987   4.891  18.574  0.00  0.00    +0.000 C 
BRANCH  24  25
ATOM     25  C   UNL     1       5.404   5.287  18.830  0.00  0.00    +0.000 A 
ATOM     26  N   UNL     1       6.110   4.996  19.913  0.00  0.00    +0.000 NA
ATOM     27  N   UNL     1       7.371   5.507  19.760  0.00  0.00    +0.000 NA
ATOM     28  C   UNL     1       7.419   6.107  18.594  0.00  0.00    +0.000 A 
ATOM     29  N   UNL     1       6.211   6.003  17.979  0.00  0.00    +0.000 N 
ATOM     30  C   UNL     1       5.868   6.547  16.692  0.00  0.00    +0.000 C 
ENDBRANCH  24  25
ENDBRANCH  23  24
ENDBRANCH   1  23
TORSDOF 5
ENDMDL
MODEL 9
REMARK VINA RESULT:      -8.2      3.556      8.288
REMARK  Name = 
REMARK  7 active torsions:
REMARK  status: ('A' for Active; 'I' for Inactive)
REMARK    1  A    between atoms: C_2  and  C_3
REMARK    2  A    between atoms: C_2  and  C_10
REMARK    3  A    between atoms: C_3  and  C_4
REMARK    4  A    between atoms: N_8  and  C_9
REMARK    5  A    between atoms: C_14  and  N_15
REMARK    6  A    between atoms: C_20  and  C_21
REMARK    7  A    between atoms: C_23  and  C_24
REMARK                            x       y       z     vdW  Elec       q    Type
REMARK                         _______ _______ _______ _____ _____    ______ ____
ROOT
ATOM      1  C   UNL     1       2.558   5.866  19.119  0.00  0.00    +0.000 A 
ATOM      2  C   UNL     1       2.479   6.522  17.881  0.00  0.00    +0.000 A 
ATOM      3  C   UNL     1       2.234   7.890  17.833  0.00  0.00    +0.000 A 
ATOM      4  C   UNL     1       1.962   8.587  19.005  0.00  0.00    +0.000 A 
ATOM      5  C   UNL     1       1.781   7.883  20.203  0.00  0.00    +0.000 A 
ATOM      6  C   UNL     1       2.225   6.555  20.293  0.00  0.00    +0.000 A 
ENDROOT
BRANCH   5   7
ATOM      7  N   UNL     1       0.758   8.323  21.139  0.00  0.00    +0.000 N 
ATOM      8  C   UNL     1      -0.494   8.644  20.413  0.00  0.00    +0.000 C 
ATOM      9  C   UNL     1      -0.352  10.113  20.160  0.00  0.00    +0.000 A 
ATOM     10  C   UNL     1       0.469  10.633  21.163  0.00  0.00    +0.000 A 
ATOM     11  C   UNL     1       0.912  11.944  21.169  0.00  0.00    +0.000 A 
ATOM     12  C   UNL     1       0.521  12.767  20.109  0.00  0.00    +0.000 A 
ATOM     13  C   UNL     1       1.025  14.177  20.002  0.00  0.00    +0.000 C 
ATOM     14  C   UNL     1      -0.296  12.241  19.079  0.00  0.00    +0.000 A 
ATOM     15  C   UNL     1      -0.744  10.902  19.084  0.00  0.00    +0.000 A 
ATOM     16  C   UNL     1       1.071   9.490  21.889  0.00  0.00    +0.000 C 
ATOM     17  O   UNL     1       1.849   9.605  22.823  0.00  0.00    +0.000 OA
BRANCH  15  18
ATOM     18  C   UNL     1      -1.508  10.380  17.892  0.00  0.00    +0.000 C 
ATOM     19  F   UNL     1      -1.910  11.347  17.021  0.00  0.00    +0.000 F 
ATOM     20  F   UNL     1      -0.767   9.507  17.153  0.00  0.00    +0.000 F 
ATOM     21  F   UNL     1      -2.635   9.708  18.250  0.00  0.00    +0.000 F 
ENDBRANCH  15  18
ENDBRANCH   5   7
BRANCH   1  23
ATOM     22  C   UNL     1       2.180   3.596  19.912  0.00  0.00    +0.000 C 
ATOM     23  C   UNL     1       2.892   4.436  19.138  0.00  0.00    +0.000 C 
BRANCH  23  24
ATOM     24  C   UNL     1       4.016   3.992  18.228  0.00  0.00    +0.000 C 
BRANCH  24  25
ATOM     25  C   UNL     1       5.357   4.559  18.565  0.00  0.00    +0.000 A 
ATOM     26  N   UNL     1       5.791   4.858  19.780  0.00  0.00    +0.000 NA
ATOM     27  N   UNL     1       7.075   5.323  19.681  0.00  0.00    +0.000 NA
ATOM     28  C   UNL     1       7.407   5.308  18.411  0.00  0.00    +0.000 A 
ATOM     29  N   UNL     1       6.361   4.845  17.674  0.00  0.00    +0.000 N 
ATOM     30  C   UNL     1       6.337   4.698  16.242  0.00  0.00    +0.000 C 
ENDBRANCH  24  25
ENDBRANCH  23  24
ENDBRANCH   1  23
TORSDOF 5
ENDMDL
