MODEL 1
REMARK VINA RESULT:      -9.5      0.000      0.000
REMARK  Name = 
REMARK  3 active torsions:
REMARK  status: ('A' for Active; 'I' for Inactive)
REMARK    1  A    between atoms: C_8  and  C_9
REMARK    2  A    between atoms: N_11  and  C_12
REMARK    3  A    between atoms: C_14  and  C_15
REMARK                            x       y       z     vdW  Elec       q    Type
REMARK                         _______ _______ _______ _____ _____    ______ ____
ROOT
ATOM      1  C   UNL     1       2.200   6.156  20.109  0.00  0.00    +0.000 C 
ATOM      2  O   UNL     1       1.552   5.638  21.003  0.00  0.00    +0.000 OA
ATOM      3  N   UNL     1       2.236   7.589  19.955  0.00  0.00    +0.000 N 
ATOM      4  H   UNL     1       2.772   8.007  19.211  0.00  0.00    +0.000 HD
ENDROOT
BRANCH   1  12
ATOM      5  O   UNL     1       5.942   3.835  14.203  0.00  0.00    +0.000 OA
ATOM      6  C   UNL     1       6.128   3.991  15.413  0.00  0.00    +0.000 C 
ATOM      7  C   UNL     1       7.332   4.757  15.910  0.00  0.00    +0.000 C 
ATOM      8  C   UNL     1       7.140   5.709  17.073  0.00  0.00    +0.000 C 
ATOM      9  C   UNL     1       6.683   4.980  18.323  0.00  0.00    +0.000 C 
ATOM     10  C   UNL     1       5.197   4.766  18.268  0.00  0.00    +0.000 A 
ATOM     11  C   UNL     1       4.376   5.451  19.178  0.00  0.00    +0.000 A 
ATOM     12  C   UNL     1       2.977   5.310  19.163  0.00  0.00    +0.000 A 
ATOM     13  C   UNL     1       2.398   4.421  18.258  0.00  0.00    +0.000 A 
ATOM     14  C   UNL     1       3.214   3.721  17.362  0.00  0.00    +0.000 A 
ATOM     15  C   UNL     1       4.601   3.929  17.325  0.00  0.00    +0.000 A 
ATOM     16  N   UNL     1       5.297   3.315  16.265  0.00  0.00    +0.000 N 
ATOM     17  H   UNL     1       4.714   2.709  15.695  0.00  0.00    +0.000 HD
ENDBRANCH   1  12
BRANCH   3  18
ATOM     18  C   UNL     1       1.543   8.452  20.805  0.00  0.00    +0.000 A 
ATOM     19  C   UNL     1       0.533   9.332  20.510  0.00  0.00    +0.000 A 
ATOM     20  C   UNL     1       0.177   9.967  21.728  0.00  0.00    +0.000 A 
ATOM     21  N   UNL     1       0.961   9.522  22.727  0.00  0.00    +0.000 NA
ATOM     22  N   UNL     1       1.742   8.595  22.153  0.00  0.00    +0.000 N 
ATOM     23  H   UNL     1       2.397   8.100  22.749  0.00  0.00    +0.000 HD
BRANCH  20  24
ATOM     24  C   UNL     1      -0.851  10.983  21.922  0.00  0.00    +0.000 A 
ATOM     25  C   UNL     1      -1.558  11.069  23.135  0.00  0.00    +0.000 A 
ATOM     26  C   UNL     1      -2.506  12.083  23.336  0.00  0.00    +0.000 A 
ATOM     27  C   UNL     1      -2.764  13.007  22.325  0.00  0.00    +0.000 A 
ATOM     28  C   UNL     1      -2.083  12.911  21.121  0.00  0.00    +0.000 A 
ATOM     29  F   UNL     1      -2.342  13.793  20.146  0.00  0.00    +0.000 F 
ATOM     30  C   UNL     1      -1.138  11.913  20.917  0.00  0.00    +0.000 A 
ATOM     31  F   UNL     1      -0.505  11.860  19.731  0.00  0.00    +0.000 F 
ENDBRANCH  20  24
ENDBRANCH   3  18
TORSDOF 3
ENDMDL
MODEL 2
REMARK VINA RESULT:      -9.5      1.178      1.485
REMARK  Name = 
REMARK  3 active torsions:
REMARK  status: ('A' for Active; 'I' for Inactive)
REMARK    1  A    between atoms: C_8  and  C_9
REMARK    2  A    between atoms: N_11  and  C_12
REMARK    3  A    between atoms: C_14  and  C_15
REMARK                            x       y       z     vdW  Elec       q    Type
REMARK                         _______ _______ _______ _____ _____    ______ ____
ROOT
ATOM      1  C   UNL     1       2.222   6.215  19.913  0.00  0.00    +0.000 C 
ATOM      2  O   UNL     1       1.560   5.713  20.807  0.00  0.00    +0.000 OA
ATOM      3  N   UNL     1       2.267   7.646  19.740  0.00  0.00    +0.000 N 
ATOM      4  H   UNL     1       2.815   8.049  18.996  0.00  0.00    +0.000 HD
ENDROOT
BRANCH   1  12
ATOM      5  O   UNL     1       5.972   3.770  14.062  0.00  0.00    +0.000 OA
ATOM      6  C   UNL     1       6.161   3.963  15.267  0.00  0.00    +0.000 C 
ATOM      7  C   UNL     1       7.357   4.758  15.737  0.00  0.00    +0.000 C 
ATOM      8  C   UNL     1       7.156   5.741  16.872  0.00  0.00    +0.000 C 
ATOM      9  C   UNL     1       6.713   5.043  18.145  0.00  0.00    +0.000 C 
ATOM     10  C   UNL     1       5.230   4.809  18.101  0.00  0.00    +0.000 A 
ATOM     11  C   UNL     1       4.403   5.510  18.995  0.00  0.00    +0.000 A 
ATOM     12  C   UNL     1       3.006   5.351  18.989  0.00  0.00    +0.000 A 
ATOM     13  C   UNL     1       2.436   4.429  18.113  0.00  0.00    +0.000 A 
ATOM     14  C   UNL     1       3.257   3.714  17.234  0.00  0.00    +0.000 A 
ATOM     15  C   UNL     1       4.641   3.938  17.186  0.00  0.00    +0.000 A 
ATOM     16  N   UNL     1       5.342   3.302  16.141  0.00  0.00    +0.000 N 
ATOM     17  H   UNL     1       4.764   2.672  15.592  0.00  0.00    +0.000 HD
ENDBRANCH   1  12
BRANCH   3  18
ATOM     18  C   UNL     1       1.568   8.524  20.568  0.00  0.00    +0.000 A 
ATOM     19  C   UNL     1       0.650   9.486  20.232  0.00  0.00    +0.000 A 
ATOM     20  C   UNL     1       0.239  10.099  21.445  0.00  0.00    +0.000 A 
ATOM     21  N   UNL     1       0.905   9.561  22.483  0.00  0.00    +0.000 NA
ATOM     22  N   UNL     1       1.665   8.601  21.933  0.00  0.00    +0.000 N 
ATOM     23  H   UNL     1       2.232   8.037  22.557  0.00  0.00    +0.000 HD
BRANCH  20  24
ATOM     24  C   UNL     1      -0.728  11.179  21.600  0.00  0.00    +0.000 A 
ATOM     25  C   UNL     1      -0.859  12.174  20.615  0.00  0.00    +0.000 A 
ATOM     26  C   UNL     1      -1.829  13.179  20.744  0.00  0.00    +0.000 A 
ATOM     27  C   UNL     1      -2.663  13.205  21.860  0.00  0.00    +0.000 A 
ATOM     28  C   UNL     1      -2.520  12.237  22.842  0.00  0.00    +0.000 A 
ATOM     29  F   UNL     1      -3.315  12.271  23.921  0.00  0.00    +0.000 F 
ATOM     30  C   UNL     1      -1.566  11.234  22.719  0.00  0.00    +0.000 A 
ATOM     31  F   UNL     1      -1.465  10.318  23.699  0.00  0.00    +0.000 F 
ENDBRANCH  20  24
ENDBRANCH   3  18
TORSDOF 3
ENDMDL
MODEL 3
REMARK VINA RESULT:      -9.2      5.939      8.573
REMARK  Name = 
REMARK  3 active torsions:
REMARK  status: ('A' for Active; 'I' for Inactive)
REMARK    1  A    between atoms: C_8  and  C_9
REMARK    2  A    between atoms: N_11  and  C_12
REMARK    3  A    between atoms: C_14  and  C_15
REMARK                            x       y       z     vdW  Elec       q    Type
REMARK                         _______ _______ _______ _____ _____    ______ ____
ROOT
ATOM      1  C   UNL     1       7.337   7.016  18.166  0.00  0.00    +0.000 C 
ATOM      2  O   UNL     1       8.229   6.624  18.901  0.00  0.00    +0.000 OA
ATOM      3  N   UNL     1       7.285   8.392  17.737  0.00  0.00    +0.000 N 
ATOM      4  H   UNL     1       6.543   8.707  17.132  0.00  0.00    +0.000 HD
ENDROOT
BRANCH   1  12
ATOM      5  O   UNL     1       2.375   1.577  17.903  0.00  0.00    +0.000 OA
ATOM      6  C   UNL     1       2.410   2.804  17.771  0.00  0.00    +0.000 C 
ATOM      7  C   UNL     1       1.447   3.685  18.533  0.00  0.00    +0.000 C 
ATOM      8  C   UNL     1       1.979   4.972  19.129  0.00  0.00    +0.000 C 
ATOM      9  C   UNL     1       2.496   5.914  18.056  0.00  0.00    +0.000 C 
ATOM     10  C   UNL     1       3.896   5.525  17.677  0.00  0.00    +0.000 A 
ATOM     11  C   UNL     1       4.955   6.390  18.000  0.00  0.00    +0.000 A 
ATOM     12  C   UNL     1       6.289   6.072  17.692  0.00  0.00    +0.000 A 
ATOM     13  C   UNL     1       6.559   4.896  16.994  0.00  0.00    +0.000 A 
ATOM     14  C   UNL     1       5.506   4.041  16.652  0.00  0.00    +0.000 A 
ATOM     15  C   UNL     1       4.186   4.321  17.036  0.00  0.00    +0.000 A 
ATOM     16  N   UNL     1       3.238   3.305  16.802  0.00  0.00    +0.000 N 
ATOM     17  H   UNL     1       3.612   2.512  16.291  0.00  0.00    +0.000 HD
ENDBRANCH   1  12
BRANCH   3  18
ATOM     18  C   UNL     1       8.233   9.337  18.129  0.00  0.00    +0.000 A 
ATOM     19  C   UNL     1       8.607  10.500  17.505  0.00  0.00    +0.000 A 
ATOM     20  C   UNL     1       9.607  11.095  18.316  0.00  0.00    +0.000 A 
ATOM     21  N   UNL     1       9.866  10.312  19.380  0.00  0.00    +0.000 NA
ATOM     22  N   UNL     1       9.007   9.288  19.258  0.00  0.00    +0.000 N 
ATOM     23  H   UNL     1       9.011   8.585  19.990  0.00  0.00    +0.000 HD
BRANCH  20  24
ATOM     24  C   UNL     1      10.311  12.348  18.067  0.00  0.00    +0.000 A 
ATOM     25  C   UNL     1      11.649  12.347  17.636  0.00  0.00    +0.000 A 
ATOM     26  C   UNL     1      12.304  13.553  17.344  0.00  0.00    +0.000 A 
ATOM     27  C   UNL     1      11.632  14.765  17.495  0.00  0.00    +0.000 A 
ATOM     28  C   UNL     1      10.319  14.768  17.940  0.00  0.00    +0.000 A 
ATOM     29  F   UNL     1       9.679  15.936  18.096  0.00  0.00    +0.000 F 
ATOM     30  C   UNL     1       9.662  13.577  18.225  0.00  0.00    +0.000 A 
ATOM     31  F   UNL     1       8.389  13.632  18.656  0.00  0.00    +0.000 F 
ENDBRANCH  20  24
ENDBRANCH   3  18
TORSDOF 3
ENDMDL
MODEL 4
REMARK VINA RESULT:      -9.1      6.996      9.924
REMARK  Name = 
REMARK  3 active torsions:
REMARK  status: ('A' for Active; 'I' for Inactive)
REMARK    1  A    between atoms: C_8  and  C_9
REMARK    2  A    between atoms: N_11  and  C_12
REMARK    3  A    between atoms: C_14  and  C_15
REMARK                            x       y       z     vdW  Elec       q    Type
REMARK                         _______ _______ _______ _____ _____    ______ ____
ROOT
ATOM      1  C   UNL     1       8.296   8.891  18.101  0.00  0.00    +0.000 C 
ATOM      2  O   UNL     1       8.802   8.272  19.022  0.00  0.00    +0.000 OA
ATOM      3  N   UNL     1       7.347   8.259  17.217  0.00  0.00    +0.000 N 
ATOM      4  H   UNL     1       6.937   8.779  16.458  0.00  0.00    +0.000 HD
ENDROOT
BRANCH   1  12
ATOM      5  O   UNL     1       9.676  16.042  19.211  0.00  0.00    +0.000 OA
ATOM      6  C   UNL     1      10.264  15.041  18.790  0.00  0.00    +0.000 C 
ATOM      7  C   UNL     1      11.623  14.665  19.336  0.00  0.00    +0.000 C 
ATOM      8  C   UNL     1      11.902  13.200  19.601  0.00  0.00    +0.000 C 
ATOM      9  C   UNL     1      11.827  12.377  18.328  0.00  0.00    +0.000 C 
ATOM     10  C   UNL     1      10.395  12.037  18.031  0.00  0.00    +0.000 A 
ATOM     11  C   UNL     1       9.978  10.699  18.124  0.00  0.00    +0.000 A 
ATOM     12  C   UNL     1       8.646  10.321  17.880  0.00  0.00    +0.000 A 
ATOM     13  C   UNL     1       7.732  11.293  17.477  0.00  0.00    +0.000 A 
ATOM     14  C   UNL     1       8.146  12.624  17.364  0.00  0.00    +0.000 A 
ATOM     15  C   UNL     1       9.455  13.009  17.690  0.00  0.00    +0.000 A 
ATOM     16  N   UNL     1       9.710  14.396  17.718  0.00  0.00    +0.000 N 
ATOM     17  H   UNL     1       8.925  14.958  17.404  0.00  0.00    +0.000 HD
ENDBRANCH   1  12
BRANCH   3  18
ATOM     18  C   UNL     1       6.960   6.927  17.362  0.00  0.00    +0.000 A 
ATOM     19  C   UNL     1       5.817   6.413  17.920  0.00  0.00    +0.000 A 
ATOM     20  C   UNL     1       5.912   5.001  17.816  0.00  0.00    +0.000 A 
ATOM     21  N   UNL     1       7.083   4.657  17.250  0.00  0.00    +0.000 NA
ATOM     22  N   UNL     1       7.671   5.828  16.959  0.00  0.00    +0.000 N 
ATOM     23  H   UNL     1       8.568   5.796  16.485  0.00  0.00    +0.000 HD
BRANCH  20  24
ATOM     24  C   UNL     1       4.935   4.018  18.271  0.00  0.00    +0.000 A 
ATOM     25  C   UNL     1       4.866   3.647  19.625  0.00  0.00    +0.000 A 
ATOM     26  C   UNL     1       3.887   2.743  20.066  0.00  0.00    +0.000 A 
ATOM     27  C   UNL     1       2.984   2.195  19.158  0.00  0.00    +0.000 A 
ATOM     28  C   UNL     1       3.064   2.545  17.818  0.00  0.00    +0.000 A 
ATOM     29  F   UNL     1       2.202   2.008  16.944  0.00  0.00    +0.000 F 
ATOM     30  C   UNL     1       4.026   3.445  17.375  0.00  0.00    +0.000 A 
ATOM     31  F   UNL     1       4.066   3.751  16.066  0.00  0.00    +0.000 F 
ENDBRANCH  20  24
ENDBRANCH   3  18
TORSDOF 3
ENDMDL
MODEL 5
REMARK VINA RESULT:      -9.1      3.905     10.392
REMARK  Name = 
REMARK  3 active torsions:
REMARK  status: ('A' for Active; 'I' for Inactive)
REMARK    1  A    between atoms: C_8  and  C_9
REMARK    2  A    between atoms: N_11  and  C_12
REMARK    3  A    between atoms: C_14  and  C_15
REMARK                            x       y       z     vdW  Elec       q    Type
REMARK                         _______ _______ _______ _____ _____    ______ ____
ROOT
ATOM      1  C   UNL     1       0.967   9.321  20.063  0.00  0.00    +0.000 C 
ATOM      2  O   UNL     1       1.323   8.791  21.102  0.00  0.00    +0.000 OA
ATOM      3  N   UNL     1       1.452   8.852  18.788  0.00  0.00    +0.000 N 
ATOM      4  H   UNL     1       1.154   9.299  17.936  0.00  0.00    +0.000 HD
ENDROOT
BRANCH   1  12
ATOM      5  O   UNL     1      -5.188  13.320  20.694  0.00  0.00    +0.000 OA
ATOM      6  C   UNL     1      -4.077  13.242  21.227  0.00  0.00    +0.000 C 
ATOM      7  C   UNL     1      -3.953  13.143  22.730  0.00  0.00    +0.000 C 
ATOM      8  C   UNL     1      -2.924  12.187  23.298  0.00  0.00    +0.000 C 
ATOM      9  C   UNL     1      -1.516  12.570  22.883  0.00  0.00    +0.000 C 
ATOM     10  C   UNL     1      -1.233  12.038  21.507  0.00  0.00    +0.000 A 
ATOM     11  C   UNL     1      -0.280  11.017  21.353  0.00  0.00    +0.000 A 
ATOM     12  C   UNL     1       0.012  10.462  20.095  0.00  0.00    +0.000 A 
ATOM     13  C   UNL     1      -0.617  10.983  18.966  0.00  0.00    +0.000 A 
ATOM     14  C   UNL     1      -1.552  12.013  19.110  0.00  0.00    +0.000 A 
ATOM     15  C   UNL     1      -1.903  12.505  20.377  0.00  0.00    +0.000 A 
ATOM     16  N   UNL     1      -2.985  13.408  20.419  0.00  0.00    +0.000 N 
ATOM     17  H   UNL     1      -3.329  13.670  19.501  0.00  0.00    +0.000 HD
ENDBRANCH   1  12
BRANCH   3  18
ATOM     18  C   UNL     1       2.341   7.783  18.672  0.00  0.00    +0.000 A 
ATOM     19  C   UNL     1       3.327   7.574  17.741  0.00  0.00    +0.000 A 
ATOM     20  C   UNL     1       3.942   6.338  18.069  0.00  0.00    +0.000 A 
ATOM     21  N   UNL     1       3.336   5.790  19.138  0.00  0.00    +0.000 NA
ATOM     22  N   UNL     1       2.408   6.691  19.496  0.00  0.00    +0.000 N 
ATOM     23  H   UNL     1       1.850   6.486  20.318  0.00  0.00    +0.000 HD
BRANCH  20  24
ATOM     24  C   UNL     1       5.045   5.692  17.368  0.00  0.00    +0.000 A 
ATOM     25  C   UNL     1       5.005   5.514  15.974  0.00  0.00    +0.000 A 
ATOM     26  C   UNL     1       6.094   4.942  15.298  0.00  0.00    +0.000 A 
ATOM     27  C   UNL     1       7.220   4.533  16.010  0.00  0.00    +0.000 A 
ATOM     28  C   UNL     1       7.252   4.689  17.387  0.00  0.00    +0.000 A 
ATOM     29  F   UNL     1       8.331   4.283  18.071  0.00  0.00    +0.000 F 
ATOM     30  C   UNL     1       6.180   5.260  18.063  0.00  0.00    +0.000 A 
ATOM     31  F   UNL     1       6.257   5.388  19.399  0.00  0.00    +0.000 F 
ENDBRANCH  20  24
ENDBRANCH   3  18
TORSDOF 3
ENDMDL
MODEL 6
REMARK VINA RESULT:      -9.1      6.425      9.594
REMARK  Name = 
REMARK  3 active torsions:
REMARK  status: ('A' for Active; 'I' for Inactive)
REMARK    1  A    between atoms: C_8  and  C_9
REMARK    2  A    between atoms: N_11  and  C_12
REMARK    3  A    between atoms: C_14  and  C_15
REMARK                            x       y       z     vdW  Elec       q    Type
REMARK                         _______ _______ _______ _____ _____    ______ ____
ROOT
ATOM      1  C   UNL     1       8.176   8.945  18.040  0.00  0.00    +0.000 C 
ATOM      2  O   UNL     1       8.681   8.218  18.878  0.00  0.00    +0.000 OA
ATOM      3  N   UNL     1       7.104   8.472  17.198  0.00  0.00    +0.000 N 
ATOM      4  H   UNL     1       6.696   9.080  16.506  0.00  0.00    +0.000 HD
ENDROOT
BRANCH   1  12
ATOM      5  O   UNL     1      10.149  15.904  19.437  0.00  0.00    +0.000 OA
ATOM      6  C   UNL     1      10.657  14.870  18.993  0.00  0.00    +0.000 C 
ATOM      7  C   UNL     1      11.963  14.357  19.555  0.00  0.00    +0.000 C 
ATOM      8  C   UNL     1      12.106  12.865  19.773  0.00  0.00    +0.000 C 
ATOM      9  C   UNL     1      11.992  12.095  18.470  0.00  0.00    +0.000 C 
ATOM     10  C   UNL     1      10.543  11.894  18.129  0.00  0.00    +0.000 A 
ATOM     11  C   UNL     1      10.008  10.595  18.164  0.00  0.00    +0.000 A 
ATOM     12  C   UNL     1       8.655  10.345  17.878  0.00  0.00    +0.000 A 
ATOM     13  C   UNL     1       7.839  11.407  17.491  0.00  0.00    +0.000 A 
ATOM     14  C   UNL     1       8.371  12.700  17.435  0.00  0.00    +0.000 A 
ATOM     15  C   UNL     1       9.701  12.956  17.803  0.00  0.00    +0.000 A 
ATOM     16  N   UNL     1      10.075  14.313  17.887  0.00  0.00    +0.000 N 
ATOM     17  H   UNL     1       9.350  14.953  17.577  0.00  0.00    +0.000 HD
ENDBRANCH   1  12
BRANCH   3  18
ATOM     18  C   UNL     1       6.592   7.177  17.293  0.00  0.00    +0.000 A 
ATOM     19  C   UNL     1       5.336   6.767  17.660  0.00  0.00    +0.000 A 
ATOM     20  C   UNL     1       5.333   5.350  17.591  0.00  0.00    +0.000 A 
ATOM     21  N   UNL     1       6.549   4.903  17.230  0.00  0.00    +0.000 NA
ATOM     22  N   UNL     1       7.269   6.017  17.026  0.00  0.00    +0.000 N 
ATOM     23  H   UNL     1       8.226   5.904  16.707  0.00  0.00    +0.000 HD
BRANCH  20  24
ATOM     24  C   UNL     1       4.219   4.458  17.889  0.00  0.00    +0.000 A 
ATOM     25  C   UNL     1       3.816   3.477  16.966  0.00  0.00    +0.000 A 
ATOM     26  C   UNL     1       2.780   2.585  17.282  0.00  0.00    +0.000 A 
ATOM     27  C   UNL     1       2.133   2.676  18.513  0.00  0.00    +0.000 A 
ATOM     28  C   UNL     1       2.515   3.656  19.416  0.00  0.00    +0.000 A 
ATOM     29  F   UNL     1       1.883   3.750  20.594  0.00  0.00    +0.000 F 
ATOM     30  C   UNL     1       3.545   4.539  19.113  0.00  0.00    +0.000 A 
ATOM     31  F   UNL     1       3.878   5.474  20.020  0.00  0.00    +0.000 F 
ENDBRANCH  20  24
ENDBRANCH   3  18
TORSDOF 3
ENDMDL
MODEL 7
REMARK VINA RESULT:      -9.0      6.453      9.587
REMARK  Name = 
REMARK  3 active torsions:
REMARK  status: ('A' for Active; 'I' for Inactive)
REMARK    1  A    between atoms: C_8  and  C_9
REMARK    2  A    between atoms: N_11  and  C_12
REMARK    3  A    between atoms: C_14  and  C_15
REMARK                            x       y       z     vdW  Elec       q    Type
REMARK                         _______ _______ _______ _____ _____    ______ ____
ROOT
ATOM      1  C   UNL     1       8.107   8.600  18.162  0.00  0.00    +0.000 C 
ATOM      2  O   UNL     1       8.616   7.733  18.853  0.00  0.00    +0.000 OA
ATOM      3  N   UNL     1       7.040   8.283  17.245  0.00  0.00    +0.000 N 
ATOM      4  H   UNL     1       6.629   9.006  16.677  0.00  0.00    +0.000 HD
ENDROOT
BRANCH   1  12
ATOM      5  O   UNL     1       8.661  15.706  20.024  0.00  0.00    +0.000 OA
ATOM      6  C   UNL     1       9.331  14.673  20.108  0.00  0.00    +0.000 C 
ATOM      7  C   UNL     1       9.923  14.251  21.433  0.00  0.00    +0.000 C 
ATOM      8  C   UNL     1       9.878  12.780  21.796  0.00  0.00    +0.000 C 
ATOM      9  C   UNL     1      10.663  11.936  20.809  0.00  0.00    +0.000 C 
ATOM     10  C   UNL     1       9.815  11.652  19.603  0.00  0.00    +0.000 A 
ATOM     11  C   UNL     1       9.390  10.335  19.363  0.00  0.00    +0.000 A 
ATOM     12  C   UNL     1       8.576  10.009  18.264  0.00  0.00    +0.000 A 
ATOM     13  C   UNL     1       8.234  11.010  17.357  0.00  0.00    +0.000 A 
ATOM     14  C   UNL     1       8.671  12.320  17.580  0.00  0.00    +0.000 A 
ATOM     15  C   UNL     1       9.412  12.656  18.723  0.00  0.00    +0.000 A 
ATOM     16  N   UNL     1       9.639  14.031  18.940  0.00  0.00    +0.000 N 
ATOM     17  H   UNL     1       9.311  14.619  18.180  0.00  0.00    +0.000 HD
ENDBRANCH   1  12
BRANCH   3  18
ATOM     18  C   UNL     1       6.537   6.990  17.097  0.00  0.00    +0.000 A 
ATOM     19  C   UNL     1       5.377   6.450  17.591  0.00  0.00    +0.000 A 
ATOM     20  C   UNL     1       5.337   5.101  17.152  0.00  0.00    +0.000 A 
ATOM     21  N   UNL     1       6.445   4.811  16.446  0.00  0.00    +0.000 NA
ATOM     22  N   UNL     1       7.126   5.967  16.401  0.00  0.00    +0.000 N 
ATOM     23  H   UNL     1       7.993   5.979  15.875  0.00  0.00    +0.000 HD
BRANCH  20  24
ATOM     24  C   UNL     1       4.294   4.119  17.425  0.00  0.00    +0.000 A 
ATOM     25  C   UNL     1       4.604   2.751  17.528  0.00  0.00    +0.000 A 
ATOM     26  C   UNL     1       3.606   1.818  17.846  0.00  0.00    +0.000 A 
ATOM     27  C   UNL     1       2.294   2.241  18.049  0.00  0.00    +0.000 A 
ATOM     28  C   UNL     1       1.983   3.587  17.928  0.00  0.00    +0.000 A 
ATOM     29  F   UNL     1       0.718   3.990  18.112  0.00  0.00    +0.000 F 
ATOM     30  C   UNL     1       2.967   4.518  17.620  0.00  0.00    +0.000 A 
ATOM     31  F   UNL     1       2.617   5.812  17.511  0.00  0.00    +0.000 F 
ENDBRANCH  20  24
ENDBRANCH   3  18
TORSDOF 3
ENDMDL
MODEL 8
REMARK VINA RESULT:      -9.0      6.868      9.860
REMARK  Name = 
REMARK  3 active torsions:
REMARK  status: ('A' for Active; 'I' for Inactive)
REMARK    1  A    between atoms: C_8  and  C_9
REMARK    2  A    between atoms: N_11  and  C_12
REMARK    3  A    between atoms: C_14  and  C_15
REMARK                            x       y       z     vdW  Elec       q    Type
REMARK                         _______ _______ _______ _____ _____    ______ ____
ROOT
ATOM      1  C   UNL     1       8.106   8.632  18.150  0.00  0.00    +0.000 C 
ATOM      2  O   UNL     1       8.616   7.766  18.841  0.00  0.00    +0.000 OA
ATOM      3  N   UNL     1       7.028   8.317  17.245  0.00  0.00    +0.000 N 
ATOM      4  H   UNL     1       6.615   9.040  16.677  0.00  0.00    +0.000 HD
ENDROOT
BRANCH   1  12
ATOM      5  O   UNL     1       8.719  15.748  19.957  0.00  0.00    +0.000 OA
ATOM      6  C   UNL     1       9.383  14.711  20.045  0.00  0.00    +0.000 C 
ATOM      7  C   UNL     1       9.979  14.294  21.370  0.00  0.00    +0.000 C 
ATOM      8  C   UNL     1       9.926  12.826  21.743  0.00  0.00    +0.000 C 
ATOM      9  C   UNL     1      10.700  11.970  20.758  0.00  0.00    +0.000 C 
ATOM     10  C   UNL     1       9.843  11.683  19.559  0.00  0.00    +0.000 A 
ATOM     11  C   UNL     1       9.407  10.367  19.331  0.00  0.00    +0.000 A 
ATOM     12  C   UNL     1       8.585  10.038  18.239  0.00  0.00    +0.000 A 
ATOM     13  C   UNL     1       8.244  11.036  17.327  0.00  0.00    +0.000 A 
ATOM     14  C   UNL     1       8.692  12.344  17.537  0.00  0.00    +0.000 A 
ATOM     15  C   UNL     1       9.442  12.683  18.674  0.00  0.00    +0.000 A 
ATOM     16  N   UNL     1       9.679  14.058  18.879  0.00  0.00    +0.000 N 
ATOM     17  H   UNL     1       9.351  14.643  18.117  0.00  0.00    +0.000 HD
ENDBRANCH   1  12
BRANCH   3  18
ATOM     18  C   UNL     1       6.515   7.027  17.110  0.00  0.00    +0.000 A 
ATOM     19  C   UNL     1       5.554   6.393  17.856  0.00  0.00    +0.000 A 
ATOM     20  C   UNL     1       5.399   5.095  17.305  0.00  0.00    +0.000 A 
ATOM     21  N   UNL     1       6.256   4.923  16.282  0.00  0.00    +0.000 NA
ATOM     22  N   UNL     1       6.884   6.103  16.168  0.00  0.00    +0.000 N 
ATOM     23  H   UNL     1       7.561   6.203  15.419  0.00  0.00    +0.000 HD
BRANCH  20  24
ATOM     24  C   UNL     1       4.490   4.050  17.759  0.00  0.00    +0.000 A 
ATOM     25  C   UNL     1       3.503   3.532  16.902  0.00  0.00    +0.000 A 
ATOM     26  C   UNL     1       2.668   2.488  17.327  0.00  0.00    +0.000 A 
ATOM     27  C   UNL     1       2.804   1.965  18.611  0.00  0.00    +0.000 A 
ATOM     28  C   UNL     1       3.763   2.488  19.464  0.00  0.00    +0.000 A 
ATOM     29  F   UNL     1       3.883   1.991  20.704  0.00  0.00    +0.000 F 
ATOM     30  C   UNL     1       4.598   3.518  19.049  0.00  0.00    +0.000 A 
ATOM     31  F   UNL     1       5.511   3.994  19.914  0.00  0.00    +0.000 F 
ENDBRANCH  20  24
ENDBRANCH   3  18
TORSDOF 3
ENDMDL
MODEL 9
REMARK VINA RESULT:      -8.9      2.515      3.570
REMARK  Name = 
REMARK  3 active torsions:
REMARK  status: ('A' for Active; 'I' for Inactive)
REMARK    1  A    between atoms: C_8  and  C_9
REMARK    2  A    between atoms: N_11  and  C_12
REMARK    3  A    between atoms: C_14  and  C_15
REMARK                            x       y       z     vdW  Elec       q    Type
REMARK                         _______ _______ _______ _____ _____    ______ ____
ROOT
ATOM      1  C   UNL     1       2.085   8.338  18.359  0.00  0.00    +0.000 C 
ATOM      2  O   UNL     1       2.058   9.105  17.411  0.00  0.00    +0.000 OA
ATOM      3  N   UNL     1       1.441   8.679  19.604  0.00  0.00    +0.000 N 
ATOM      4  H   UNL     1       1.472   8.039  20.382  0.00  0.00    +0.000 HD
ENDROOT
BRANCH   1  12
ATOM      5  O   UNL     1       5.030   1.776  19.952  0.00  0.00    +0.000 OA
ATOM      6  C   UNL     1       4.154   2.243  19.217  0.00  0.00    +0.000 C 
ATOM      7  C   UNL     1       2.765   1.649  19.210  0.00  0.00    +0.000 C 
ATOM      8  C   UNL     1       1.585   2.599  19.151  0.00  0.00    +0.000 C 
ATOM      9  C   UNL     1       1.592   3.420  17.874  0.00  0.00    +0.000 C 
ATOM     10  C   UNL     1       2.514   4.594  18.035  0.00  0.00    +0.000 A 
ATOM     11  C   UNL     1       1.969   5.889  18.070  0.00  0.00    +0.000 A 
ATOM     12  C   UNL     1       2.777   7.027  18.241  0.00  0.00    +0.000 A 
ATOM     13  C   UNL     1       4.160   6.867  18.316  0.00  0.00    +0.000 A 
ATOM     14  C   UNL     1       4.710   5.581  18.262  0.00  0.00    +0.000 A 
ATOM     15  C   UNL     1       3.893   4.444  18.177  0.00  0.00    +0.000 A 
ATOM     16  N   UNL     1       4.539   3.198  18.316  0.00  0.00    +0.000 N 
ATOM     17  H   UNL     1       5.550   3.271  18.371  0.00  0.00    +0.000 HD
ENDBRANCH   1  12
BRANCH   3  18
ATOM     18  C   UNL     1       0.764   9.884  19.794  0.00  0.00    +0.000 A 
ATOM     19  C   UNL     1      -0.387  10.129  20.499  0.00  0.00    +0.000 A 
ATOM     20  C   UNL     1      -0.651  11.517  20.378  0.00  0.00    +0.000 A 
ATOM     21  N   UNL     1       0.280  12.099  19.600  0.00  0.00    +0.000 NA
ATOM     22  N   UNL     1       1.129  11.106  19.295  0.00  0.00    +0.000 N 
ATOM     23  H   UNL     1       1.941  11.340  18.733  0.00  0.00    +0.000 HD
BRANCH  20  24
ATOM     24  C   UNL     1      -1.769  12.253  20.958  0.00  0.00    +0.000 A 
ATOM     25  C   UNL     1      -2.782  12.783  20.140  0.00  0.00    +0.000 A 
ATOM     26  C   UNL     1      -3.883  13.442  20.708  0.00  0.00    +0.000 A 
ATOM     27  C   UNL     1      -3.972  13.587  22.091  0.00  0.00    +0.000 A 
ATOM     28  C   UNL     1      -2.963  13.083  22.897  0.00  0.00    +0.000 A 
ATOM     29  F   UNL     1      -3.044  13.235  24.227  0.00  0.00    +0.000 F 
ATOM     30  C   UNL     1      -1.872  12.424  22.343  0.00  0.00    +0.000 A 
ATOM     31  F   UNL     1      -0.918  11.954  23.166  0.00  0.00    +0.000 F 
ENDBRANCH  20  24
ENDBRANCH   3  18
TORSDOF 3
ENDMDL
