MODEL 1
REMARK VINA RESULT:      -8.8      0.000      0.000
REMARK  Name = 
REMARK  8 active torsions:
REMARK  status: ('A' for Active; 'I' for Inactive)
REMARK    1  A    between atoms: C_1  and  C_2
REMARK    2  A    between atoms: C_5  and  N_6
REMARK    3  A    between atoms: C_7  and  C_9
REMARK    4  A    between atoms: C_9  and  O_10
REMARK    5  A    between atoms: O_10  and  C_11
REMARK    6  A    between atoms: C_11  and  C_13
REMARK    7  A    between atoms: C_13  and  N_14
REMARK    8  A    between atoms: C_26  and  C_27
REMARK                            x       y       z     vdW  Elec       q    Type
REMARK                         _______ _______ _______ _____ _____    ______ ____
ROOT
ATOM      1  C   UNL     1       7.281   5.721  18.458  0.00  0.00    +0.000 C 
ATOM      2  O   UNL     1       7.769   5.165  19.434  0.00  0.00    +0.000 OA
ENDROOT
BRANCH   1   3
ATOM      3  O   UNL     1       7.649   6.949  17.983  0.00  0.00    +0.000 OA
BRANCH   3   4
ATOM      4  C   UNL     1       8.525   7.701  18.829  0.00  0.00    +0.000 C 
BRANCH   4   6
ATOM      5  N   UNL     1       9.452   9.940  19.084  0.00  0.00    +0.000 N 
ATOM      6  C   UNL     1       8.481   9.177  18.444  0.00  0.00    +0.000 C 
ATOM      7  O   UNL     1       7.653   9.567  17.623  0.00  0.00    +0.000 OA
ATOM      8  H   UNL     1      10.041   9.441  19.734  0.00  0.00    +0.000 HD
BRANCH   5  13
ATOM      9  C   UNL     1      10.352  15.590  18.404  0.00  0.00    +0.000 C 
ATOM     10  C   UNL     1      10.125  14.121  18.592  0.00  0.00    +0.000 A 
ATOM     11  C   UNL     1      10.350  13.235  17.548  0.00  0.00    +0.000 A 
ATOM     12  C   UNL     1      10.133  11.866  17.720  0.00  0.00    +0.000 A 
ATOM     13  C   UNL     1       9.684  11.333  18.936  0.00  0.00    +0.000 A 
ATOM     14  C   UNL     1       9.463  12.223  20.012  0.00  0.00    +0.000 A 
ATOM     15  C   UNL     1       8.996  11.826  21.387  0.00  0.00    +0.000 C 
ATOM     16  C   UNL     1       9.686  13.608  19.817  0.00  0.00    +0.000 A 
ENDBRANCH   5  13
ENDBRANCH   4   6
ENDBRANCH   3   4
ENDBRANCH   1   3
BRANCH   1  17
ATOM     17  C   UNL     1       6.224   5.109  17.548  0.00  0.00    +0.000 C 
BRANCH  17  18
ATOM     18  N   UNL     1       5.185   4.451  18.329  0.00  0.00    +0.000 N 
ATOM     19  N   UNL     1       5.592   3.355  19.089  0.00  0.00    +0.000 N 
ATOM     20  C   UNL     1       4.736   2.643  19.890  0.00  0.00    +0.000 A 
ATOM     21  O   UNL     1       5.097   1.624  20.466  0.00  0.00    +0.000 OA
ATOM     22  C   UNL     1       3.365   3.165  20.031  0.00  0.00    +0.000 A 
ATOM     23  C   UNL     1       2.481   2.553  20.931  0.00  0.00    +0.000 A 
ATOM     24  C   UNL     1       1.192   3.060  21.097  0.00  0.00    +0.000 A 
ATOM     25  C   UNL     1       0.777   4.166  20.356  0.00  0.00    +0.000 A 
ATOM     26  C   UNL     1       1.653   4.770  19.450  0.00  0.00    +0.000 A 
ATOM     27  C   UNL     1       2.956   4.275  19.296  0.00  0.00    +0.000 A 
ATOM     28  C   UNL     1       3.896   4.952  18.376  0.00  0.00    +0.000 A 
ATOM     29  O   UNL     1       3.532   5.918  17.712  0.00  0.00    +0.000 OA
ATOM     30  H   UNL     1       6.547   3.017  19.022  0.00  0.00    +0.000 HD
ENDBRANCH  17  18
ENDBRANCH   1  17
TORSDOF 6
ENDMDL
MODEL 2
REMARK VINA RESULT:      -8.7      1.146      1.466
REMARK  Name = 
REMARK  8 active torsions:
REMARK  status: ('A' for Active; 'I' for Inactive)
REMARK    1  A    between atoms: C_1  and  C_2
REMARK    2  A    between atoms: C_5  and  N_6
REMARK    3  A    between atoms: C_7  and  C_9
REMARK    4  A    between atoms: C_9  and  O_10
REMARK    5  A    between atoms: O_10  and  C_11
REMARK    6  A    between atoms: C_11  and  C_13
REMARK    7  A    between atoms: C_13  and  N_14
REMARK    8  A    between atoms: C_26  and  C_27
REMARK                            x       y       z     vdW  Elec       q    Type
REMARK                         _______ _______ _______ _____ _____    ______ ____
ROOT
ATOM      1  C   UNL     1       7.250   5.585  17.847  0.00  0.00    +0.000 C 
ATOM      2  O   UNL     1       7.685   5.277  18.950  0.00  0.00    +0.000 OA
ENDROOT
BRANCH   1   3
ATOM      3  O   UNL     1       7.725   6.603  17.068  0.00  0.00    +0.000 OA
BRANCH   3   4
ATOM      4  C   UNL     1       7.178   7.897  17.342  0.00  0.00    +0.000 C 
BRANCH   4   6
ATOM      5  N   UNL     1       8.271  10.052  17.652  0.00  0.00    +0.000 N 
ATOM      6  C   UNL     1       8.192   8.740  18.108  0.00  0.00    +0.000 C 
ATOM      7  O   UNL     1       8.820   8.240  19.040  0.00  0.00    +0.000 OA
ATOM      8  H   UNL     1       7.679  10.278  16.867  0.00  0.00    +0.000 HD
BRANCH   5  13
ATOM      9  C   UNL     1      11.717  14.206  19.669  0.00  0.00    +0.000 C 
ATOM     10  C   UNL     1      10.810  13.133  19.150  0.00  0.00    +0.000 A 
ATOM     11  C   UNL     1      11.104  11.794  19.374  0.00  0.00    +0.000 A 
ATOM     12  C   UNL     1      10.263  10.792  18.885  0.00  0.00    +0.000 A 
ATOM     13  C   UNL     1       9.103  11.087  18.156  0.00  0.00    +0.000 A 
ATOM     14  C   UNL     1       8.785  12.446  17.931  0.00  0.00    +0.000 A 
ATOM     15  C   UNL     1       7.577  12.945  17.184  0.00  0.00    +0.000 C 
ATOM     16  C   UNL     1       9.652  13.448  18.433  0.00  0.00    +0.000 A 
ENDBRANCH   5  13
ENDBRANCH   4   6
ENDBRANCH   3   4
ENDBRANCH   1   3
BRANCH   1  17
ATOM     17  C   UNL     1       6.147   4.838  17.108  0.00  0.00    +0.000 C 
BRANCH  17  18
ATOM     18  N   UNL     1       5.156   4.318  18.042  0.00  0.00    +0.000 N 
ATOM     19  N   UNL     1       5.582   3.282  18.872  0.00  0.00    +0.000 N 
ATOM     20  C   UNL     1       4.773   2.701  19.814  0.00  0.00    +0.000 A 
ATOM     21  O   UNL     1       5.139   1.725  20.459  0.00  0.00    +0.000 OA
ATOM     22  C   UNL     1       3.447   3.310  20.022  0.00  0.00    +0.000 A 
ATOM     23  C   UNL     1       2.624   2.840  21.055  0.00  0.00    +0.000 A 
ATOM     24  C   UNL     1       1.380   3.432  21.282  0.00  0.00    +0.000 A 
ATOM     25  C   UNL     1       0.950   4.481  20.469  0.00  0.00    +0.000 A 
ATOM     26  C   UNL     1       1.765   4.943  19.433  0.00  0.00    +0.000 A 
ATOM     27  C   UNL     1       3.023   4.363  19.215  0.00  0.00    +0.000 A 
ATOM     28  C   UNL     1       3.902   4.893  18.151  0.00  0.00    +0.000 A 
ATOM     29  O   UNL     1       3.523   5.808  17.426  0.00  0.00    +0.000 OA
ATOM     30  H   UNL     1       6.510   2.886  18.756  0.00  0.00    +0.000 HD
ENDBRANCH  17  18
ENDBRANCH   1  17
TORSDOF 6
ENDMDL
MODEL 3
REMARK VINA RESULT:      -8.6      1.847      2.262
REMARK  Name = 
REMARK  8 active torsions:
REMARK  status: ('A' for Active; 'I' for Inactive)
REMARK    1  A    between atoms: C_1  and  C_2
REMARK    2  A    between atoms: C_5  and  N_6
REMARK    3  A    between atoms: C_7  and  C_9
REMARK    4  A    between atoms: C_9  and  O_10
REMARK    5  A    between atoms: O_10  and  C_11
REMARK    6  A    between atoms: C_11  and  C_13
REMARK    7  A    between atoms: C_13  and  N_14
REMARK    8  A    between atoms: C_26  and  C_27
REMARK                            x       y       z     vdW  Elec       q    Type
REMARK                         _______ _______ _______ _____ _____    ______ ____
ROOT
ATOM      1  C   UNL     1       6.707   6.459  16.977  0.00  0.00    +0.000 C 
ATOM      2  O   UNL     1       7.577   5.602  16.881  0.00  0.00    +0.000 OA
ENDROOT
BRANCH   1   3
ATOM      3  O   UNL     1       6.848   7.659  17.618  0.00  0.00    +0.000 OA
BRANCH   3   4
ATOM      4  C   UNL     1       8.109   7.871  18.260  0.00  0.00    +0.000 C 
BRANCH   4   6
ATOM      5  N   UNL     1       9.413   9.699  19.206  0.00  0.00    +0.000 N 
ATOM      6  C   UNL     1       8.448   9.359  18.264  0.00  0.00    +0.000 C 
ATOM      7  O   UNL     1       7.894  10.112  17.465  0.00  0.00    +0.000 OA
ATOM      8  H   UNL     1       9.749   8.941  19.781  0.00  0.00    +0.000 HD
BRANCH   5  13
ATOM      9  C   UNL     1      11.586  14.956  20.126  0.00  0.00    +0.000 C 
ATOM     10  C   UNL     1      11.025  13.585  19.900  0.00  0.00    +0.000 A 
ATOM     11  C   UNL     1      11.331  12.882  18.742  0.00  0.00    +0.000 A 
ATOM     12  C   UNL     1      10.804  11.607  18.527  0.00  0.00    +0.000 A 
ATOM     13  C   UNL     1       9.953  10.989  19.454  0.00  0.00    +0.000 A 
ATOM     14  C   UNL     1       9.643  11.689  20.642  0.00  0.00    +0.000 A 
ATOM     15  C   UNL     1       8.761  11.175  21.749  0.00  0.00    +0.000 C 
ATOM     16  C   UNL     1      10.185  12.983  20.841  0.00  0.00    +0.000 A 
ENDBRANCH   5  13
ENDBRANCH   4   6
ENDBRANCH   3   4
ENDBRANCH   1   3
BRANCH   1  17
ATOM     17  C   UNL     1       5.330   6.376  16.332  0.00  0.00    +0.000 C 
BRANCH  17  18
ATOM     18  N   UNL     1       4.363   5.785  17.248  0.00  0.00    +0.000 N 
ATOM     19  N   UNL     1       3.740   6.665  18.132  0.00  0.00    +0.000 N 
ATOM     20  C   UNL     1       2.794   6.264  19.041  0.00  0.00    +0.000 A 
ATOM     21  O   UNL     1       2.338   7.038  19.875  0.00  0.00    +0.000 OA
ATOM     22  C   UNL     1       2.346   4.862  18.963  0.00  0.00    +0.000 A 
ATOM     23  C   UNL     1       1.295   4.426  19.782  0.00  0.00    +0.000 A 
ATOM     24  C   UNL     1       0.840   3.109  19.693  0.00  0.00    +0.000 A 
ATOM     25  C   UNL     1       1.443   2.223  18.800  0.00  0.00    +0.000 A 
ATOM     26  C   UNL     1       2.498   2.654  17.992  0.00  0.00    +0.000 A 
ATOM     27  C   UNL     1       2.944   3.982  18.066  0.00  0.00    +0.000 A 
ATOM     28  C   UNL     1       4.025   4.445  17.169  0.00  0.00    +0.000 A 
ATOM     29  O   UNL     1       4.566   3.666  16.390  0.00  0.00    +0.000 OA
ATOM     30  H   UNL     1       4.020   7.640  18.161  0.00  0.00    +0.000 HD
ENDBRANCH  17  18
ENDBRANCH   1  17
TORSDOF 6
ENDMDL
MODEL 4
REMARK VINA RESULT:      -8.6      1.832      2.603
REMARK  Name = 
REMARK  8 active torsions:
REMARK  status: ('A' for Active; 'I' for Inactive)
REMARK    1  A    between atoms: C_1  and  C_2
REMARK    2  A    between atoms: C_5  and  N_6
REMARK    3  A    between atoms: C_7  and  C_9
REMARK    4  A    between atoms: C_9  and  O_10
REMARK    5  A    between atoms: O_10  and  C_11
REMARK    6  A    between atoms: C_11  and  C_13
REMARK    7  A    between atoms: C_13  and  N_14
REMARK    8  A    between atoms: C_26  and  C_27
REMARK                            x       y       z     vdW  Elec       q    Type
REMARK                         _______ _______ _______ _____ _____    ______ ____
ROOT
ATOM      1  C   UNL     1       7.022   6.017  16.699  0.00  0.00    +0.000 C 
ATOM      2  O   UNL     1       7.627   4.977  16.924  0.00  0.00    +0.000 OA
ENDROOT
BRANCH   1   3
ATOM      3  O   UNL     1       7.535   7.276  16.846  0.00  0.00    +0.000 OA
BRANCH   3   4
ATOM      4  C   UNL     1       8.134   7.554  18.115  0.00  0.00    +0.000 C 
BRANCH   4   6
ATOM      5  N   UNL     1       9.133   9.423  19.319  0.00  0.00    +0.000 N 
ATOM      6  C   UNL     1       8.223   9.062  18.330  0.00  0.00    +0.000 C 
ATOM      7  O   UNL     1       7.541   9.817  17.640  0.00  0.00    +0.000 OA
ATOM      8  H   UNL     1       9.598   8.658  19.785  0.00  0.00    +0.000 HD
BRANCH   5  13
ATOM      9  C   UNL     1      10.465  14.722  21.147  0.00  0.00    +0.000 C 
ATOM     10  C   UNL     1      10.115  13.350  20.659  0.00  0.00    +0.000 A 
ATOM     11  C   UNL     1       9.300  12.520  21.417  0.00  0.00    +0.000 A 
ATOM     12  C   UNL     1       8.978  11.238  20.967  0.00  0.00    +0.000 A 
ATOM     13  C   UNL     1       9.457  10.737  19.749  0.00  0.00    +0.000 A 
ATOM     14  C   UNL     1      10.279  11.576  18.961  0.00  0.00    +0.000 A 
ATOM     15  C   UNL     1      10.868  11.209  17.625  0.00  0.00    +0.000 C 
ATOM     16  C   UNL     1      10.595  12.872  19.436  0.00  0.00    +0.000 A 
ENDBRANCH   5  13
ENDBRANCH   4   6
ENDBRANCH   3   4
ENDBRANCH   1   3
BRANCH   1  17
ATOM     17  C   UNL     1       5.607   6.097  16.140  0.00  0.00    +0.000 C 
BRANCH  17  18
ATOM     18  N   UNL     1       4.642   5.563  17.093  0.00  0.00    +0.000 N 
ATOM     19  N   UNL     1       4.047   6.491  17.947  0.00  0.00    +0.000 N 
ATOM     20  C   UNL     1       3.107   6.147  18.883  0.00  0.00    +0.000 A 
ATOM     21  O   UNL     1       2.676   6.964  19.689  0.00  0.00    +0.000 OA
ATOM     22  C   UNL     1       2.632   4.752  18.871  0.00  0.00    +0.000 A 
ATOM     23  C   UNL     1       1.585   4.370  19.721  0.00  0.00    +0.000 A 
ATOM     24  C   UNL     1       1.105   3.059  19.694  0.00  0.00    +0.000 A 
ATOM     25  C   UNL     1       1.680   2.125  18.832  0.00  0.00    +0.000 A 
ATOM     26  C   UNL     1       2.732   2.502  17.992  0.00  0.00    +0.000 A 
ATOM     27  C   UNL     1       3.202   3.823  18.004  0.00  0.00    +0.000 A 
ATOM     28  C   UNL     1       4.279   4.228  17.075  0.00  0.00    +0.000 A 
ATOM     29  O   UNL     1       4.796   3.407  16.323  0.00  0.00    +0.000 OA
ATOM     30  H   UNL     1       4.346   7.461  17.930  0.00  0.00    +0.000 HD
ENDBRANCH  17  18
ENDBRANCH   1  17
TORSDOF 6
ENDMDL
MODEL 5
REMARK VINA RESULT:      -8.5      4.958      5.590
REMARK  Name = 
REMARK  8 active torsions:
REMARK  status: ('A' for Active; 'I' for Inactive)
REMARK    1  A    between atoms: C_1  and  C_2
REMARK    2  A    between atoms: C_5  and  N_6
REMARK    3  A    between atoms: C_7  and  C_9
REMARK    4  A    between atoms: C_9  and  O_10
REMARK    5  A    between atoms: O_10  and  C_11
REMARK    6  A    between atoms: C_11  and  C_13
REMARK    7  A    between atoms: C_13  and  N_14
REMARK    8  A    between atoms: C_26  and  C_27
REMARK                            x       y       z     vdW  Elec       q    Type
REMARK                         _______ _______ _______ _____ _____    ______ ____
ROOT
ATOM      1  C   UNL     1       6.495   4.518  16.996  0.00  0.00    +0.000 C 
ATOM      2  O   UNL     1       7.398   4.218  17.767  0.00  0.00    +0.000 OA
ENDROOT
BRANCH   1   3
ATOM      3  O   UNL     1       6.398   5.699  16.315  0.00  0.00    +0.000 OA
BRANCH   3   4
ATOM      4  C   UNL     1       5.068   6.132  16.015  0.00  0.00    +0.000 C 
BRANCH   4   6
ATOM      5  N   UNL     1       3.195   7.091  17.244  0.00  0.00    +0.000 N 
ATOM      6  C   UNL     1       4.578   7.094  17.093  0.00  0.00    +0.000 C 
ATOM      7  O   UNL     1       5.392   7.754  17.736  0.00  0.00    +0.000 OA
ATOM      8  H   UNL     1       2.689   6.484  16.616  0.00  0.00    +0.000 HD
BRANCH   5  13
ATOM      9  C   UNL     1       0.026  10.212  20.907  0.00  0.00    +0.000 C 
ATOM     10  C   UNL     1       0.860   9.400  19.964  0.00  0.00    +0.000 A 
ATOM     11  C   UNL     1       1.018   9.798  18.643  0.00  0.00    +0.000 A 
ATOM     12  C   UNL     1       1.790   9.039  17.761  0.00  0.00    +0.000 A 
ATOM     13  C   UNL     1       2.430   7.858  18.162  0.00  0.00    +0.000 A 
ATOM     14  C   UNL     1       2.287   7.447  19.507  0.00  0.00    +0.000 A 
ATOM     15  C   UNL     1       2.913   6.218  20.112  0.00  0.00    +0.000 C 
ATOM     16  C   UNL     1       1.498   8.230  20.386  0.00  0.00    +0.000 A 
ENDBRANCH   5  13
ENDBRANCH   4   6
ENDBRANCH   3   4
ENDBRANCH   1   3
BRANCH   1  17
ATOM     17  C   UNL     1       5.351   3.594  16.597  0.00  0.00    +0.000 C 
BRANCH  17  18
ATOM     18  N   UNL     1       4.542   3.239  17.757  0.00  0.00    +0.000 N 
ATOM     19  N   UNL     1       5.242   2.796  18.879  0.00  0.00    +0.000 N 
ATOM     20  C   UNL     1       4.625   2.444  20.051  0.00  0.00    +0.000 A 
ATOM     21  O   UNL     1       5.253   1.961  20.986  0.00  0.00    +0.000 OA
ATOM     22  C   UNL     1       3.173   2.680  20.138  0.00  0.00    +0.000 A 
ATOM     23  C   UNL     1       2.507   2.455  21.352  0.00  0.00    +0.000 A 
ATOM     24  C   UNL     1       1.138   2.708  21.454  0.00  0.00    +0.000 A 
ATOM     25  C   UNL     1       0.430   3.167  20.344  0.00  0.00    +0.000 A 
ATOM     26  C   UNL     1       1.090   3.381  19.131  0.00  0.00    +0.000 A 
ATOM     27  C   UNL     1       2.469   3.147  19.031  0.00  0.00    +0.000 A 
ATOM     28  C   UNL     1       3.172   3.426  17.760  0.00  0.00    +0.000 A 
ATOM     29  O   UNL     1       2.550   3.819  16.777  0.00  0.00    +0.000 OA
ATOM     30  H   UNL     1       6.248   2.669  18.833  0.00  0.00    +0.000 HD
ENDBRANCH  17  18
ENDBRANCH   1  17
TORSDOF 6
ENDMDL
MODEL 6
REMARK VINA RESULT:      -8.4      5.170      6.070
REMARK  Name = 
REMARK  8 active torsions:
REMARK  status: ('A' for Active; 'I' for Inactive)
REMARK    1  A    between atoms: C_1  and  C_2
REMARK    2  A    between atoms: C_5  and  N_6
REMARK    3  A    between atoms: C_7  and  C_9
REMARK    4  A    between atoms: C_9  and  O_10
REMARK    5  A    between atoms: O_10  and  C_11
REMARK    6  A    between atoms: C_11  and  C_13
REMARK    7  A    between atoms: C_13  and  N_14
REMARK    8  A    between atoms: C_26  and  C_27
REMARK                            x       y       z     vdW  Elec       q    Type
REMARK                         _______ _______ _______ _____ _____    ______ ____
ROOT
ATOM      1  C   UNL     1       6.020   4.324  16.243  0.00  0.00    +0.000 C 
ATOM      2  O   UNL     1       7.022   4.213  15.547  0.00  0.00    +0.000 OA
ENDROOT
BRANCH   1   3
ATOM      3  O   UNL     1       5.857   5.234  17.250  0.00  0.00    +0.000 OA
BRANCH   3   4
ATOM      4  C   UNL     1       4.838   6.216  17.037  0.00  0.00    +0.000 C 
BRANCH   4   6
ATOM      5  N   UNL     1       3.028   7.367  18.194  0.00  0.00    +0.000 N 
ATOM      6  C   UNL     1       4.106   6.500  18.345  0.00  0.00    +0.000 C 
ATOM      7  O   UNL     1       4.481   5.958  19.383  0.00  0.00    +0.000 OA
ATOM      8  H   UNL     1       2.878   7.718  17.260  0.00  0.00    +0.000 HD
BRANCH   5  13
ATOM      9  C   UNL     1      -0.510   9.173  22.367  0.00  0.00    +0.000 C 
ATOM     10  C   UNL     1       0.400   8.707  21.272  0.00  0.00    +0.000 A 
ATOM     11  C   UNL     1       1.007   7.460  21.345  0.00  0.00    +0.000 A 
ATOM     12  C   UNL     1       1.861   7.027  20.328  0.00  0.00    +0.000 A 
ATOM     13  C   UNL     1       2.142   7.819  19.207  0.00  0.00    +0.000 A 
ATOM     14  C   UNL     1       1.522   9.086  19.115  0.00  0.00    +0.000 A 
ATOM     15  C   UNL     1       1.697  10.060  17.979  0.00  0.00    +0.000 C 
ATOM     16  C   UNL     1       0.660   9.509  20.157  0.00  0.00    +0.000 A 
ENDBRANCH   5  13
ENDBRANCH   4   6
ENDBRANCH   3   4
ENDBRANCH   1   3
BRANCH   1  17
ATOM     17  C   UNL     1       4.742   3.517  16.063  0.00  0.00    +0.000 C 
BRANCH  17  18
ATOM     18  N   UNL     1       4.129   3.219  17.351  0.00  0.00    +0.000 N 
ATOM     19  N   UNL     1       5.004   2.851  18.374  0.00  0.00    +0.000 N 
ATOM     20  C   UNL     1       4.582   2.559  19.646  0.00  0.00    +0.000 A 
ATOM     21  O   UNL     1       5.358   2.140  20.497  0.00  0.00    +0.000 OA
ATOM     22  C   UNL     1       3.156   2.780  19.944  0.00  0.00    +0.000 A 
ATOM     23  C   UNL     1       2.690   2.618  21.256  0.00  0.00    +0.000 A 
ATOM     24  C   UNL     1       1.348   2.858  21.556  0.00  0.00    +0.000 A 
ATOM     25  C   UNL     1       0.467   3.243  20.545  0.00  0.00    +0.000 A 
ATOM     26  C   UNL     1       0.928   3.394  19.235  0.00  0.00    +0.000 A 
ATOM     27  C   UNL     1       2.280   3.173  18.935  0.00  0.00    +0.000 A 
ATOM     28  C   UNL     1       2.772   3.387  17.557  0.00  0.00    +0.000 A 
ATOM     29  O   UNL     1       1.998   3.714  16.662  0.00  0.00    +0.000 OA
ATOM     30  H   UNL     1       5.993   2.735  18.179  0.00  0.00    +0.000 HD
ENDBRANCH  17  18
ENDBRANCH   1  17
TORSDOF 6
ENDMDL
MODEL 7
REMARK VINA RESULT:      -8.4      4.003      6.550
REMARK  Name = 
REMARK  8 active torsions:
REMARK  status: ('A' for Active; 'I' for Inactive)
REMARK    1  A    between atoms: C_1  and  C_2
REMARK    2  A    between atoms: C_5  and  N_6
REMARK    3  A    between atoms: C_7  and  C_9
REMARK    4  A    between atoms: C_9  and  O_10
REMARK    5  A    between atoms: O_10  and  C_11
REMARK    6  A    between atoms: C_11  and  C_13
REMARK    7  A    between atoms: C_13  and  N_14
REMARK    8  A    between atoms: C_26  and  C_27
REMARK                            x       y       z     vdW  Elec       q    Type
REMARK                         _______ _______ _______ _____ _____    ______ ____
ROOT
ATOM      1  C   UNL     1       7.597   5.400  18.442  0.00  0.00    +0.000 C 
ATOM      2  O   UNL     1       8.018   4.262  18.272  0.00  0.00    +0.000 OA
ENDROOT
BRANCH   1   3
ATOM      3  O   UNL     1       8.058   6.516  17.800  0.00  0.00    +0.000 OA
BRANCH   3   4
ATOM      4  C   UNL     1       7.051   7.376  17.257  0.00  0.00    +0.000 C 
BRANCH   4   6
ATOM      5  N   UNL     1       7.136   5.679  15.510  0.00  0.00    +0.000 N 
ATOM      6  C   UNL     1       6.375   6.701  16.068  0.00  0.00    +0.000 C 
ATOM      7  O   UNL     1       5.255   7.068  15.715  0.00  0.00    +0.000 OA
ATOM      8  H   UNL     1       8.039   5.526  15.934  0.00  0.00    +0.000 HD
BRANCH   5  13
ATOM      9  C   UNL     1       5.640   2.344  11.056  0.00  0.00    +0.000 C 
ATOM     10  C   UNL     1       6.042   3.208  12.212  0.00  0.00    +0.000 A 
ATOM     11  C   UNL     1       5.388   3.100  13.432  0.00  0.00    +0.000 A 
ATOM     12  C   UNL     1       5.758   3.910  14.508  0.00  0.00    +0.000 A 
ATOM     13  C   UNL     1       6.789   4.853  14.408  0.00  0.00    +0.000 A 
ATOM     14  C   UNL     1       7.471   4.965  13.175  0.00  0.00    +0.000 A 
ATOM     15  C   UNL     1       8.609   5.911  12.893  0.00  0.00    +0.000 C 
ATOM     16  C   UNL     1       7.081   4.137  12.094  0.00  0.00    +0.000 A 
ENDBRANCH   5  13
ENDBRANCH   4   6
ENDBRANCH   3   4
ENDBRANCH   1   3
BRANCH   1  17
ATOM     17  C   UNL     1       6.428   5.768  19.346  0.00  0.00    +0.000 C 
BRANCH  17  18
ATOM     18  N   UNL     1       5.337   4.812  19.199  0.00  0.00    +0.000 N 
ATOM     19  N   UNL     1       5.582   3.526  19.679  0.00  0.00    +0.000 N 
ATOM     20  C   UNL     1       4.649   2.522  19.630  0.00  0.00    +0.000 A 
ATOM     21  O   UNL     1       4.924   1.375  19.964  0.00  0.00    +0.000 OA
ATOM     22  C   UNL     1       3.299   2.887  19.165  0.00  0.00    +0.000 A 
ATOM     23  C   UNL     1       2.271   1.935  19.209  0.00  0.00    +0.000 A 
ATOM     24  C   UNL     1       0.981   2.280  18.803  0.00  0.00    +0.000 A 
ATOM     25  C   UNL     1       0.719   3.568  18.337  0.00  0.00    +0.000 A 
ATOM     26  C   UNL     1       1.746   4.515  18.282  0.00  0.00    +0.000 A 
ATOM     27  C   UNL     1       3.038   4.176  18.708  0.00  0.00    +0.000 A 
ATOM     28  C   UNL     1       4.107   5.198  18.698  0.00  0.00    +0.000 A 
ATOM     29  O   UNL     1       3.884   6.330  18.277  0.00  0.00    +0.000 OA
ATOM     30  H   UNL     1       6.501   3.283  20.035  0.00  0.00    +0.000 HD
ENDBRANCH  17  18
ENDBRANCH   1  17
TORSDOF 6
ENDMDL
MODEL 8
REMARK VINA RESULT:      -8.4      0.834      1.061
REMARK  Name = 
REMARK  8 active torsions:
REMARK  status: ('A' for Active; 'I' for Inactive)
REMARK    1  A    between atoms: C_1  and  C_2
REMARK    2  A    between atoms: C_5  and  N_6
REMARK    3  A    between atoms: C_7  and  C_9
REMARK    4  A    between atoms: C_9  and  O_10
REMARK    5  A    between atoms: O_10  and  C_11
REMARK    6  A    between atoms: C_11  and  C_13
REMARK    7  A    between atoms: C_13  and  N_14
REMARK    8  A    between atoms: C_26  and  C_27
REMARK                            x       y       z     vdW  Elec       q    Type
REMARK                         _______ _______ _______ _____ _____    ______ ____
ROOT
ATOM      1  C   UNL     1       7.293   5.955  18.786  0.00  0.00    +0.000 C 
ATOM      2  O   UNL     1       7.468   5.527  19.921  0.00  0.00    +0.000 OA
ENDROOT
BRANCH   1   3
ATOM      3  O   UNL     1       8.042   6.930  18.187  0.00  0.00    +0.000 OA
BRANCH   3   4
ATOM      4  C   UNL     1       8.607   7.905  19.068  0.00  0.00    +0.000 C 
BRANCH   4   6
ATOM      5  N   UNL     1       9.393  10.211  19.041  0.00  0.00    +0.000 N 
ATOM      6  C   UNL     1       8.567   9.283  18.415  0.00  0.00    +0.000 C 
ATOM      7  O   UNL     1       7.866   9.466  17.422  0.00  0.00    +0.000 OA
ATOM      8  H   UNL     1       9.891   9.875  19.852  0.00  0.00    +0.000 HD
BRANCH   5  13
ATOM      9  C   UNL     1      10.122  15.742  17.600  0.00  0.00    +0.000 C 
ATOM     10  C   UNL     1       9.943  14.300  17.967  0.00  0.00    +0.000 A 
ATOM     11  C   UNL     1       8.692  13.704  17.887  0.00  0.00    +0.000 A 
ATOM     12  C   UNL     1       8.523  12.362  18.235  0.00  0.00    +0.000 A 
ATOM     13  C   UNL     1       9.591  11.569  18.675  0.00  0.00    +0.000 A 
ATOM     14  C   UNL     1      10.873  12.160  18.749  0.00  0.00    +0.000 A 
ATOM     15  C   UNL     1      12.131  11.457  19.184  0.00  0.00    +0.000 C 
ATOM     16  C   UNL     1      11.024  13.523  18.394  0.00  0.00    +0.000 A 
ENDBRANCH   5  13
ENDBRANCH   4   6
ENDBRANCH   3   4
ENDBRANCH   1   3
BRANCH   1  17
ATOM     17  C   UNL     1       6.254   5.425  17.807  0.00  0.00    +0.000 C 
BRANCH  17  18
ATOM     18  N   UNL     1       5.211   4.686  18.507  0.00  0.00    +0.000 N 
ATOM     19  N   UNL     1       5.618   3.523  19.160  0.00  0.00    +0.000 N 
ATOM     20  C   UNL     1       4.758   2.731  19.877  0.00  0.00    +0.000 A 
ATOM     21  O   UNL     1       5.120   1.661  20.354  0.00  0.00    +0.000 OA
ATOM     22  C   UNL     1       3.382   3.228  20.053  0.00  0.00    +0.000 A 
ATOM     23  C   UNL     1       2.493   2.525  20.878  0.00  0.00    +0.000 A 
ATOM     24  C   UNL     1       1.198   3.005  21.079  0.00  0.00    +0.000 A 
ATOM     25  C   UNL     1       0.784   4.177  20.445  0.00  0.00    +0.000 A 
ATOM     26  C   UNL     1       1.666   4.873  19.614  0.00  0.00    +0.000 A 
ATOM     27  C   UNL     1       2.974   4.403  19.427  0.00  0.00    +0.000 A 
ATOM     28  C   UNL     1       3.918   5.172  18.589  0.00  0.00    +0.000 A 
ATOM     29  O   UNL     1       3.555   6.197  18.020  0.00  0.00    +0.000 OA
ATOM     30  H   UNL     1       6.576   3.199  19.071  0.00  0.00    +0.000 HD
ENDBRANCH  17  18
ENDBRANCH   1  17
TORSDOF 6
ENDMDL
MODEL 9
REMARK VINA RESULT:      -8.4      5.355      7.105
REMARK  Name = 
REMARK  8 active torsions:
REMARK  status: ('A' for Active; 'I' for Inactive)
REMARK    1  A    between atoms: C_1  and  C_2
REMARK    2  A    between atoms: C_5  and  N_6
REMARK    3  A    between atoms: C_7  and  C_9
REMARK    4  A    between atoms: C_9  and  O_10
REMARK    5  A    between atoms: O_10  and  C_11
REMARK    6  A    between atoms: C_11  and  C_13
REMARK    7  A    between atoms: C_13  and  N_14
REMARK    8  A    between atoms: C_26  and  C_27
REMARK                            x       y       z     vdW  Elec       q    Type
REMARK                         _______ _______ _______ _____ _____    ______ ____
ROOT
ATOM      1  C   UNL     1       2.309   2.987  20.883  0.00  0.00    +0.000 C 
ATOM      2  O   UNL     1       2.862   2.474  21.849  0.00  0.00    +0.000 OA
ENDROOT
BRANCH   1   3
ATOM      3  O   UNL     1       1.545   4.119  20.921  0.00  0.00    +0.000 OA
BRANCH   3   4
ATOM      4  C   UNL     1       2.221   5.308  21.338  0.00  0.00    +0.000 C 
BRANCH   4   6
ATOM      5  N   UNL     1       1.420   7.593  21.058  0.00  0.00    +0.000 N 
ATOM      6  C   UNL     1       1.882   6.459  20.396  0.00  0.00    +0.000 C 
ATOM      7  O   UNL     1       2.050   6.325  19.185  0.00  0.00    +0.000 OA
ATOM      8  H   UNL     1       1.342   7.511  22.060  0.00  0.00    +0.000 HD
BRANCH   5  13
ATOM      9  C   UNL     1      -0.167  12.565  18.619  0.00  0.00    +0.000 C 
ATOM     10  C   UNL     1       0.249  11.279  19.264  0.00  0.00    +0.000 A 
ATOM     11  C   UNL     1       1.070  10.387  18.588  0.00  0.00    +0.000 A 
ATOM     12  C   UNL     1       1.454   9.184  19.187  0.00  0.00    +0.000 A 
ATOM     13  C   UNL     1       1.033   8.829  20.475  0.00  0.00    +0.000 A 
ATOM     14  C   UNL     1       0.207   9.734  21.179  0.00  0.00    +0.000 A 
ATOM     15  C   UNL     1      -0.325   9.524  22.572  0.00  0.00    +0.000 C 
ATOM     16  C   UNL     1      -0.174  10.948  20.555  0.00  0.00    +0.000 A 
ENDBRANCH   5  13
ENDBRANCH   4   6
ENDBRANCH   3   4
ENDBRANCH   1   3
BRANCH   1  17
ATOM     17  C   UNL     1       2.438   2.496  19.447  0.00  0.00    +0.000 C 
BRANCH  17  18
ATOM     18  N   UNL     1       3.495   3.212  18.746  0.00  0.00    +0.000 N 
ATOM     19  N   UNL     1       4.553   3.666  19.533  0.00  0.00    +0.000 N 
ATOM     20  C   UNL     1       5.631   4.339  19.018  0.00  0.00    +0.000 A 
ATOM     21  O   UNL     1       6.496   4.816  19.744  0.00  0.00    +0.000 OA
ATOM     22  C   UNL     1       5.706   4.455  17.551  0.00  0.00    +0.000 A 
ATOM     23  C   UNL     1       6.843   5.023  16.959  0.00  0.00    +0.000 A 
ATOM     24  C   UNL     1       6.939   5.107  15.569  0.00  0.00    +0.000 A 
ATOM     25  C   UNL     1       5.896   4.641  14.769  0.00  0.00    +0.000 A 
ATOM     26  C   UNL     1       4.757   4.085  15.358  0.00  0.00    +0.000 A 
ATOM     27  C   UNL     1       4.667   3.982  16.754  0.00  0.00    +0.000 A 
ATOM     28  C   UNL     1       3.483   3.344  17.369  0.00  0.00    +0.000 A 
ATOM     29  O   UNL     1       2.556   2.943  16.670  0.00  0.00    +0.000 OA
ATOM     30  H   UNL     1       4.521   3.553  20.541  0.00  0.00    +0.000 HD
ENDBRANCH  17  18
ENDBRANCH   1  17
TORSDOF 6
ENDMDL
