MODEL 1
REMARK VINA RESULT:      -7.9      0.000      0.000
REMARK  Name = 
REMARK  4 active torsions:
REMARK  status: ('A' for Active; 'I' for Inactive)
REMARK    1  A    between atoms: C_2  and  O_3
REMARK    2  A    between atoms: C_2  and  C_4
REMARK    3  A    between atoms: C_4  and  C_5
REMARK    4  A    between atoms: C_8  and  C_10
REMARK                            x       y       z     vdW  Elec       q    Type
REMARK                         _______ _______ _______ _____ _____    ______ ____
ROOT
ATOM      1  C   UNL     1       2.326   5.794  20.594  0.00  0.00    +0.000 C 
ATOM      2  C   UNL     1       3.225   5.170  19.520  0.00  0.00    +0.000 C 
ATOM      3  N   UNL     1       3.218   6.034  18.321  0.00  0.00    +0.000 N 
ATOM      4  C   UNL     1       3.932   5.758  17.140  0.00  0.00    +0.000 C 
ATOM      5  O   UNL     1       4.148   6.548  16.230  0.00  0.00    +0.000 OA
ATOM      6  C   UNL     1       2.512   7.207  18.656  0.00  0.00    +0.000 A 
ATOM      7  C   UNL     1       2.225   8.316  17.883  0.00  0.00    +0.000 A 
ATOM      8  C   UNL     1       1.514   9.373  18.473  0.00  0.00    +0.000 A 
ATOM      9  C   UNL     1       1.110   9.319  19.817  0.00  0.00    +0.000 A 
ATOM     10  C   UNL     1       1.375   8.188  20.582  0.00  0.00    +0.000 A 
ATOM     11  C   UNL     1       2.052   7.136  19.978  0.00  0.00    +0.000 A 
ENDROOT
BRANCH   4  12
ATOM     12  C   UNL     1       4.346   4.323  17.018  0.00  0.00    +0.000 C 
ATOM     13  C   UNL     1       5.091   3.239  17.696  0.00  0.00    +0.000 C 
ATOM     14  C   UNL     1       5.921   4.174  16.897  0.00  0.00    +0.000 C 
ATOM     15  C   UNL     1       6.981   4.782  17.790  0.00  0.00    +0.000 C 
ATOM     16  C   UNL     1       7.524   6.068  17.203  0.00  0.00    +0.000 C 
ATOM     17  O   UNL     1       8.034   5.920  15.876  0.00  0.00    +0.000 OA
ATOM     18  C   UNL     1       7.273   5.166  15.016  0.00  0.00    +0.000 A 
ATOM     19  C   UNL     1       7.544   5.380  13.663  0.00  0.00    +0.000 A 
ATOM     20  C   UNL     1       6.861   4.655  12.692  0.00  0.00    +0.000 A 
ATOM     21  C   UNL     1       5.937   3.690  13.077  0.00  0.00    +0.000 A 
ATOM     22  C   UNL     1       5.677   3.468  14.432  0.00  0.00    +0.000 A 
ATOM     23  C   UNL     1       6.312   4.224  15.436  0.00  0.00    +0.000 A 
ENDBRANCH   4  12
BRANCH   1  24
ATOM     24  C   UNL     1       1.023   5.020  20.815  0.00  0.00    +0.000 C 
BRANCH  24  26
ATOM     25  O   UNL     1       1.913   3.107  22.013  0.00  0.00    +0.000 OA
ATOM     26  C   UNL     1       1.264   3.554  21.077  0.00  0.00    +0.000 C 
BRANCH  26  27
ATOM     27  O   UNL     1       0.678   2.754  20.166  0.00  0.00    +0.000 OA
ATOM     28  H   UNL     1       0.059   2.098  20.553  0.00  0.00    +0.000 HD
ENDBRANCH  26  27
ENDBRANCH  24  26
ENDBRANCH   1  24
TORSDOF 4
ENDMDL
MODEL 2
REMARK VINA RESULT:      -7.6      8.831     13.174
REMARK  Name = 
REMARK  4 active torsions:
REMARK  status: ('A' for Active; 'I' for Inactive)
REMARK    1  A    between atoms: C_2  and  O_3
REMARK    2  A    between atoms: C_2  and  C_4
REMARK    3  A    between atoms: C_4  and  C_5
REMARK    4  A    between atoms: C_8  and  C_10
REMARK                            x       y       z     vdW  Elec       q    Type
REMARK                         _______ _______ _______ _____ _____    ______ ____
ROOT
ATOM      1  C   UNL     1      -2.122  12.701  19.770  0.00  0.00    +0.000 C 
ATOM      2  C   UNL     1      -3.005  13.706  20.520  0.00  0.00    +0.000 C 
ATOM      3  N   UNL     1      -3.094  13.306  21.940  0.00  0.00    +0.000 N 
ATOM      4  C   UNL     1      -3.831  14.003  22.916  0.00  0.00    +0.000 C 
ATOM      5  O   UNL     1      -3.739  13.855  24.127  0.00  0.00    +0.000 OA
ATOM      6  C   UNL     1      -2.202  12.232  22.128  0.00  0.00    +0.000 A 
ATOM      7  C   UNL     1      -1.921  11.506  23.270  0.00  0.00    +0.000 A 
ATOM      8  C   UNL     1      -0.961  10.484  23.191  0.00  0.00    +0.000 A 
ATOM      9  C   UNL     1      -0.288  10.208  21.990  0.00  0.00    +0.000 A 
ATOM     10  C   UNL     1      -0.596  10.922  20.836  0.00  0.00    +0.000 A 
ATOM     11  C   UNL     1      -1.570  11.908  20.919  0.00  0.00    +0.000 A 
ENDROOT
BRANCH   4  12
ATOM     12  C   UNL     1      -4.867  14.919  22.337  0.00  0.00    +0.000 C 
ATOM     13  C   UNL     1      -6.005  15.797  22.684  0.00  0.00    +0.000 C 
ATOM     14  C   UNL     1      -6.333  14.356  22.552  0.00  0.00    +0.000 C 
ATOM     15  C   UNL     1      -6.960  13.871  23.841  0.00  0.00    +0.000 C 
ATOM     16  C   UNL     1      -6.866  12.365  23.968  0.00  0.00    +0.000 C 
ATOM     17  O   UNL     1      -7.431  11.661  22.859  0.00  0.00    +0.000 OA
ATOM     18  C   UNL     1      -7.135  12.159  21.613  0.00  0.00    +0.000 A 
ATOM     19  C   UNL     1      -7.322  11.252  20.568  0.00  0.00    +0.000 A 
ATOM     20  C   UNL     1      -7.086  11.644  19.254  0.00  0.00    +0.000 A 
ATOM     21  C   UNL     1      -6.701  12.953  18.985  0.00  0.00    +0.000 A 
ATOM     22  C   UNL     1      -6.529  13.863  20.032  0.00  0.00    +0.000 A 
ATOM     23  C   UNL     1      -6.706  13.481  21.375  0.00  0.00    +0.000 A 
ENDBRANCH   4  12
BRANCH   1  24
ATOM     24  C   UNL     1      -2.912  11.799  18.816  0.00  0.00    +0.000 C 
BRANCH  24  26
ATOM     25  O   UNL     1      -2.382  10.634  16.754  0.00  0.00    +0.000 OA
ATOM     26  C   UNL     1      -2.193  11.579  17.508  0.00  0.00    +0.000 C 
BRANCH  26  27
ATOM     27  O   UNL     1      -1.301  12.549  17.230  0.00  0.00    +0.000 OA
ATOM     28  H   UNL     1      -0.923  12.493  16.326  0.00  0.00    +0.000 HD
ENDBRANCH  26  27
ENDBRANCH  24  26
ENDBRANCH   1  24
TORSDOF 4
ENDMDL
MODEL 3
REMARK VINA RESULT:      -7.5      7.984     12.519
REMARK  Name = 
REMARK  4 active torsions:
REMARK  status: ('A' for Active; 'I' for Inactive)
REMARK    1  A    between atoms: C_2  and  O_3
REMARK    2  A    between atoms: C_2  and  C_4
REMARK    3  A    between atoms: C_4  and  C_5
REMARK    4  A    between atoms: C_8  and  C_10
REMARK                            x       y       z     vdW  Elec       q    Type
REMARK                         _______ _______ _______ _____ _____    ______ ____
ROOT
ATOM      1  C   UNL     1      -1.502  11.979  19.450  0.00  0.00    +0.000 C 
ATOM      2  C   UNL     1      -2.104  13.189  20.174  0.00  0.00    +0.000 C 
ATOM      3  N   UNL     1      -2.133  12.918  21.627  0.00  0.00    +0.000 N 
ATOM      4  C   UNL     1      -2.630  13.815  22.592  0.00  0.00    +0.000 C 
ATOM      5  O   UNL     1      -2.454  13.740  23.800  0.00  0.00    +0.000 OA
ATOM      6  C   UNL     1      -1.446  11.706  21.840  0.00  0.00    +0.000 A 
ATOM      7  C   UNL     1      -1.201  11.024  23.016  0.00  0.00    +0.000 A 
ATOM      8  C   UNL     1      -0.463   9.831  22.954  0.00  0.00    +0.000 A 
ATOM      9  C   UNL     1       0.029   9.342  21.733  0.00  0.00    +0.000 A 
ATOM     10  C   UNL     1      -0.245  10.017  20.548  0.00  0.00    +0.000 A 
ATOM     11  C   UNL     1      -1.003  11.179  20.619  0.00  0.00    +0.000 A 
ENDROOT
BRANCH   4  12
ATOM     12  C   UNL     1      -3.524  14.871  22.016  0.00  0.00    +0.000 C 
ATOM     13  C   UNL     1      -4.452  15.966  22.371  0.00  0.00    +0.000 C 
ATOM     14  C   UNL     1      -5.047  14.607  22.368  0.00  0.00    +0.000 C 
ATOM     15  C   UNL     1      -5.649  14.326  23.728  0.00  0.00    +0.000 C 
ATOM     16  C   UNL     1      -5.820  12.839  23.959  0.00  0.00    +0.000 C 
ATOM     17  O   UNL     1      -6.589  12.188  22.944  0.00  0.00    +0.000 OA
ATOM     18  C   UNL     1      -6.306  12.546  21.648  0.00  0.00    +0.000 A 
ATOM     19  C   UNL     1      -6.736  11.629  20.687  0.00  0.00    +0.000 A 
ATOM     20  C   UNL     1      -6.536  11.889  19.335  0.00  0.00    +0.000 A 
ATOM     21  C   UNL     1      -5.942  13.085  18.946  0.00  0.00    +0.000 A 
ATOM     22  C   UNL     1      -5.525  14.008  19.909  0.00  0.00    +0.000 A 
ATOM     23  C   UNL     1      -5.664  13.748  21.286  0.00  0.00    +0.000 A 
ENDBRANCH   4  12
BRANCH   1  24
ATOM     24  C   UNL     1      -2.534  11.182  18.645  0.00  0.00    +0.000 C 
BRANCH  24  26
ATOM     25  O   UNL     1      -1.469   9.676  17.069  0.00  0.00    +0.000 OA
ATOM     26  C   UNL     1      -2.003  10.752  17.300  0.00  0.00    +0.000 C 
BRANCH  26  27
ATOM     27  O   UNL     1      -2.182  11.682  16.343  0.00  0.00    +0.000 OA
ATOM     28  H   UNL     1      -3.085  12.065  16.324  0.00  0.00    +0.000 HD
ENDBRANCH  26  27
ENDBRANCH  24  26
ENDBRANCH   1  24
TORSDOF 4
ENDMDL
MODEL 4
REMARK VINA RESULT:      -7.4      2.867      7.614
REMARK  Name = 
REMARK  4 active torsions:
REMARK  status: ('A' for Active; 'I' for Inactive)
REMARK    1  A    between atoms: C_2  and  O_3
REMARK    2  A    between atoms: C_2  and  C_4
REMARK    3  A    between atoms: C_4  and  C_5
REMARK    4  A    between atoms: C_8  and  C_10
REMARK                            x       y       z     vdW  Elec       q    Type
REMARK                         _______ _______ _______ _____ _____    ______ ____
ROOT
ATOM      1  C   UNL     1       1.739   5.133  20.021  0.00  0.00    +0.000 C 
ATOM      2  C   UNL     1       1.196   6.545  20.272  0.00  0.00    +0.000 C 
ATOM      3  N   UNL     1       1.950   7.508  19.442  0.00  0.00    +0.000 N 
ATOM      4  C   UNL     1       1.717   8.897  19.429  0.00  0.00    +0.000 C 
ATOM      5  O   UNL     1       2.140   9.688  18.597  0.00  0.00    +0.000 OA
ATOM      6  C   UNL     1       2.792   6.760  18.596  0.00  0.00    +0.000 A 
ATOM      7  C   UNL     1       3.693   7.191  17.642  0.00  0.00    +0.000 A 
ATOM      8  C   UNL     1       4.403   6.226  16.910  0.00  0.00    +0.000 A 
ATOM      9  C   UNL     1       4.199   4.853  17.127  0.00  0.00    +0.000 A 
ATOM     10  C   UNL     1       3.313   4.424  18.109  0.00  0.00    +0.000 A 
ATOM     11  C   UNL     1       2.640   5.390  18.848  0.00  0.00    +0.000 A 
ENDROOT
BRANCH   4  12
ATOM     12  C   UNL     1       0.959   9.383  20.628  0.00  0.00    +0.000 C 
ATOM     13  C   UNL     1      -0.323   9.256  21.355  0.00  0.00    +0.000 C 
ATOM     14  C   UNL     1      -0.333  10.202  20.212  0.00  0.00    +0.000 C 
ATOM     15  C   UNL     1      -1.418   9.792  19.240  0.00  0.00    +0.000 C 
ATOM     16  C   UNL     1      -1.175  10.376  17.864  0.00  0.00    +0.000 C 
ATOM     17  O   UNL     1      -1.035  11.798  17.863  0.00  0.00    +0.000 OA
ATOM     18  C   UNL     1      -0.261  12.331  18.864  0.00  0.00    +0.000 A 
ATOM     19  C   UNL     1       0.207  13.622  18.611  0.00  0.00    +0.000 A 
ATOM     20  C   UNL     1       0.979  14.284  19.561  0.00  0.00    +0.000 A 
ATOM     21  C   UNL     1       1.247  13.667  20.778  0.00  0.00    +0.000 A 
ATOM     22  C   UNL     1       0.767  12.381  21.036  0.00  0.00    +0.000 A 
ATOM     23  C   UNL     1       0.031  11.664  20.073  0.00  0.00    +0.000 A 
ENDBRANCH   4  12
BRANCH   1  24
ATOM     24  C   UNL     1       2.533   4.573  21.205  0.00  0.00    +0.000 C 
BRANCH  24  26
ATOM     25  O   UNL     1       2.850   2.329  22.075  0.00  0.00    +0.000 OA
ATOM     26  C   UNL     1       2.121   3.165  21.556  0.00  0.00    +0.000 C 
BRANCH  26  27
ATOM     27  O   UNL     1       0.837   2.901  21.248  0.00  0.00    +0.000 OA
ATOM     28  H   UNL     1       0.728   2.327  20.460  0.00  0.00    +0.000 HD
ENDBRANCH  26  27
ENDBRANCH  24  26
ENDBRANCH   1  24
TORSDOF 4
ENDMDL
MODEL 5
REMARK VINA RESULT:      -7.1      7.831     12.374
REMARK  Name = 
REMARK  4 active torsions:
REMARK  status: ('A' for Active; 'I' for Inactive)
REMARK    1  A    between atoms: C_2  and  O_3
REMARK    2  A    between atoms: C_2  and  C_4
REMARK    3  A    between atoms: C_4  and  C_5
REMARK    4  A    between atoms: C_8  and  C_10
REMARK                            x       y       z     vdW  Elec       q    Type
REMARK                         _______ _______ _______ _____ _____    ______ ____
ROOT
ATOM      1  C   UNL     1      -1.625  12.229  19.128  0.00  0.00    +0.000 C 
ATOM      2  C   UNL     1      -1.778  13.405  20.100  0.00  0.00    +0.000 C 
ATOM      3  N   UNL     1      -1.353  12.975  21.449  0.00  0.00    +0.000 N 
ATOM      4  C   UNL     1      -1.370  13.804  22.588  0.00  0.00    +0.000 C 
ATOM      5  O   UNL     1      -0.811  13.573  23.652  0.00  0.00    +0.000 OA
ATOM      6  C   UNL     1      -0.807  11.682  21.324  0.00  0.00    +0.000 A 
ATOM      7  C   UNL     1      -0.277  10.850  22.290  0.00  0.00    +0.000 A 
ATOM      8  C   UNL     1       0.228   9.601  21.891  0.00  0.00    +0.000 A 
ATOM      9  C   UNL     1       0.210   9.206  20.543  0.00  0.00    +0.000 A 
ATOM     10  C   UNL     1      -0.352  10.035  19.579  0.00  0.00    +0.000 A 
ATOM     11  C   UNL     1      -0.877  11.254  19.991  0.00  0.00    +0.000 A 
ENDROOT
BRANCH   4  12
ATOM     12  C   UNL     1      -2.253  15.005  22.435  0.00  0.00    +0.000 C 
ATOM     13  C   UNL     1      -2.933  16.084  23.184  0.00  0.00    +0.000 C 
ATOM     14  C   UNL     1      -3.660  14.792  23.134  0.00  0.00    +0.000 C 
ATOM     15  C   UNL     1      -3.932  14.321  24.546  0.00  0.00    +0.000 C 
ATOM     16  C   UNL     1      -4.209  12.833  24.587  0.00  0.00    +0.000 C 
ATOM     17  O   UNL     1      -5.276  12.426  23.727  0.00  0.00    +0.000 OA
ATOM     18  C   UNL     1      -5.286  12.984  22.471  0.00  0.00    +0.000 A 
ATOM     19  C   UNL     1      -6.044  12.282  21.531  0.00  0.00    +0.000 A 
ATOM     20  C   UNL     1      -6.159  12.760  20.230  0.00  0.00    +0.000 A 
ATOM     21  C   UNL     1      -5.548  13.961  19.882  0.00  0.00    +0.000 A 
ATOM     22  C   UNL     1      -4.802  14.669  20.828  0.00  0.00    +0.000 A 
ATOM     23  C   UNL     1      -4.621  14.182  22.137  0.00  0.00    +0.000 A 
ENDBRANCH   4  12
BRANCH   1  24
ATOM     24  C   UNL     1      -2.965  11.640  18.677  0.00  0.00    +0.000 C 
BRANCH  24  26
ATOM     25  O   UNL     1      -3.941  10.861  16.596  0.00  0.00    +0.000 OA
ATOM     26  C   UNL     1      -3.009  11.387  17.191  0.00  0.00    +0.000 C 
BRANCH  26  27
ATOM     27  O   UNL     1      -1.903  11.814  16.552  0.00  0.00    +0.000 OA
ATOM     28  H   UNL     1      -1.990  11.832  15.575  0.00  0.00    +0.000 HD
ENDBRANCH  26  27
ENDBRANCH  24  26
ENDBRANCH   1  24
TORSDOF 4
ENDMDL
MODEL 6
REMARK VINA RESULT:      -6.7      6.510     11.591
REMARK  Name = 
REMARK  4 active torsions:
REMARK  status: ('A' for Active; 'I' for Inactive)
REMARK    1  A    between atoms: C_2  and  O_3
REMARK    2  A    between atoms: C_2  and  C_4
REMARK    3  A    between atoms: C_4  and  C_5
REMARK    4  A    between atoms: C_8  and  C_10
REMARK                            x       y       z     vdW  Elec       q    Type
REMARK                         _______ _______ _______ _____ _____    ______ ____
ROOT
ATOM      1  C   UNL     1      -0.485  10.834  18.452  0.00  0.00    +0.000 C 
ATOM      2  C   UNL     1      -1.118  11.776  19.483  0.00  0.00    +0.000 C 
ATOM      3  N   UNL     1      -0.861  11.250  20.841  0.00  0.00    +0.000 N 
ATOM      4  C   UNL     1      -1.307  11.865  22.027  0.00  0.00    +0.000 C 
ATOM      5  O   UNL     1      -0.920  11.606  23.158  0.00  0.00    +0.000 OA
ATOM      6  C   UNL     1       0.014  10.154  20.705  0.00  0.00    +0.000 A 
ATOM      7  C   UNL     1       0.547   9.326  21.673  0.00  0.00    +0.000 A 
ATOM      8  C   UNL     1       1.423   8.305  21.269  0.00  0.00    +0.000 A 
ATOM      9  C   UNL     1       1.764   8.131  19.917  0.00  0.00    +0.000 A 
ATOM     10  C   UNL     1       1.201   8.949  18.944  0.00  0.00    +0.000 A 
ATOM     11  C   UNL     1       0.311   9.935  19.353  0.00  0.00    +0.000 A 
ENDROOT
BRANCH   4  12
ATOM     12  C   UNL     1      -2.424  12.839  21.807  0.00  0.00    +0.000 C 
ATOM     13  C   UNL     1      -2.938  13.869  20.877  0.00  0.00    +0.000 C 
ATOM     14  C   UNL     1      -1.909  14.339  21.838  0.00  0.00    +0.000 C 
ATOM     15  C   UNL     1      -0.750  14.937  21.071  0.00  0.00    +0.000 C 
ATOM     16  C   UNL     1       0.507  14.979  21.913  0.00  0.00    +0.000 C 
ATOM     17  O   UNL     1       0.340  15.667  23.155  0.00  0.00    +0.000 OA
ATOM     18  C   UNL     1      -0.814  15.395  23.848  0.00  0.00    +0.000 A 
ATOM     19  C   UNL     1      -0.768  15.723  25.204  0.00  0.00    +0.000 A 
ATOM     20  C   UNL     1      -1.884  15.523  26.009  0.00  0.00    +0.000 A 
ATOM     21  C   UNL     1      -3.058  15.032  25.447  0.00  0.00    +0.000 A 
ATOM     22  C   UNL     1      -3.107  14.717  24.087  0.00  0.00    +0.000 A 
ATOM     23  C   UNL     1      -1.977  14.856  23.259  0.00  0.00    +0.000 A 
ENDBRANCH   4  12
BRANCH   1  24
ATOM     24  C   UNL     1      -1.518  10.030  17.655  0.00  0.00    +0.000 C 
BRANCH  24  26
ATOM     25  O   UNL     1      -3.789  10.865  17.467  0.00  0.00    +0.000 OA
ATOM     26  C   UNL     1      -2.620  10.900  17.104  0.00  0.00    +0.000 C 
BRANCH  26  27
ATOM     27  O   UNL     1      -2.191  11.753  16.155  0.00  0.00    +0.000 OA
ATOM     28  H   UNL     1      -1.384  11.452  15.686  0.00  0.00    +0.000 HD
ENDBRANCH  26  27
ENDBRANCH  24  26
ENDBRANCH   1  24
TORSDOF 4
ENDMDL
MODEL 7
REMARK VINA RESULT:      -6.7      9.123     12.562
REMARK  Name = 
REMARK  4 active torsions:
REMARK  status: ('A' for Active; 'I' for Inactive)
REMARK    1  A    between atoms: C_2  and  O_3
REMARK    2  A    between atoms: C_2  and  C_4
REMARK    3  A    between atoms: C_4  and  C_5
REMARK    4  A    between atoms: C_8  and  C_10
REMARK                            x       y       z     vdW  Elec       q    Type
REMARK                         _______ _______ _______ _____ _____    ______ ____
ROOT
ATOM      1  C   UNL     1      10.525  14.657  18.867  0.00  0.00    +0.000 C 
ATOM      2  C   UNL     1      10.227  14.976  20.337  0.00  0.00    +0.000 C 
ATOM      3  N   UNL     1       9.646  13.781  20.984  0.00  0.00    +0.000 N 
ATOM      4  C   UNL     1       9.248  13.723  22.333  0.00  0.00    +0.000 C 
ATOM      5  O   UNL     1       8.995  12.706  22.964  0.00  0.00    +0.000 OA
ATOM      6  C   UNL     1       9.724  12.724  20.055  0.00  0.00    +0.000 A 
ATOM      7  C   UNL     1       9.313  11.411  20.175  0.00  0.00    +0.000 A 
ATOM      8  C   UNL     1       9.529  10.543  19.093  0.00  0.00    +0.000 A 
ATOM      9  C   UNL     1      10.157  10.987  17.917  0.00  0.00    +0.000 A 
ATOM     10  C   UNL     1      10.541  12.317  17.790  0.00  0.00    +0.000 A 
ATOM     11  C   UNL     1      10.293  13.173  18.856  0.00  0.00    +0.000 A 
ENDROOT
BRANCH   4  12
ATOM     12  C   UNL     1       9.045  15.074  22.950  0.00  0.00    +0.000 C 
ATOM     13  C   UNL     1       8.459  15.773  24.115  0.00  0.00    +0.000 C 
ATOM     14  C   UNL     1       7.508  15.462  23.019  0.00  0.00    +0.000 C 
ATOM     15  C   UNL     1       6.367  14.636  23.572  0.00  0.00    +0.000 C 
ATOM     16  C   UNL     1       5.648  13.883  22.473  0.00  0.00    +0.000 C 
ATOM     17  O   UNL     1       5.172  14.725  21.420  0.00  0.00    +0.000 OA
ATOM     18  C   UNL     1       6.038  15.699  20.986  0.00  0.00    +0.000 A 
ATOM     19  C   UNL     1       5.747  16.211  19.720  0.00  0.00    +0.000 A 
ATOM     20  C   UNL     1       6.532  17.225  19.179  0.00  0.00    +0.000 A 
ATOM     21  C   UNL     1       7.584  17.751  19.923  0.00  0.00    +0.000 A 
ATOM     22  C   UNL     1       7.864  17.246  21.196  0.00  0.00    +0.000 A 
ATOM     23  C   UNL     1       7.123  16.184  21.747  0.00  0.00    +0.000 A 
ENDBRANCH   4  12
BRANCH   1  24
ATOM     24  C   UNL     1       9.577  15.363  17.892  0.00  0.00    +0.000 C 
BRANCH  24  26
ATOM     25  O   UNL     1      10.446  17.576  17.404  0.00  0.00    +0.000 OA
ATOM     26  C   UNL     1      10.281  16.411  17.066  0.00  0.00    +0.000 C 
BRANCH  26  27
ATOM     27  O   UNL     1      10.735  15.936  15.891  0.00  0.00    +0.000 OA
ATOM     28  H   UNL     1      11.534  15.372  15.972  0.00  0.00    +0.000 HD
ENDBRANCH  26  27
ENDBRANCH  24  26
ENDBRANCH   1  24
TORSDOF 4
ENDMDL
MODEL 8
REMARK VINA RESULT:      -6.6      5.903     10.197
REMARK  Name = 
REMARK  4 active torsions:
REMARK  status: ('A' for Active; 'I' for Inactive)
REMARK    1  A    between atoms: C_2  and  O_3
REMARK    2  A    between atoms: C_2  and  C_4
REMARK    3  A    between atoms: C_4  and  C_5
REMARK    4  A    between atoms: C_8  and  C_10
REMARK                            x       y       z     vdW  Elec       q    Type
REMARK                         _______ _______ _______ _____ _____    ______ ____
ROOT
ATOM      1  C   UNL     1      -0.385  10.092  19.209  0.00  0.00    +0.000 C 
ATOM      2  C   UNL     1      -0.653  11.030  20.392  0.00  0.00    +0.000 C 
ATOM      3  N   UNL     1      -1.807  11.896  20.072  0.00  0.00    +0.000 N 
ATOM      4  C   UNL     1      -2.323  12.881  20.935  0.00  0.00    +0.000 C 
ATOM      5  O   UNL     1      -3.404  13.443  20.818  0.00  0.00    +0.000 OA
ATOM      6  C   UNL     1      -2.348  11.437  18.855  0.00  0.00    +0.000 A 
ATOM      7  C   UNL     1      -3.426  11.911  18.133  0.00  0.00    +0.000 A 
ATOM      8  C   UNL     1      -3.776  11.251  16.944  0.00  0.00    +0.000 A 
ATOM      9  C   UNL     1      -3.060  10.128  16.498  0.00  0.00    +0.000 A 
ATOM     10  C   UNL     1      -1.957   9.672  17.212  0.00  0.00    +0.000 A 
ATOM     11  C   UNL     1      -1.603  10.354  18.370  0.00  0.00    +0.000 A 
ENDROOT
BRANCH   4  12
ATOM     12  C   UNL     1      -1.362  13.292  22.009  0.00  0.00    +0.000 C 
ATOM     13  C   UNL     1      -1.138  14.275  23.092  0.00  0.00    +0.000 C 
ATOM     14  C   UNL     1      -0.754  14.731  21.733  0.00  0.00    +0.000 C 
ATOM     15  C   UNL     1      -1.500  16.006  21.408  0.00  0.00    +0.000 C 
ATOM     16  C   UNL     1      -1.549  16.252  19.915  0.00  0.00    +0.000 C 
ATOM     17  O   UNL     1      -0.260  16.274  19.297  0.00  0.00    +0.000 OA
ATOM     18  C   UNL     1       0.619  15.296  19.696  0.00  0.00    +0.000 A 
ATOM     19  C   UNL     1       1.674  15.068  18.810  0.00  0.00    +0.000 A 
ATOM     20  C   UNL     1       2.649  14.124  19.114  0.00  0.00    +0.000 A 
ATOM     21  C   UNL     1       2.587  13.437  20.322  0.00  0.00    +0.000 A 
ATOM     22  C   UNL     1       1.538  13.677  21.214  0.00  0.00    +0.000 A 
ATOM     23  C   UNL     1       0.507  14.586  20.909  0.00  0.00    +0.000 A 
ENDBRANCH   4  12
BRANCH   1  24
ATOM     24  C   UNL     1       0.892  10.442  18.439  0.00  0.00    +0.000 C 
BRANCH  24  26
ATOM     25  O   UNL     1       2.392   9.009  17.180  0.00  0.00    +0.000 OA
ATOM     26  C   UNL     1       1.771   9.237  18.210  0.00  0.00    +0.000 C 
BRANCH  26  27
ATOM     27  O   UNL     1       1.822   8.414  19.274  0.00  0.00    +0.000 OA
ATOM     28  H   UNL     1       2.308   8.785  20.041  0.00  0.00    +0.000 HD
ENDBRANCH  26  27
ENDBRANCH  24  26
ENDBRANCH   1  24
TORSDOF 4
ENDMDL
MODEL 9
REMARK VINA RESULT:      -6.6      6.507     11.745
REMARK  Name = 
REMARK  4 active torsions:
REMARK  status: ('A' for Active; 'I' for Inactive)
REMARK    1  A    between atoms: C_2  and  O_3
REMARK    2  A    between atoms: C_2  and  C_4
REMARK    3  A    between atoms: C_4  and  C_5
REMARK    4  A    between atoms: C_8  and  C_10
REMARK                            x       y       z     vdW  Elec       q    Type
REMARK                         _______ _______ _______ _____ _____    ______ ____
ROOT
ATOM      1  C   UNL     1      -1.367  11.093  17.854  0.00  0.00    +0.000 C 
ATOM      2  C   UNL     1      -1.887  11.943  19.020  0.00  0.00    +0.000 C 
ATOM      3  N   UNL     1      -1.268  11.470  20.277  0.00  0.00    +0.000 N 
ATOM      4  C   UNL     1      -1.526  12.023  21.546  0.00  0.00    +0.000 C 
ATOM      5  O   UNL     1      -0.868  11.832  22.559  0.00  0.00    +0.000 OA
ATOM      6  C   UNL     1      -0.297  10.510  19.929  0.00  0.00    +0.000 A 
ATOM      7  C   UNL     1       0.546   9.774  20.737  0.00  0.00    +0.000 A 
ATOM      8  C   UNL     1       1.448   8.886  20.128  0.00  0.00    +0.000 A 
ATOM      9  C   UNL     1       1.507   8.753  18.731  0.00  0.00    +0.000 A 
ATOM     10  C   UNL     1       0.634   9.474  17.923  0.00  0.00    +0.000 A 
ATOM     11  C   UNL     1      -0.274  10.324  18.539  0.00  0.00    +0.000 A 
ENDROOT
BRANCH   4  12
ATOM     12  C   UNL     1      -2.791  12.826  21.597  0.00  0.00    +0.000 C 
ATOM     13  C   UNL     1      -3.613  13.799  20.844  0.00  0.00    +0.000 C 
ATOM     14  C   UNL     1      -2.496  14.384  21.627  0.00  0.00    +0.000 C 
ATOM     15  C   UNL     1      -1.602  15.176  20.697  0.00  0.00    +0.000 C 
ATOM     16  C   UNL     1      -0.225  15.377  21.295  0.00  0.00    +0.000 C 
ATOM     17  O   UNL     1      -0.246  15.989  22.587  0.00  0.00    +0.000 OA
ATOM     18  C   UNL     1      -1.197  15.522  23.462  0.00  0.00    +0.000 A 
ATOM     19  C   UNL     1      -0.938  15.806  24.804  0.00  0.00    +0.000 A 
ATOM     20  C   UNL     1      -1.840  15.413  25.787  0.00  0.00    +0.000 A 
ATOM     21  C   UNL     1      -3.018  14.770  25.422  0.00  0.00    +0.000 A 
ATOM     22  C   UNL     1      -3.282  14.499  24.076  0.00  0.00    +0.000 A 
ATOM     23  C   UNL     1      -2.363  14.836  23.064  0.00  0.00    +0.000 A 
ENDBRANCH   4  12
BRANCH   1  24
ATOM     24  C   UNL     1      -2.425  10.143  17.282  0.00  0.00    +0.000 C 
BRANCH  24  26
ATOM     25  O   UNL     1      -2.685  10.057  14.871  0.00  0.00    +0.000 OA
ATOM     26  C   UNL     1      -2.938  10.599  15.939  0.00  0.00    +0.000 C 
BRANCH  26  27
ATOM     27  O   UNL     1      -3.730  11.685  16.020  0.00  0.00    +0.000 OA
ATOM     28  H   UNL     1      -4.004  11.910  16.935  0.00  0.00    +0.000 HD
ENDBRANCH  26  27
ENDBRANCH  24  26
ENDBRANCH   1  24
TORSDOF 4
ENDMDL
