MODEL 1
REMARK VINA RESULT:      -8.8      0.000      0.000
REMARK  Name = 
REMARK  4 active torsions:
REMARK  status: ('A' for Active; 'I' for Inactive)
REMARK    1  A    between atoms: C_2  and  C_3
REMARK    2  A    between atoms: C_3  and  C_4
REMARK    3  A    between atoms: C_4  and  C_5
REMARK    4  A    between atoms: C_5  and  N_6
REMARK                            x       y       z     vdW  Elec       q    Type
REMARK                         _______ _______ _______ _____ _____    ______ ____
ROOT
ATOM      1  O   UNL     1       5.432   6.851  15.508  0.00  0.00    +0.000 OA
ATOM      2  C   UNL     1       4.816   6.327  16.438  0.00  0.00    +0.000 C 
ATOM      3  N   UNL     1       4.622   4.970  16.420  0.00  0.00    +0.000 N 
ATOM      4  C   UNL     1       3.958   4.182  17.368  0.00  0.00    +0.000 A 
ATOM      5  C   UNL     1       3.536   2.919  16.991  0.00  0.00    +0.000 A 
ATOM      6  C   UNL     1       2.772   2.176  17.893  0.00  0.00    +0.000 A 
ATOM      7  C   UNL     1       2.486   2.697  19.162  0.00  0.00    +0.000 A 
ATOM      8  C   UNL     1       1.721   2.003  20.116  0.00  0.00    +0.000 A 
ATOM      9  C   UNL     1       1.487   2.562  21.373  0.00  0.00    +0.000 A 
ATOM     10  C   UNL     1       2.003   3.816  21.679  0.00  0.00    +0.000 A 
ATOM     11  C   UNL     1       2.745   4.509  20.723  0.00  0.00    +0.000 A 
ATOM     12  C   UNL     1       2.999   3.967  19.471  0.00  0.00    +0.000 A 
ATOM     13  N   UNL     1       3.715   4.679  18.593  0.00  0.00    +0.000 NA
ATOM     14  H   UNL     1       4.946   4.529  15.571  0.00  0.00    +0.000 HD
ENDROOT
BRANCH   2  15
ATOM     15  C   UNL     1       4.249   7.134  17.586  0.00  0.00    +0.000 C 
BRANCH  15  16
ATOM     16  C   UNL     1       2.757   7.415  17.503  0.00  0.00    +0.000 C 
BRANCH  16  17
ATOM     17  C   UNL     1       2.529   8.863  17.939  0.00  0.00    +0.000 C 
BRANCH  17  18
ATOM     18  N   UNL     1       1.733   8.963  19.144  0.00  0.00    +0.000 N 
ATOM     19  C   UNL     1       1.763   7.951  20.072  0.00  0.00    +0.000 A 
ATOM     20  N   UNL     1       1.145   7.970  21.205  0.00  0.00    +0.000 NA
ATOM     21  C   UNL     1       0.410   9.124  21.517  0.00  0.00    +0.000 A 
ATOM     22  C   UNL     1      -0.190   9.221  22.772  0.00  0.00    +0.000 A 
ATOM     23  C   UNL     1      -0.901  10.368  23.129  0.00  0.00    +0.000 A 
ATOM     24  C   UNL     1      -1.032  11.429  22.230  0.00  0.00    +0.000 A 
ATOM     25  C   UNL     1      -0.451  11.341  20.970  0.00  0.00    +0.000 A 
ATOM     26  C   UNL     1       0.269  10.190  20.627  0.00  0.00    +0.000 A 
ATOM     27  C   UNL     1       0.946  10.090  19.323  0.00  0.00    +0.000 A 
ATOM     28  O   UNL     1       0.808  10.977  18.484  0.00  0.00    +0.000 OA
ENDBRANCH  17  18
ENDBRANCH  16  17
ENDBRANCH  15  16
ENDBRANCH   2  15
TORSDOF 4
ENDMDL
MODEL 2
REMARK VINA RESULT:      -8.8      1.063      1.621
REMARK  Name = 
REMARK  4 active torsions:
REMARK  status: ('A' for Active; 'I' for Inactive)
REMARK    1  A    between atoms: C_2  and  C_3
REMARK    2  A    between atoms: C_3  and  C_4
REMARK    3  A    between atoms: C_4  and  C_5
REMARK    4  A    between atoms: C_5  and  N_6
REMARK                            x       y       z     vdW  Elec       q    Type
REMARK                         _______ _______ _______ _____ _____    ______ ____
ROOT
ATOM      1  O   UNL     1       5.582   7.008  15.662  0.00  0.00    +0.000 OA
ATOM      2  C   UNL     1       4.943   6.449  16.556  0.00  0.00    +0.000 C 
ATOM      3  N   UNL     1       4.711   5.101  16.459  0.00  0.00    +0.000 N 
ATOM      4  C   UNL     1       4.016   4.281  17.354  0.00  0.00    +0.000 A 
ATOM      5  C   UNL     1       3.562   3.053  16.902  0.00  0.00    +0.000 A 
ATOM      6  C   UNL     1       2.770   2.282  17.753  0.00  0.00    +0.000 A 
ATOM      7  C   UNL     1       2.486   2.738  19.048  0.00  0.00    +0.000 A 
ATOM      8  C   UNL     1       1.693   2.013  19.954  0.00  0.00    +0.000 A 
ATOM      9  C   UNL     1       1.462   2.505  21.239  0.00  0.00    +0.000 A 
ATOM     10  C   UNL     1       2.010   3.724  21.621  0.00  0.00    +0.000 A 
ATOM     11  C   UNL     1       2.780   4.450  20.713  0.00  0.00    +0.000 A 
ATOM     12  C   UNL     1       3.031   3.973  19.434  0.00  0.00    +0.000 A 
ATOM     13  N   UNL     1       3.776   4.713  18.604  0.00  0.00    +0.000 NA
ATOM     14  H   UNL     1       5.031   4.701  15.588  0.00  0.00    +0.000 HD
ENDROOT
BRANCH   2  15
ATOM     15  C   UNL     1       4.388   7.206  17.744  0.00  0.00    +0.000 C 
BRANCH  15  16
ATOM     16  C   UNL     1       3.088   7.951  17.484  0.00  0.00    +0.000 C 
BRANCH  16  17
ATOM     17  C   UNL     1       2.083   7.525  18.556  0.00  0.00    +0.000 C 
BRANCH  17  18
ATOM     18  N   UNL     1       1.544   8.649  19.291  0.00  0.00    +0.000 N 
ATOM     19  C   UNL     1       1.469   9.886  18.697  0.00  0.00    +0.000 A 
ATOM     20  N   UNL     1       0.946  10.934  19.239  0.00  0.00    +0.000 NA
ATOM     21  C   UNL     1       0.395  10.788  20.521  0.00  0.00    +0.000 A 
ATOM     22  C   UNL     1      -0.264  11.872  21.098  0.00  0.00    +0.000 A 
ATOM     23  C   UNL     1      -0.855  11.753  22.358  0.00  0.00    +0.000 A 
ATOM     24  C   UNL     1      -0.782  10.551  23.063  0.00  0.00    +0.000 A 
ATOM     25  C   UNL     1      -0.117   9.464  22.506  0.00  0.00    +0.000 A 
ATOM     26  C   UNL     1       0.462   9.592  21.238  0.00  0.00    +0.000 A 
ATOM     27  C   UNL     1       1.121   8.443  20.596  0.00  0.00    +0.000 A 
ATOM     28  O   UNL     1       1.255   7.385  21.205  0.00  0.00    +0.000 OA
ENDBRANCH  17  18
ENDBRANCH  16  17
ENDBRANCH  15  16
ENDBRANCH   2  15
TORSDOF 4
ENDMDL
MODEL 3
REMARK VINA RESULT:      -8.5      1.837      7.833
REMARK  Name = 
REMARK  4 active torsions:
REMARK  status: ('A' for Active; 'I' for Inactive)
REMARK    1  A    between atoms: C_2  and  C_3
REMARK    2  A    between atoms: C_3  and  C_4
REMARK    3  A    between atoms: C_4  and  C_5
REMARK    4  A    between atoms: C_5  and  N_6
REMARK                            x       y       z     vdW  Elec       q    Type
REMARK                         _______ _______ _______ _____ _____    ______ ____
ROOT
ATOM      1  O   UNL     1       3.054   7.313  17.466  0.00  0.00    +0.000 OA
ATOM      2  C   UNL     1       2.453   7.872  18.385  0.00  0.00    +0.000 C 
ATOM      3  N   UNL     1       1.790   9.044  18.124  0.00  0.00    +0.000 N 
ATOM      4  C   UNL     1       1.052   9.832  19.016  0.00  0.00    +0.000 A 
ATOM      5  C   UNL     1       0.791  11.146  18.667  0.00  0.00    +0.000 A 
ATOM      6  C   UNL     1       0.158  11.968  19.600  0.00  0.00    +0.000 A 
ATOM      7  C   UNL     1      -0.235  11.446  20.840  0.00  0.00    +0.000 A 
ATOM      8  C   UNL     1      -0.874  12.219  21.825  0.00  0.00    +0.000 A 
ATOM      9  C   UNL     1      -1.263  11.640  23.034  0.00  0.00    +0.000 A 
ATOM     10  C   UNL     1      -1.008  10.293  23.269  0.00  0.00    +0.000 A 
ATOM     11  C   UNL     1      -0.357   9.534  22.296  0.00  0.00    +0.000 A 
ATOM     12  C   UNL     1       0.029  10.088  21.084  0.00  0.00    +0.000 A 
ATOM     13  N   UNL     1       0.652   9.313  20.189  0.00  0.00    +0.000 NA
ATOM     14  H   UNL     1       1.935   9.387  17.185  0.00  0.00    +0.000 HD
ENDROOT
BRANCH   2  15
ATOM     15  C   UNL     1       2.442   7.320  19.794  0.00  0.00    +0.000 C 
BRANCH  15  16
ATOM     16  C   UNL     1       1.914   5.900  19.927  0.00  0.00    +0.000 C 
BRANCH  16  17
ATOM     17  C   UNL     1       3.111   4.974  20.148  0.00  0.00    +0.000 C 
BRANCH  17  18
ATOM     18  N   UNL     1       3.773   4.617  18.911  0.00  0.00    +0.000 N 
ATOM     19  C   UNL     1       3.080   3.955  17.927  0.00  0.00    +0.000 A 
ATOM     20  N   UNL     1       3.555   3.650  16.767  0.00  0.00    +0.000 NA
ATOM     21  C   UNL     1       4.871   4.050  16.485  0.00  0.00    +0.000 A 
ATOM     22  C   UNL     1       5.385   3.826  15.210  0.00  0.00    +0.000 A 
ATOM     23  C   UNL     1       6.677   4.240  14.884  0.00  0.00    +0.000 A 
ATOM     24  C   UNL     1       7.479   4.874  15.836  0.00  0.00    +0.000 A 
ATOM     25  C   UNL     1       6.984   5.093  17.117  0.00  0.00    +0.000 A 
ATOM     26  C   UNL     1       5.683   4.682  17.429  0.00  0.00    +0.000 A 
ATOM     27  C   UNL     1       5.110   4.953  18.758  0.00  0.00    +0.000 A 
ATOM     28  O   UNL     1       5.800   5.458  19.639  0.00  0.00    +0.000 OA
ENDBRANCH  17  18
ENDBRANCH  16  17
ENDBRANCH  15  16
ENDBRANCH   2  15
TORSDOF 4
ENDMDL
MODEL 4
REMARK VINA RESULT:      -8.2      2.756      8.342
REMARK  Name = 
REMARK  4 active torsions:
REMARK  status: ('A' for Active; 'I' for Inactive)
REMARK    1  A    between atoms: C_2  and  C_3
REMARK    2  A    between atoms: C_3  and  C_4
REMARK    3  A    between atoms: C_4  and  C_5
REMARK    4  A    between atoms: C_5  and  N_6
REMARK                            x       y       z     vdW  Elec       q    Type
REMARK                         _______ _______ _______ _____ _____    ______ ____
ROOT
ATOM      1  O   UNL     1       1.535   9.655  22.951  0.00  0.00    +0.000 OA
ATOM      2  C   UNL     1       0.825   9.712  21.945  0.00  0.00    +0.000 C 
ATOM      3  N   UNL     1       0.068  10.835  21.732  0.00  0.00    +0.000 N 
ATOM      4  C   UNL     1      -0.797  11.101  20.665  0.00  0.00    +0.000 A 
ATOM      5  C   UNL     1      -1.746  12.097  20.822  0.00  0.00    +0.000 A 
ATOM      6  C   UNL     1      -2.685  12.288  19.807  0.00  0.00    +0.000 A 
ATOM      7  C   UNL     1      -2.626  11.507  18.644  0.00  0.00    +0.000 A 
ATOM      8  C   UNL     1      -3.542  11.645  17.587  0.00  0.00    +0.000 A 
ATOM      9  C   UNL     1      -3.422  10.855  16.443  0.00  0.00    +0.000 A 
ATOM     10  C   UNL     1      -2.398   9.919  16.354  0.00  0.00    +0.000 A 
ATOM     11  C   UNL     1      -1.503   9.772  17.414  0.00  0.00    +0.000 A 
ATOM     12  C   UNL     1      -1.599  10.554  18.556  0.00  0.00    +0.000 A 
ATOM     13  N   UNL     1      -0.713  10.368  19.541  0.00  0.00    +0.000 NA
ATOM     14  H   UNL     1       0.109  11.497  22.495  0.00  0.00    +0.000 HD
ENDROOT
BRANCH   2  15
ATOM     15  C   UNL     1       0.744   8.573  20.951  0.00  0.00    +0.000 C 
BRANCH  15  16
ATOM     16  C   UNL     1       1.897   7.583  21.008  0.00  0.00    +0.000 C 
BRANCH  16  17
ATOM     17  C   UNL     1       1.560   6.419  20.074  0.00  0.00    +0.000 C 
BRANCH  17  18
ATOM     18  N   UNL     1       2.465   6.331  18.947  0.00  0.00    +0.000 N 
ATOM     19  C   UNL     1       2.914   7.476  18.335  0.00  0.00    +0.000 A 
ATOM     20  N   UNL     1       3.770   7.510  17.371  0.00  0.00    +0.000 NA
ATOM     21  C   UNL     1       4.296   6.285  16.934  0.00  0.00    +0.000 A 
ATOM     22  C   UNL     1       5.295   6.289  15.961  0.00  0.00    +0.000 A 
ATOM     23  C   UNL     1       5.865   5.091  15.527  0.00  0.00    +0.000 A 
ATOM     24  C   UNL     1       5.435   3.870  16.052  0.00  0.00    +0.000 A 
ATOM     25  C   UNL     1       4.430   3.849  17.014  0.00  0.00    +0.000 A 
ATOM     26  C   UNL     1       3.873   5.058  17.449  0.00  0.00    +0.000 A 
ATOM     27  C   UNL     1       2.850   5.074  18.508  0.00  0.00    +0.000 A 
ATOM     28  O   UNL     1       2.406   4.020  18.955  0.00  0.00    +0.000 OA
ENDBRANCH  17  18
ENDBRANCH  16  17
ENDBRANCH  15  16
ENDBRANCH   2  15
TORSDOF 4
ENDMDL
MODEL 5
REMARK VINA RESULT:      -8.2      5.214      6.613
REMARK  Name = 
REMARK  4 active torsions:
REMARK  status: ('A' for Active; 'I' for Inactive)
REMARK    1  A    between atoms: C_2  and  C_3
REMARK    2  A    between atoms: C_3  and  C_4
REMARK    3  A    between atoms: C_4  and  C_5
REMARK    4  A    between atoms: C_5  and  N_6
REMARK                            x       y       z     vdW  Elec       q    Type
REMARK                         _______ _______ _______ _____ _____    ______ ____
ROOT
ATOM      1  O   UNL     1       7.794   5.991  15.551  0.00  0.00    +0.000 OA
ATOM      2  C   UNL     1       6.830   5.901  16.314  0.00  0.00    +0.000 C 
ATOM      3  N   UNL     1       6.016   4.801  16.223  0.00  0.00    +0.000 N 
ATOM      4  C   UNL     1       4.881   4.505  16.986  0.00  0.00    +0.000 A 
ATOM      5  C   UNL     1       3.989   3.566  16.497  0.00  0.00    +0.000 A 
ATOM      6  C   UNL     1       2.799   3.352  17.194  0.00  0.00    +0.000 A 
ATOM      7  C   UNL     1       2.550   4.051  18.384  0.00  0.00    +0.000 A 
ATOM      8  C   UNL     1       1.372   3.884  19.133  0.00  0.00    +0.000 A 
ATOM      9  C   UNL     1       1.188   4.591  20.322  0.00  0.00    +0.000 A 
ATOM     10  C   UNL     1       2.170   5.471  20.763  0.00  0.00    +0.000 A 
ATOM     11  C   UNL     1       3.329   5.647  20.006  0.00  0.00    +0.000 A 
ATOM     12  C   UNL     1       3.536   4.947  18.826  0.00  0.00    +0.000 A 
ATOM     13  N   UNL     1       4.666   5.158  18.141  0.00  0.00    +0.000 NA
ATOM     14  H   UNL     1       6.252   4.190  15.453  0.00  0.00    +0.000 HD
ENDROOT
BRANCH   2  15
ATOM     15  C   UNL     1       6.504   6.974  17.331  0.00  0.00    +0.000 C 
BRANCH  15  16
ATOM     16  C   UNL     1       7.695   7.782  17.822  0.00  0.00    +0.000 C 
BRANCH  16  17
ATOM     17  C   UNL     1       7.448   9.246  17.458  0.00  0.00    +0.000 C 
BRANCH  17  18
ATOM     18  N   UNL     1       8.331  10.151  18.165  0.00  0.00    +0.000 N 
ATOM     19  C   UNL     1       9.099   9.688  19.206  0.00  0.00    +0.000 A 
ATOM     20  N   UNL     1       9.963  10.393  19.855  0.00  0.00    +0.000 NA
ATOM     21  C   UNL     1      10.144  11.724  19.449  0.00  0.00    +0.000 A 
ATOM     22  C   UNL     1      11.136  12.486  20.062  0.00  0.00    +0.000 A 
ATOM     23  C   UNL     1      11.368  13.803  19.659  0.00  0.00    +0.000 A 
ATOM     24  C   UNL     1      10.600  14.379  18.646  0.00  0.00    +0.000 A 
ATOM     25  C   UNL     1       9.597  13.635  18.033  0.00  0.00    +0.000 A 
ATOM     26  C   UNL     1       9.381  12.312  18.438  0.00  0.00    +0.000 A 
ATOM     27  C   UNL     1       8.368  11.479  17.769  0.00  0.00    +0.000 A 
ATOM     28  O   UNL     1       7.635  11.965  16.912  0.00  0.00    +0.000 OA
ENDBRANCH  17  18
ENDBRANCH  16  17
ENDBRANCH  15  16
ENDBRANCH   2  15
TORSDOF 4
ENDMDL
MODEL 6
REMARK VINA RESULT:      -8.2      2.510      4.579
REMARK  Name = 
REMARK  4 active torsions:
REMARK  status: ('A' for Active; 'I' for Inactive)
REMARK    1  A    between atoms: C_2  and  C_3
REMARK    2  A    between atoms: C_3  and  C_4
REMARK    3  A    between atoms: C_4  and  C_5
REMARK    4  A    between atoms: C_5  and  N_6
REMARK                            x       y       z     vdW  Elec       q    Type
REMARK                         _______ _______ _______ _____ _____    ______ ____
ROOT
ATOM      1  O   UNL     1       2.702   3.777  20.719  0.00  0.00    +0.000 OA
ATOM      2  C   UNL     1       3.231   3.921  19.615  0.00  0.00    +0.000 C 
ATOM      3  N   UNL     1       4.597   4.023  19.545  0.00  0.00    +0.000 N 
ATOM      4  C   UNL     1       5.390   4.188  18.403  0.00  0.00    +0.000 A 
ATOM      5  C   UNL     1       6.684   4.652  18.566  0.00  0.00    +0.000 A 
ATOM      6  C   UNL     1       7.440   4.929  17.426  0.00  0.00    +0.000 A 
ATOM      7  C   UNL     1       6.897   4.696  16.154  0.00  0.00    +0.000 A 
ATOM      8  C   UNL     1       7.603   4.956  14.966  0.00  0.00    +0.000 A 
ATOM      9  C   UNL     1       7.021   4.685  13.727  0.00  0.00    +0.000 A 
ATOM     10  C   UNL     1       5.733   4.164  13.668  0.00  0.00    +0.000 A 
ATOM     11  C   UNL     1       5.029   3.926  14.849  0.00  0.00    +0.000 A 
ATOM     12  C   UNL     1       5.593   4.180  16.091  0.00  0.00    +0.000 A 
ATOM     13  N   UNL     1       4.871   3.933  17.190  0.00  0.00    +0.000 NA
ATOM     14  H   UNL     1       5.044   4.052  20.450  0.00  0.00    +0.000 HD
ENDROOT
BRANCH   2  15
ATOM     15  C   UNL     1       2.421   4.011  18.340  0.00  0.00    +0.000 C 
BRANCH  15  16
ATOM     16  C   UNL     1       1.727   5.344  18.108  0.00  0.00    +0.000 C 
BRANCH  16  17
ATOM     17  C   UNL     1       2.746   6.454  18.368  0.00  0.00    +0.000 C 
BRANCH  17  18
ATOM     18  N   UNL     1       2.126   7.688  18.804  0.00  0.00    +0.000 N 
ATOM     19  C   UNL     1       1.988   8.734  17.924  0.00  0.00    +0.000 A 
ATOM     20  N   UNL     1       1.393   9.848  18.191  0.00  0.00    +0.000 NA
ATOM     21  C   UNL     1       0.827   9.986  19.467  0.00  0.00    +0.000 A 
ATOM     22  C   UNL     1       0.093  11.134  19.758  0.00  0.00    +0.000 A 
ATOM     23  C   UNL     1      -0.513  11.290  21.006  0.00  0.00    +0.000 A 
ATOM     24  C   UNL     1      -0.382  10.303  21.985  0.00  0.00    +0.000 A 
ATOM     25  C   UNL     1       0.358   9.157  21.714  0.00  0.00    +0.000 A 
ATOM     26  C   UNL     1       0.953   9.007  20.456  0.00  0.00    +0.000 A 
ATOM     27  C   UNL     1       1.692   7.780  20.117  0.00  0.00    +0.000 A 
ATOM     28  O   UNL     1       1.877   6.914  20.968  0.00  0.00    +0.000 OA
ENDBRANCH  17  18
ENDBRANCH  16  17
ENDBRANCH  15  16
ENDBRANCH   2  15
TORSDOF 4
ENDMDL
MODEL 7
REMARK VINA RESULT:      -8.2      2.640      4.372
REMARK  Name = 
REMARK  4 active torsions:
REMARK  status: ('A' for Active; 'I' for Inactive)
REMARK    1  A    between atoms: C_2  and  C_3
REMARK    2  A    between atoms: C_3  and  C_4
REMARK    3  A    between atoms: C_4  and  C_5
REMARK    4  A    between atoms: C_5  and  N_6
REMARK                            x       y       z     vdW  Elec       q    Type
REMARK                         _______ _______ _______ _____ _____    ______ ____
ROOT
ATOM      1  O   UNL     1       1.120   8.028  20.603  0.00  0.00    +0.000 OA
ATOM      2  C   UNL     1       1.965   7.665  19.782  0.00  0.00    +0.000 C 
ATOM      3  N   UNL     1       2.631   6.486  19.996  0.00  0.00    +0.000 N 
ATOM      4  C   UNL     1       3.616   5.896  19.196  0.00  0.00    +0.000 A 
ATOM      5  C   UNL     1       4.428   4.928  19.763  0.00  0.00    +0.000 A 
ATOM      6  C   UNL     1       5.485   4.421  19.006  0.00  0.00    +0.000 A 
ATOM      7  C   UNL     1       5.679   4.863  17.690  0.00  0.00    +0.000 A 
ATOM      8  C   UNL     1       6.725   4.396  16.875  0.00  0.00    +0.000 A 
ATOM      9  C   UNL     1       6.856   4.855  15.564  0.00  0.00    +0.000 A 
ATOM     10  C   UNL     1       5.954   5.788  15.065  0.00  0.00    +0.000 A 
ATOM     11  C   UNL     1       4.929   6.263  15.883  0.00  0.00    +0.000 A 
ATOM     12  C   UNL     1       4.775   5.812  17.186  0.00  0.00    +0.000 A 
ATOM     13  N   UNL     1       3.774   6.305  17.925  0.00  0.00    +0.000 NA
ATOM     14  H   UNL     1       2.411   6.057  20.884  0.00  0.00    +0.000 HD
ENDROOT
BRANCH   2  15
ATOM     15  C   UNL     1       2.305   8.489  18.559  0.00  0.00    +0.000 C 
BRANCH  15  16
ATOM     16  C   UNL     1       1.193   9.401  18.064  0.00  0.00    +0.000 C 
BRANCH  16  17
ATOM     17  C   UNL     1       1.451  10.800  18.626  0.00  0.00    +0.000 C 
BRANCH  17  18
ATOM     18  N   UNL     1       0.284  11.365  19.270  0.00  0.00    +0.000 N 
ATOM     19  C   UNL     1      -0.769  11.814  18.510  0.00  0.00    +0.000 A 
ATOM     20  N   UNL     1      -1.878  12.272  18.984  0.00  0.00    +0.000 NA
ATOM     21  C   UNL     1      -2.024  12.288  20.380  0.00  0.00    +0.000 A 
ATOM     22  C   UNL     1      -3.243  12.683  20.926  0.00  0.00    +0.000 A 
ATOM     23  C   UNL     1      -3.435  12.678  22.309  0.00  0.00    +0.000 A 
ATOM     24  C   UNL     1      -2.403  12.290  23.165  0.00  0.00    +0.000 A 
ATOM     25  C   UNL     1      -1.176  11.905  22.636  0.00  0.00    +0.000 A 
ATOM     26  C   UNL     1      -0.999  11.904  21.247  0.00  0.00    +0.000 A 
ATOM     27  C   UNL     1       0.268  11.445  20.654  0.00  0.00    +0.000 A 
ATOM     28  O   UNL     1       1.218  11.149  21.373  0.00  0.00    +0.000 OA
ENDBRANCH  17  18
ENDBRANCH  16  17
ENDBRANCH  15  16
ENDBRANCH   2  15
TORSDOF 4
ENDMDL
MODEL 8
REMARK VINA RESULT:      -8.1      2.433      4.479
REMARK  Name = 
REMARK  4 active torsions:
REMARK  status: ('A' for Active; 'I' for Inactive)
REMARK    1  A    between atoms: C_2  and  C_3
REMARK    2  A    between atoms: C_3  and  C_4
REMARK    3  A    between atoms: C_4  and  C_5
REMARK    4  A    between atoms: C_5  and  N_6
REMARK                            x       y       z     vdW  Elec       q    Type
REMARK                         _______ _______ _______ _____ _____    ______ ____
ROOT
ATOM      1  O   UNL     1       2.827   3.666  20.666  0.00  0.00    +0.000 OA
ATOM      2  C   UNL     1       3.344   3.831  19.559  0.00  0.00    +0.000 C 
ATOM      3  N   UNL     1       4.707   3.958  19.478  0.00  0.00    +0.000 N 
ATOM      4  C   UNL     1       5.487   4.150  18.332  0.00  0.00    +0.000 A 
ATOM      5  C   UNL     1       6.774   4.634  18.488  0.00  0.00    +0.000 A 
ATOM      6  C   UNL     1       7.515   4.937  17.345  0.00  0.00    +0.000 A 
ATOM      7  C   UNL     1       6.966   4.709  16.075  0.00  0.00    +0.000 A 
ATOM      8  C   UNL     1       7.656   4.994  14.884  0.00  0.00    +0.000 A 
ATOM      9  C   UNL     1       7.068   4.725  13.647  0.00  0.00    +0.000 A 
ATOM     10  C   UNL     1       5.789   4.183  13.593  0.00  0.00    +0.000 A 
ATOM     11  C   UNL     1       5.100   3.919  14.777  0.00  0.00    +0.000 A 
ATOM     12  C   UNL     1       5.670   4.170  16.017  0.00  0.00    +0.000 A 
ATOM     13  N   UNL     1       4.962   3.899  17.120  0.00  0.00    +0.000 NA
ATOM     14  H   UNL     1       5.161   3.986  20.380  0.00  0.00    +0.000 HD
ENDROOT
BRANCH   2  15
ATOM     15  C   UNL     1       2.521   3.921  18.291  0.00  0.00    +0.000 C 
BRANCH  15  16
ATOM     16  C   UNL     1       1.727   5.207  18.126  0.00  0.00    +0.000 C 
BRANCH  16  17
ATOM     17  C   UNL     1       2.674   6.379  18.387  0.00  0.00    +0.000 C 
BRANCH  17  18
ATOM     18  N   UNL     1       2.039   7.456  19.117  0.00  0.00    +0.000 N 
ATOM     19  C   UNL     1       1.656   7.267  20.423  0.00  0.00    +0.000 A 
ATOM     20  N   UNL     1       1.145   8.178  21.181  0.00  0.00    +0.000 NA
ATOM     21  C   UNL     1       0.994   9.461  20.632  0.00  0.00    +0.000 A 
ATOM     22  C   UNL     1       0.537  10.494  21.449  0.00  0.00    +0.000 A 
ATOM     23  C   UNL     1       0.408  11.790  20.947  0.00  0.00    +0.000 A 
ATOM     24  C   UNL     1       0.722  12.068  19.615  0.00  0.00    +0.000 A 
ATOM     25  C   UNL     1       1.167  11.045  18.784  0.00  0.00    +0.000 A 
ATOM     26  C   UNL     1       1.303   9.752  19.302  0.00  0.00    +0.000 A 
ATOM     27  C   UNL     1       1.827   8.660  18.464  0.00  0.00    +0.000 A 
ATOM     28  O   UNL     1       2.062   8.851  17.274  0.00  0.00    +0.000 OA
ENDBRANCH  17  18
ENDBRANCH  16  17
ENDBRANCH  15  16
ENDBRANCH   2  15
TORSDOF 4
ENDMDL
MODEL 9
REMARK VINA RESULT:      -8.0      2.594      3.971
REMARK  Name = 
REMARK  4 active torsions:
REMARK  status: ('A' for Active; 'I' for Inactive)
REMARK    1  A    between atoms: C_2  and  C_3
REMARK    2  A    between atoms: C_3  and  C_4
REMARK    3  A    between atoms: C_4  and  C_5
REMARK    4  A    between atoms: C_5  and  N_6
REMARK                            x       y       z     vdW  Elec       q    Type
REMARK                         _______ _______ _______ _____ _____    ______ ____
ROOT
ATOM      1  O   UNL     1       2.353  10.375  17.673  0.00  0.00    +0.000 OA
ATOM      2  C   UNL     1       2.195   9.245  18.139  0.00  0.00    +0.000 C 
ATOM      3  N   UNL     1       3.033   8.238  17.732  0.00  0.00    +0.000 N 
ATOM      4  C   UNL     1       3.027   6.898  18.133  0.00  0.00    +0.000 A 
ATOM      5  C   UNL     1       3.682   5.972  17.339  0.00  0.00    +0.000 A 
ATOM      6  C   UNL     1       3.581   4.620  17.670  0.00  0.00    +0.000 A 
ATOM      7  C   UNL     1       2.863   4.232  18.810  0.00  0.00    +0.000 A 
ATOM      8  C   UNL     1       2.720   2.888  19.198  0.00  0.00    +0.000 A 
ATOM      9  C   UNL     1       2.012   2.561  20.356  0.00  0.00    +0.000 A 
ATOM     10  C   UNL     1       1.436   3.568  21.122  0.00  0.00    +0.000 A 
ATOM     11  C   UNL     1       1.564   4.898  20.722  0.00  0.00    +0.000 A 
ATOM     12  C   UNL     1       2.273   5.246  19.580  0.00  0.00    +0.000 A 
ATOM     13  N   UNL     1       2.361   6.538  19.244  0.00  0.00    +0.000 NA
ATOM     14  H   UNL     1       3.671   8.519  17.000  0.00  0.00    +0.000 HD
ENDROOT
BRANCH   2  15
ATOM     15  C   UNL     1       1.093   8.927  19.127  0.00  0.00    +0.000 C 
BRANCH  15  16
ATOM     16  C   UNL     1       0.036  10.010  19.285  0.00  0.00    +0.000 C 
BRANCH  16  17
ATOM     17  C   UNL     1      -0.010  10.405  20.762  0.00  0.00    +0.000 C 
BRANCH  17  18
ATOM     18  N   UNL     1      -1.113  11.293  21.066  0.00  0.00    +0.000 N 
ATOM     19  C   UNL     1      -1.766  11.949  20.050  0.00  0.00    +0.000 A 
ATOM     20  N   UNL     1      -2.798  12.707  20.206  0.00  0.00    +0.000 NA
ATOM     21  C   UNL     1      -3.301  12.850  21.508  0.00  0.00    +0.000 A 
ATOM     22  C   UNL     1      -4.472  13.581  21.702  0.00  0.00    +0.000 A 
ATOM     23  C   UNL     1      -5.019  13.716  22.979  0.00  0.00    +0.000 A 
ATOM     24  C   UNL     1      -4.395  13.130  24.083  0.00  0.00    +0.000 A 
ATOM     25  C   UNL     1      -3.220  12.408  23.907  0.00  0.00    +0.000 A 
ATOM     26  C   UNL     1      -2.686  12.271  22.620  0.00  0.00    +0.000 A 
ATOM     27  C   UNL     1      -1.476  11.464  22.393  0.00  0.00    +0.000 A 
ATOM     28  O   UNL     1      -0.867  10.979  23.343  0.00  0.00    +0.000 OA
ENDBRANCH  17  18
ENDBRANCH  16  17
ENDBRANCH  15  16
ENDBRANCH   2  15
TORSDOF 4
ENDMDL
