MODEL 1
REMARK VINA RESULT:      -8.8      0.000      0.000
REMARK  Name = 
REMARK  3 active torsions:
REMARK  status: ('A' for Active; 'I' for Inactive)
REMARK    1  A    between atoms: C_2  and  C_13
REMARK    2  A    between atoms: N_3  and  C_4
REMARK    3  A    between atoms: N_17  and  C_18
REMARK                            x       y       z     vdW  Elec       q    Type
REMARK                         _______ _______ _______ _____ _____    ______ ____
ROOT
ATOM      1  O   UNL     1       1.888   5.044  17.826  0.00  0.00    +0.000 OA
ATOM      2  C   UNL     1       2.984   5.558  18.012  0.00  0.00    +0.000 C 
ATOM      3  N   UNL     1       3.223   6.837  18.505  0.00  0.00    +0.000 N 
ATOM      4  H   UNL     1       4.188   7.141  18.535  0.00  0.00    +0.000 HD
ENDROOT
BRANCH   3   5
ATOM      5  C   UNL     1       2.293   7.837  18.853  0.00  0.00    +0.000 A 
ATOM      6  C   UNL     1       1.773   8.768  17.953  0.00  0.00    +0.000 A 
ATOM      7  C   UNL     1       0.836   9.732  18.360  0.00  0.00    +0.000 A 
ATOM      8  C   UNL     1       0.466   9.740  19.709  0.00  0.00    +0.000 A 
ATOM      9  N   UNL     1      -0.385  10.542  20.423  0.00  0.00    +0.000 N 
ATOM     10  N   UNL     1      -0.462  10.237  21.732  0.00  0.00    +0.000 NA
ATOM     11  C   UNL     1       0.368   9.199  21.857  0.00  0.00    +0.000 A 
ATOM     12  C   UNL     1       0.970   8.834  20.631  0.00  0.00    +0.000 A 
ATOM     13  C   UNL     1       1.881   7.856  20.200  0.00  0.00    +0.000 A 
ATOM     14  H   UNL     1      -0.939  11.318  20.079  0.00  0.00    +0.000 HD
ENDBRANCH   3   5
BRANCH   2  15
ATOM     15  C   UNL     1       4.295   4.814  17.759  0.00  0.00    +0.000 C 
ATOM     16  C   UNL     1       5.495   5.715  18.008  0.00  0.00    +0.000 C 
ATOM     17  C   UNL     1       6.192   5.853  16.691  0.00  0.00    +0.000 C 
ATOM     18  O   UNL     1       7.138   6.613  16.557  0.00  0.00    +0.000 OA
ATOM     19  N   UNL     1       5.625   4.965  15.780  0.00  0.00    +0.000 N 
ATOM     20  C   UNL     1       4.495   4.257  16.353  0.00  0.00    +0.000 C 
BRANCH  19  21
ATOM     21  C   UNL     1       6.150   4.675  14.484  0.00  0.00    +0.000 A 
ATOM     22  C   UNL     1       7.288   5.333  13.989  0.00  0.00    +0.000 A 
ATOM     23  C   UNL     1       7.843   5.017  12.743  0.00  0.00    +0.000 A 
ATOM     24  C   UNL     1       7.264   4.031  11.957  0.00  0.00    +0.000 A 
ATOM     25  C   UNL     1       6.128   3.377  12.420  0.00  0.00    +0.000 A 
ATOM     26 CL   UNL     1       5.413   2.145  11.451  0.00  0.00    +0.000 Cl
ATOM     27  C   UNL     1       5.567   3.696  13.664  0.00  0.00    +0.000 A 
ENDBRANCH  19  21
ENDBRANCH   2  15
TORSDOF 3
ENDMDL
MODEL 2
REMARK VINA RESULT:      -8.6      5.389      7.409
REMARK  Name = 
REMARK  3 active torsions:
REMARK  status: ('A' for Active; 'I' for Inactive)
REMARK    1  A    between atoms: C_2  and  C_13
REMARK    2  A    between atoms: N_3  and  C_4
REMARK    3  A    between atoms: N_17  and  C_18
REMARK                            x       y       z     vdW  Elec       q    Type
REMARK                         _______ _______ _______ _____ _____    ______ ____
ROOT
ATOM      1  O   UNL     1       7.446   7.793  16.714  0.00  0.00    +0.000 OA
ATOM      2  C   UNL     1       7.743   7.433  17.846  0.00  0.00    +0.000 C 
ATOM      3  N   UNL     1       8.337   8.216  18.832  0.00  0.00    +0.000 N 
ATOM      4  H   UNL     1       8.583   7.751  19.696  0.00  0.00    +0.000 HD
ENDROOT
BRANCH   3   5
ATOM      5  C   UNL     1       8.771   9.554  18.755  0.00  0.00    +0.000 A 
ATOM      6  C   UNL     1       8.414  10.433  17.732  0.00  0.00    +0.000 A 
ATOM      7  C   UNL     1       8.868  11.762  17.719  0.00  0.00    +0.000 A 
ATOM      8  C   UNL     1       9.714  12.162  18.759  0.00  0.00    +0.000 A 
ATOM      9  N   UNL     1      10.339  13.352  19.029  0.00  0.00    +0.000 N 
ATOM     10  N   UNL     1      11.100  13.335  20.140  0.00  0.00    +0.000 NA
ATOM     11  C   UNL     1      10.953  12.089  20.597  0.00  0.00    +0.000 A 
ATOM     12  C   UNL     1      10.093  11.311  19.788  0.00  0.00    +0.000 A 
ATOM     13  C   UNL     1       9.604   9.995  19.801  0.00  0.00    +0.000 A 
ATOM     14  H   UNL     1      10.292  14.211  18.494  0.00  0.00    +0.000 HD
ENDBRANCH   3   5
BRANCH   2  15
ATOM     15  C   UNL     1       7.447   6.027  18.367  0.00  0.00    +0.000 C 
ATOM     16  C   UNL     1       7.498   5.002  17.245  0.00  0.00    +0.000 C 
ATOM     17  C   UNL     1       6.117   4.438  17.134  0.00  0.00    +0.000 C 
ATOM     18  O   UNL     1       5.825   3.662  16.237  0.00  0.00    +0.000 OA
ATOM     19  N   UNL     1       5.352   4.891  18.206  0.00  0.00    +0.000 N 
ATOM     20  C   UNL     1       6.089   5.826  19.035  0.00  0.00    +0.000 C 
BRANCH  19  21
ATOM     21  C   UNL     1       4.048   4.414  18.541  0.00  0.00    +0.000 A 
ATOM     22  C   UNL     1       2.982   4.488  17.630  0.00  0.00    +0.000 A 
ATOM     23  C   UNL     1       1.715   3.973  17.928  0.00  0.00    +0.000 A 
ATOM     24  C   UNL     1       1.484   3.371  19.157  0.00  0.00    +0.000 A 
ATOM     25  C   UNL     1       2.521   3.300  20.081  0.00  0.00    +0.000 A 
ATOM     26 CL   UNL     1       2.240   2.543  21.603  0.00  0.00    +0.000 Cl
ATOM     27  C   UNL     1       3.788   3.820  19.786  0.00  0.00    +0.000 A 
ENDBRANCH  19  21
ENDBRANCH   2  15
TORSDOF 3
ENDMDL
MODEL 3
REMARK VINA RESULT:      -8.4      4.097      8.843
REMARK  Name = 
REMARK  3 active torsions:
REMARK  status: ('A' for Active; 'I' for Inactive)
REMARK    1  A    between atoms: C_2  and  C_13
REMARK    2  A    between atoms: N_3  and  C_4
REMARK    3  A    between atoms: N_17  and  C_18
REMARK                            x       y       z     vdW  Elec       q    Type
REMARK                         _______ _______ _______ _____ _____    ______ ____
ROOT
ATOM      1  O   UNL     1       1.815   7.841  20.361  0.00  0.00    +0.000 OA
ATOM      2  C   UNL     1       1.943   8.324  19.244  0.00  0.00    +0.000 C 
ATOM      3  N   UNL     1       2.499   7.699  18.132  0.00  0.00    +0.000 N 
ATOM      4  H   UNL     1       2.597   8.259  17.295  0.00  0.00    +0.000 HD
ENDROOT
BRANCH   3   5
ATOM      5  C   UNL     1       3.076   6.417  18.037  0.00  0.00    +0.000 A 
ATOM      6  C   UNL     1       4.443   6.185  17.881  0.00  0.00    +0.000 A 
ATOM      7  C   UNL     1       4.959   4.880  17.807  0.00  0.00    +0.000 A 
ATOM      8  C   UNL     1       4.045   3.824  17.870  0.00  0.00    +0.000 A 
ATOM      9  N   UNL     1       4.206   2.464  17.806  0.00  0.00    +0.000 N 
ATOM     10  N   UNL     1       3.057   1.768  17.887  0.00  0.00    +0.000 NA
ATOM     11  C   UNL     1       2.128   2.718  18.011  0.00  0.00    +0.000 A 
ATOM     12  C   UNL     1       2.679   4.020  18.018  0.00  0.00    +0.000 A 
ATOM     13  C   UNL     1       2.185   5.330  18.122  0.00  0.00    +0.000 A 
ATOM     14  H   UNL     1       5.072   1.948  17.702  0.00  0.00    +0.000 HD
ENDBRANCH   3   5
BRANCH   2  15
ATOM     15  C   UNL     1       1.445   9.726  18.891  0.00  0.00    +0.000 C 
ATOM     16  C   UNL     1       0.900  10.441  20.118  0.00  0.00    +0.000 C 
ATOM     17  C   UNL     1      -0.554  10.674  19.850  0.00  0.00    +0.000 C 
ATOM     18  O   UNL     1      -1.285  11.138  20.711  0.00  0.00    +0.000 OA
ATOM     19  N   UNL     1      -0.832  10.348  18.525  0.00  0.00    +0.000 N 
ATOM     20  C   UNL     1       0.333   9.806  17.850  0.00  0.00    +0.000 C 
BRANCH  19  21
ATOM     21  C   UNL     1      -2.063  10.622  17.855  0.00  0.00    +0.000 A 
ATOM     22  C   UNL     1      -3.102  11.325  18.486  0.00  0.00    +0.000 A 
ATOM     23  C   UNL     1      -4.291  11.647  17.821  0.00  0.00    +0.000 A 
ATOM     24  C   UNL     1      -4.470  11.264  16.499  0.00  0.00    +0.000 A 
ATOM     25  C   UNL     1      -3.460  10.554  15.858  0.00  0.00    +0.000 A 
ATOM     26 CL   UNL     1      -3.675  10.088  14.213  0.00  0.00    +0.000 Cl
ATOM     27  C   UNL     1      -2.272  10.226  16.524  0.00  0.00    +0.000 A 
ENDBRANCH  19  21
ENDBRANCH   2  15
TORSDOF 3
ENDMDL
MODEL 4
REMARK VINA RESULT:      -8.4      0.687      1.462
REMARK  Name = 
REMARK  3 active torsions:
REMARK  status: ('A' for Active; 'I' for Inactive)
REMARK    1  A    between atoms: C_2  and  C_13
REMARK    2  A    between atoms: N_3  and  C_4
REMARK    3  A    between atoms: N_17  and  C_18
REMARK                            x       y       z     vdW  Elec       q    Type
REMARK                         _______ _______ _______ _____ _____    ______ ____
ROOT
ATOM      1  O   UNL     1       1.852   4.549  18.232  0.00  0.00    +0.000 OA
ATOM      2  C   UNL     1       2.974   5.011  18.395  0.00  0.00    +0.000 C 
ATOM      3  N   UNL     1       3.286   6.242  18.964  0.00  0.00    +0.000 N 
ATOM      4  H   UNL     1       4.261   6.511  18.964  0.00  0.00    +0.000 HD
ENDROOT
BRANCH   3   5
ATOM      5  C   UNL     1       2.413   7.244  19.433  0.00  0.00    +0.000 A 
ATOM      6  C   UNL     1       1.821   7.236  20.696  0.00  0.00    +0.000 A 
ATOM      7  C   UNL     1       0.970   8.274  21.111  0.00  0.00    +0.000 A 
ATOM      8  C   UNL     1       0.719   9.303  20.198  0.00  0.00    +0.000 A 
ATOM      9  N   UNL     1      -0.062  10.427  20.272  0.00  0.00    +0.000 N 
ATOM     10  N   UNL     1      -0.056  11.177  19.154  0.00  0.00    +0.000 NA
ATOM     11  C   UNL     1       0.762  10.508  18.337  0.00  0.00    +0.000 A 
ATOM     12  C   UNL     1       1.286   9.338  18.932  0.00  0.00    +0.000 A 
ATOM     13  C   UNL     1       2.159   8.308  18.546  0.00  0.00    +0.000 A 
ATOM     14  H   UNL     1      -0.628  10.736  21.054  0.00  0.00    +0.000 HD
ENDBRANCH   3   5
BRANCH   2  15
ATOM     15  C   UNL     1       4.243   4.245  18.019  0.00  0.00    +0.000 C 
ATOM     16  C   UNL     1       5.491   5.037  18.379  0.00  0.00    +0.000 C 
ATOM     17  C   UNL     1       6.185   5.328  17.086  0.00  0.00    +0.000 C 
ATOM     18  O   UNL     1       7.170   6.049  17.050  0.00  0.00    +0.000 OA
ATOM     19  N   UNL     1       5.566   4.612  16.064  0.00  0.00    +0.000 N 
ATOM     20  C   UNL     1       4.404   3.888  16.544  0.00  0.00    +0.000 C 
BRANCH  19  21
ATOM     21  C   UNL     1       6.067   4.487  14.732  0.00  0.00    +0.000 A 
ATOM     22  C   UNL     1       7.193   5.208  14.301  0.00  0.00    +0.000 A 
ATOM     23  C   UNL     1       7.725   5.051  13.015  0.00  0.00    +0.000 A 
ATOM     24  C   UNL     1       7.134   4.165  12.125  0.00  0.00    +0.000 A 
ATOM     25  C   UNL     1       6.010   3.452  12.526  0.00  0.00    +0.000 A 
ATOM     26 CL   UNL     1       5.282   2.343  11.426  0.00  0.00    +0.000 Cl
ATOM     27  C   UNL     1       5.472   3.612  13.810  0.00  0.00    +0.000 A 
ENDBRANCH  19  21
ENDBRANCH   2  15
TORSDOF 3
ENDMDL
MODEL 5
REMARK VINA RESULT:      -8.3      5.323      7.319
REMARK  Name = 
REMARK  3 active torsions:
REMARK  status: ('A' for Active; 'I' for Inactive)
REMARK    1  A    between atoms: C_2  and  C_13
REMARK    2  A    between atoms: N_3  and  C_4
REMARK    3  A    between atoms: N_17  and  C_18
REMARK                            x       y       z     vdW  Elec       q    Type
REMARK                         _______ _______ _______ _____ _____    ______ ____
ROOT
ATOM      1  O   UNL     1       8.446   6.827  18.908  0.00  0.00    +0.000 OA
ATOM      2  C   UNL     1       7.763   7.336  18.029  0.00  0.00    +0.000 C 
ATOM      3  N   UNL     1       7.745   8.681  17.672  0.00  0.00    +0.000 N 
ATOM      4  H   UNL     1       7.071   8.957  16.968  0.00  0.00    +0.000 HD
ENDROOT
BRANCH   3   5
ATOM      5  C   UNL     1       8.449   9.756  18.247  0.00  0.00    +0.000 A 
ATOM      6  C   UNL     1       9.211   9.657  19.412  0.00  0.00    +0.000 A 
ATOM      7  C   UNL     1       9.904  10.765  19.928  0.00  0.00    +0.000 A 
ATOM      8  C   UNL     1       9.778  11.978  19.243  0.00  0.00    +0.000 A 
ATOM      9  N   UNL     1      10.290  13.226  19.484  0.00  0.00    +0.000 N 
ATOM     10  N   UNL     1       9.917  14.158  18.586  0.00  0.00    +0.000 NA
ATOM     11  C   UNL     1       9.141  13.477  17.739  0.00  0.00    +0.000 A 
ATOM     12  C   UNL     1       9.023  12.112  18.087  0.00  0.00    +0.000 A 
ATOM     13  C   UNL     1       8.363  10.987  17.567  0.00  0.00    +0.000 A 
ATOM     14  H   UNL     1      10.895  13.510  20.245  0.00  0.00    +0.000 HD
ENDBRANCH   3   5
BRANCH   2  15
ATOM     15  C   UNL     1       6.829   6.519  17.135  0.00  0.00    +0.000 C 
ATOM     16  C   UNL     1       5.552   7.287  16.827  0.00  0.00    +0.000 C 
ATOM     17  C   UNL     1       4.436   6.496  17.435  0.00  0.00    +0.000 C 
ATOM     18  O   UNL     1       3.293   6.926  17.442  0.00  0.00    +0.000 OA
ATOM     19  N   UNL     1       4.931   5.270  17.873  0.00  0.00    +0.000 N 
ATOM     20  C   UNL     1       6.367   5.175  17.690  0.00  0.00    +0.000 C 
BRANCH  19  21
ATOM     21  C   UNL     1       4.129   4.179  18.328  0.00  0.00    +0.000 A 
ATOM     22  C   UNL     1       3.848   3.079  17.501  0.00  0.00    +0.000 A 
ATOM     23  C   UNL     1       3.111   1.980  17.955  0.00  0.00    +0.000 A 
ATOM     24  C   UNL     1       2.630   1.958  19.257  0.00  0.00    +0.000 A 
ATOM     25  C   UNL     1       2.884   3.043  20.089  0.00  0.00    +0.000 A 
ATOM     26 CL   UNL     1       2.298   3.014  21.710  0.00  0.00    +0.000 Cl
ATOM     27  C   UNL     1       3.617   4.147  19.635  0.00  0.00    +0.000 A 
ENDBRANCH  19  21
ENDBRANCH   2  15
TORSDOF 3
ENDMDL
MODEL 6
REMARK VINA RESULT:      -8.3      1.199      1.347
REMARK  Name = 
REMARK  3 active torsions:
REMARK  status: ('A' for Active; 'I' for Inactive)
REMARK    1  A    between atoms: C_2  and  C_13
REMARK    2  A    between atoms: N_3  and  C_4
REMARK    3  A    between atoms: N_17  and  C_18
REMARK                            x       y       z     vdW  Elec       q    Type
REMARK                         _______ _______ _______ _____ _____    ______ ____
ROOT
ATOM      1  O   UNL     1       1.269   4.481  19.499  0.00  0.00    +0.000 OA
ATOM      2  C   UNL     1       2.343   4.811  19.013  0.00  0.00    +0.000 C 
ATOM      3  N   UNL     1       2.836   6.107  18.902  0.00  0.00    +0.000 N 
ATOM      4  H   UNL     1       3.714   6.221  18.411  0.00  0.00    +0.000 HD
ENDROOT
BRANCH   3   5
ATOM      5  C   UNL     1       2.220   7.321  19.266  0.00  0.00    +0.000 A 
ATOM      6  C   UNL     1       1.912   8.342  18.366  0.00  0.00    +0.000 A 
ATOM      7  C   UNL     1       1.282   9.523  18.790  0.00  0.00    +0.000 A 
ATOM      8  C   UNL     1       1.000   9.648  20.154  0.00  0.00    +0.000 A 
ATOM      9  N   UNL     1       0.427  10.655  20.886  0.00  0.00    +0.000 N 
ATOM     10  N   UNL     1       0.344  10.400  22.205  0.00  0.00    +0.000 NA
ATOM     11  C   UNL     1       0.881   9.183  22.319  0.00  0.00    +0.000 A 
ATOM     12  C   UNL     1       1.299   8.655  21.076  0.00  0.00    +0.000 A 
ATOM     13  C   UNL     1       1.900   7.467  20.630  0.00  0.00    +0.000 A 
ATOM     14  H   UNL     1       0.077  11.544  20.547  0.00  0.00    +0.000 HD
ENDBRANCH   3   5
BRANCH   2  15
ATOM     15  C   UNL     1       3.352   3.794  18.479  0.00  0.00    +0.000 C 
ATOM     16  C   UNL     1       4.690   3.920  19.191  0.00  0.00    +0.000 C 
ATOM     17  C   UNL     1       5.681   4.326  18.146  0.00  0.00    +0.000 C 
ATOM     18  O   UNL     1       6.830   4.610  18.445  0.00  0.00    +0.000 OA
ATOM     19  N   UNL     1       5.080   4.243  16.892  0.00  0.00    +0.000 N 
ATOM     20  C   UNL     1       3.678   3.883  16.991  0.00  0.00    +0.000 C 
BRANCH  19  21
ATOM     21  C   UNL     1       5.766   4.367  15.645  0.00  0.00    +0.000 A 
ATOM     22  C   UNL     1       6.946   5.119  15.528  0.00  0.00    +0.000 A 
ATOM     23  C   UNL     1       7.656   5.202  14.325  0.00  0.00    +0.000 A 
ATOM     24  C   UNL     1       7.195   4.531  13.201  0.00  0.00    +0.000 A 
ATOM     25  C   UNL     1       6.021   3.791  13.290  0.00  0.00    +0.000 A 
ATOM     26 CL   UNL     1       5.452   2.947  11.900  0.00  0.00    +0.000 Cl
ATOM     27  C   UNL     1       5.305   3.712  14.492  0.00  0.00    +0.000 A 
ENDBRANCH  19  21
ENDBRANCH   2  15
TORSDOF 3
ENDMDL
MODEL 7
REMARK VINA RESULT:      -8.2      5.463      7.604
REMARK  Name = 
REMARK  3 active torsions:
REMARK  status: ('A' for Active; 'I' for Inactive)
REMARK    1  A    between atoms: C_2  and  C_13
REMARK    2  A    between atoms: N_3  and  C_4
REMARK    3  A    between atoms: N_17  and  C_18
REMARK                            x       y       z     vdW  Elec       q    Type
REMARK                         _______ _______ _______ _____ _____    ______ ____
ROOT
ATOM      1  O   UNL     1       7.689   7.615  16.680  0.00  0.00    +0.000 OA
ATOM      2  C   UNL     1       7.948   7.289  17.831  0.00  0.00    +0.000 C 
ATOM      3  N   UNL     1       8.431   8.121  18.837  0.00  0.00    +0.000 N 
ATOM      4  H   UNL     1       8.663   7.684  19.719  0.00  0.00    +0.000 HD
ENDROOT
BRANCH   3   5
ATOM      5  C   UNL     1       8.774   9.486  18.764  0.00  0.00    +0.000 A 
ATOM      6  C   UNL     1       8.355  10.344  17.746  0.00  0.00    +0.000 A 
ATOM      7  C   UNL     1       8.719  11.700  17.739  0.00  0.00    +0.000 A 
ATOM      8  C   UNL     1       9.541  12.151  18.777  0.00  0.00    +0.000 A 
ATOM      9  N   UNL     1      10.086  13.379  19.050  0.00  0.00    +0.000 N 
ATOM     10  N   UNL     1      10.851  13.408  20.157  0.00  0.00    +0.000 NA
ATOM     11  C   UNL     1      10.790  12.154  20.609  0.00  0.00    +0.000 A 
ATOM     12  C   UNL     1       9.981  11.323  19.800  0.00  0.00    +0.000 A 
ATOM     13  C   UNL     1       9.581   9.977  19.809  0.00  0.00    +0.000 A 
ATOM     14  H   UNL     1       9.979  14.235  18.519  0.00  0.00    +0.000 HD
ENDBRANCH   3   5
BRANCH   2  15
ATOM     15  C   UNL     1       7.723   5.871  18.356  0.00  0.00    +0.000 C 
ATOM     16  C   UNL     1       7.422   4.905  17.220  0.00  0.00    +0.000 C 
ATOM     17  C   UNL     1       6.031   4.407  17.457  0.00  0.00    +0.000 C 
ATOM     18  O   UNL     1       5.471   3.692  16.640  0.00  0.00    +0.000 OA
ATOM     19  N   UNL     1       5.601   4.835  18.711  0.00  0.00    +0.000 N 
ATOM     20  C   UNL     1       6.581   5.692  19.351  0.00  0.00    +0.000 C 
BRANCH  19  21
ATOM     21  C   UNL     1       4.407   4.395  19.361  0.00  0.00    +0.000 A 
ATOM     22  C   UNL     1       4.199   3.043  19.677  0.00  0.00    +0.000 A 
ATOM     23  C   UNL     1       3.058   2.609  20.363  0.00  0.00    +0.000 A 
ATOM     24  C   UNL     1       2.091   3.527  20.748  0.00  0.00    +0.000 A 
ATOM     25  C   UNL     1       2.269   4.870  20.432  0.00  0.00    +0.000 A 
ATOM     26 CL   UNL     1       1.075   6.013  20.919  0.00  0.00    +0.000 Cl
ATOM     27  C   UNL     1       3.407   5.305  19.741  0.00  0.00    +0.000 A 
ENDBRANCH  19  21
ENDBRANCH   2  15
TORSDOF 3
ENDMDL
MODEL 8
REMARK VINA RESULT:      -8.2      5.516      7.646
REMARK  Name = 
REMARK  3 active torsions:
REMARK  status: ('A' for Active; 'I' for Inactive)
REMARK    1  A    between atoms: C_2  and  C_13
REMARK    2  A    between atoms: N_3  and  C_4
REMARK    3  A    between atoms: N_17  and  C_18
REMARK                            x       y       z     vdW  Elec       q    Type
REMARK                         _______ _______ _______ _____ _____    ______ ____
ROOT
ATOM      1  O   UNL     1       7.155   8.814  17.118  0.00  0.00    +0.000 OA
ATOM      2  C   UNL     1       7.758   8.107  17.916  0.00  0.00    +0.000 C 
ATOM      3  N   UNL     1       8.685   8.534  18.862  0.00  0.00    +0.000 N 
ATOM      4  H   UNL     1       9.149   7.816  19.402  0.00  0.00    +0.000 HD
ENDROOT
BRANCH   3   5
ATOM      5  C   UNL     1       9.175   9.835  19.092  0.00  0.00    +0.000 A 
ATOM      6  C   UNL     1       9.251  10.429  20.352  0.00  0.00    +0.000 A 
ATOM      7  C   UNL     1       9.765  11.726  20.519  0.00  0.00    +0.000 A 
ATOM      8  C   UNL     1      10.173  12.408  19.368  0.00  0.00    +0.000 A 
ATOM      9  N   UNL     1      10.687  13.664  19.178  0.00  0.00    +0.000 N 
ATOM     10  N   UNL     1      10.943  13.967  17.891  0.00  0.00    +0.000 NA
ATOM     11  C   UNL     1      10.583  12.860  17.236  0.00  0.00    +0.000 A 
ATOM     12  C   UNL     1      10.105  11.849  18.100  0.00  0.00    +0.000 A 
ATOM     13  C   UNL     1       9.618  10.539  17.956  0.00  0.00    +0.000 A 
ATOM     14  H   UNL     1      10.881  14.366  19.883  0.00  0.00    +0.000 HD
ENDBRANCH   3   5
BRANCH   2  15
ATOM     15  C   UNL     1       7.530   6.598  18.015  0.00  0.00    +0.000 C 
ATOM     16  C   UNL     1       7.316   5.983  16.641  0.00  0.00    +0.000 C 
ATOM     17  C   UNL     1       5.923   5.435  16.643  0.00  0.00    +0.000 C 
ATOM     18  O   UNL     1       5.429   4.971  15.628  0.00  0.00    +0.000 OA
ATOM     19  N   UNL     1       5.410   5.500  17.937  0.00  0.00    +0.000 N 
ATOM     20  C   UNL     1       6.333   6.150  18.848  0.00  0.00    +0.000 C 
BRANCH  19  21
ATOM     21  C   UNL     1       4.188   4.896  18.364  0.00  0.00    +0.000 A 
ATOM     22  C   UNL     1       3.012   5.000  17.603  0.00  0.00    +0.000 A 
ATOM     23  C   UNL     1       1.824   4.366  17.985  0.00  0.00    +0.000 A 
ATOM     24  C   UNL     1       1.785   3.610  19.148  0.00  0.00    +0.000 A 
ATOM     25  C   UNL     1       2.934   3.505  19.925  0.00  0.00    +0.000 A 
ATOM     26 CL   UNL     1       2.892   2.558  21.364  0.00  0.00    +0.000 Cl
ATOM     27  C   UNL     1       4.123   4.144  19.547  0.00  0.00    +0.000 A 
ENDBRANCH  19  21
ENDBRANCH   2  15
TORSDOF 3
ENDMDL
MODEL 9
REMARK VINA RESULT:      -8.1      4.719      8.912
REMARK  Name = 
REMARK  3 active torsions:
REMARK  status: ('A' for Active; 'I' for Inactive)
REMARK    1  A    between atoms: C_2  and  C_13
REMARK    2  A    between atoms: N_3  and  C_4
REMARK    3  A    between atoms: N_17  and  C_18
REMARK                            x       y       z     vdW  Elec       q    Type
REMARK                         _______ _______ _______ _____ _____    ______ ____
ROOT
ATOM      1  O   UNL     1       1.409   8.624  21.734  0.00  0.00    +0.000 OA
ATOM      2  C   UNL     1       1.464   8.724  20.515  0.00  0.00    +0.000 C 
ATOM      3  N   UNL     1       1.792   7.712  19.617  0.00  0.00    +0.000 N 
ATOM      4  H   UNL     1       1.862   7.972  18.642  0.00  0.00    +0.000 HD
ENDROOT
BRANCH   3   5
ATOM      5  C   UNL     1       2.175   6.383  19.887  0.00  0.00    +0.000 A 
ATOM      6  C   UNL     1       1.432   5.500  20.671  0.00  0.00    +0.000 A 
ATOM      7  C   UNL     1       1.860   4.180  20.890  0.00  0.00    +0.000 A 
ATOM      8  C   UNL     1       3.074   3.795  20.314  0.00  0.00    +0.000 A 
ATOM      9  N   UNL     1       3.775   2.617  20.348  0.00  0.00    +0.000 N 
ATOM     10  N   UNL     1       4.936   2.646  19.668  0.00  0.00    +0.000 NA
ATOM     11  C   UNL     1       4.976   3.887  19.177  0.00  0.00    +0.000 A 
ATOM     12  C   UNL     1       3.841   4.650  19.535  0.00  0.00    +0.000 A 
ATOM     13  C   UNL     1       3.381   5.956  19.300  0.00  0.00    +0.000 A 
ATOM     14  H   UNL     1       3.519   1.759  20.822  0.00  0.00    +0.000 HD
ENDBRANCH   3   5
BRANCH   2  15
ATOM     15  C   UNL     1       1.121  10.019  19.778  0.00  0.00    +0.000 C 
ATOM     16  C   UNL     1       0.469  11.027  20.711  0.00  0.00    +0.000 C 
ATOM     17  C   UNL     1      -0.915  11.245  20.185  0.00  0.00    +0.000 C 
ATOM     18  O   UNL     1      -1.720  11.929  20.798  0.00  0.00    +0.000 OA
ATOM     19  N   UNL     1      -1.035  10.622  18.945  0.00  0.00    +0.000 N 
ATOM     20  C   UNL     1       0.168   9.890  18.594  0.00  0.00    +0.000 C 
BRANCH  19  21
ATOM     21  C   UNL     1      -2.142  10.774  18.055  0.00  0.00    +0.000 A 
ATOM     22  C   UNL     1      -3.337  11.384  18.469  0.00  0.00    +0.000 A 
ATOM     23  C   UNL     1      -4.408  11.589  17.591  0.00  0.00    +0.000 A 
ATOM     24  C   UNL     1      -4.306  11.179  16.268  0.00  0.00    +0.000 A 
ATOM     25  C   UNL     1      -3.137  10.559  15.841  0.00  0.00    +0.000 A 
ATOM     26 CL   UNL     1      -3.003  10.061  14.197  0.00  0.00    +0.000 Cl
ATOM     27  C   UNL     1      -2.067  10.349  16.720  0.00  0.00    +0.000 A 
ENDBRANCH  19  21
ENDBRANCH   2  15
TORSDOF 3
ENDMDL
