MODEL 1
REMARK VINA RESULT:      -9.2      0.000      0.000
REMARK  Name = 
REMARK  5 active torsions:
REMARK  status: ('A' for Active; 'I' for Inactive)
REMARK    1  A    between atoms: C_1  and  C_2
REMARK    2  A    between atoms: C_6  and  C_8
REMARK    3  A    between atoms: C_8  and  O_9
REMARK    4  A    between atoms: O_9  and  C_10
REMARK    5  A    between atoms: C_10  and  C_12
REMARK                            x       y       z     vdW  Elec       q    Type
REMARK                         _______ _______ _______ _____ _____    ______ ____
ROOT
ATOM      1  C   UNL     1       2.502   6.978  18.826  0.00  0.00    +0.000 C 
ATOM      2  O   UNL     1       2.643   7.398  19.964  0.00  0.00    +0.000 OA
ENDROOT
BRANCH   1   3
ATOM      3  C   UNL     1       2.979   5.652  18.320  0.00  0.00    +0.000 A 
ATOM      4  C   UNL     1       4.005   5.569  17.344  0.00  0.00    +0.000 A 
ATOM      5  C   UNL     1       4.398   4.292  16.941  0.00  0.00    +0.000 A 
ATOM      6  N   UNL     1       3.823   3.165  17.409  0.00  0.00    +0.000 NA
ATOM      7  C   UNL     1       2.833   3.244  18.301  0.00  0.00    +0.000 A 
ATOM      8  C   UNL     1       2.274   2.045  18.727  0.00  0.00    +0.000 A 
ATOM      9  C   UNL     1       1.222   1.998  19.648  0.00  0.00    +0.000 A 
ATOM     10  C   UNL     1       0.730   3.182  20.161  0.00  0.00    +0.000 A 
ATOM     11  C   UNL     1       1.282   4.399  19.753  0.00  0.00    +0.000 A 
ATOM     12  C   UNL     1       2.344   4.465  18.808  0.00  0.00    +0.000 A 
ATOM     13  C   UNL     1       5.451   4.058  15.884  0.00  0.00    +0.000 C 
ATOM     14  C   UNL     1       6.261   5.290  15.504  0.00  0.00    +0.000 C 
ATOM     15  C   UNL     1       5.358   6.507  15.406  0.00  0.00    +0.000 C 
ATOM     16  C   UNL     1       4.702   6.775  16.759  0.00  0.00    +0.000 C 
ENDBRANCH   1   3
BRANCH   1  17
ATOM     17  O   UNL     1       1.885   7.674  17.837  0.00  0.00    +0.000 OA
BRANCH  17  18
ATOM     18  C   UNL     1       2.039   9.090  17.902  0.00  0.00    +0.000 C 
BRANCH  18  24
ATOM     19  C   UNL     1      -4.899  11.636  17.103  0.00  0.00    +0.000 C 
ATOM     20  C   UNL     1      -3.529  11.215  17.440  0.00  0.00    +0.000 A 
ATOM     21  C   UNL     1      -2.538  10.515  16.793  0.00  0.00    +0.000 A 
ATOM     22  C   UNL     1      -1.468  10.460  17.725  0.00  0.00    +0.000 A 
ATOM     23  N   UNL     1      -0.252   9.840  17.496  0.00  0.00    +0.000 N 
ATOM     24  C   UNL     1       0.791   9.829  18.404  0.00  0.00    +0.000 C 
ATOM     25  O   UNL     1       0.801  10.348  19.518  0.00  0.00    +0.000 OA
ATOM     26  N   UNL     1      -1.810  11.089  18.859  0.00  0.00    +0.000 NA
ATOM     27  O   UNL     1      -3.088  11.564  18.673  0.00  0.00    +0.000 OA
ATOM     28  H   UNL     1      -0.085   9.489  16.558  0.00  0.00    +0.000 HD
ENDBRANCH  18  24
ENDBRANCH  17  18
ENDBRANCH   1  17
TORSDOF 4
ENDMDL
MODEL 2
REMARK VINA RESULT:      -9.2      0.265      3.540
REMARK  Name = 
REMARK  5 active torsions:
REMARK  status: ('A' for Active; 'I' for Inactive)
REMARK    1  A    between atoms: C_1  and  C_2
REMARK    2  A    between atoms: C_6  and  C_8
REMARK    3  A    between atoms: C_8  and  O_9
REMARK    4  A    between atoms: O_9  and  C_10
REMARK    5  A    between atoms: C_10  and  C_12
REMARK                            x       y       z     vdW  Elec       q    Type
REMARK                         _______ _______ _______ _____ _____    ______ ____
ROOT
ATOM      1  C   UNL     1       2.401   7.095  18.880  0.00  0.00    +0.000 C 
ATOM      2  O   UNL     1       2.511   7.519  20.020  0.00  0.00    +0.000 OA
ENDROOT
BRANCH   1   3
ATOM      3  C   UNL     1       2.829   5.741  18.407  0.00  0.00    +0.000 A 
ATOM      4  C   UNL     1       2.272   4.562  18.967  0.00  0.00    +0.000 A 
ATOM      5  C   UNL     1       2.717   3.343  18.455  0.00  0.00    +0.000 A 
ATOM      6  N   UNL     1       3.665   3.250  17.498  0.00  0.00    +0.000 NA
ATOM      7  C   UNL     1       4.214   4.358  16.996  0.00  0.00    +0.000 A 
ATOM      8  C   UNL     1       5.195   4.189  16.026  0.00  0.00    +0.000 A 
ATOM      9  C   UNL     1       5.855   5.272  15.436  0.00  0.00    +0.000 A 
ATOM     10  C   UNL     1       5.511   6.554  15.820  0.00  0.00    +0.000 A 
ATOM     11  C   UNL     1       4.522   6.748  16.788  0.00  0.00    +0.000 A 
ATOM     12  C   UNL     1       3.851   5.656  17.408  0.00  0.00    +0.000 A 
ATOM     13  C   UNL     1       2.238   2.011  18.982  0.00  0.00    +0.000 C 
ATOM     14  C   UNL     1       1.024   2.087  19.898  0.00  0.00    +0.000 C 
ATOM     15  C   UNL     1       1.147   3.268  20.844  0.00  0.00    +0.000 C 
ATOM     16  C   UNL     1       1.213   4.567  20.044  0.00  0.00    +0.000 C 
ENDBRANCH   1   3
BRANCH   1  17
ATOM     17  O   UNL     1       1.868   7.812  17.857  0.00  0.00    +0.000 OA
BRANCH  17  18
ATOM     18  C   UNL     1       2.010   9.227  17.967  0.00  0.00    +0.000 C 
BRANCH  18  24
ATOM     19  C   UNL     1      -4.974  11.635  17.135  0.00  0.00    +0.000 C 
ATOM     20  C   UNL     1      -3.597  11.241  17.478  0.00  0.00    +0.000 A 
ATOM     21  C   UNL     1      -2.590  10.560  16.837  0.00  0.00    +0.000 A 
ATOM     22  C   UNL     1      -1.523  10.528  17.773  0.00  0.00    +0.000 A 
ATOM     23  N   UNL     1      -0.293   9.931  17.550  0.00  0.00    +0.000 N 
ATOM     24  C   UNL     1       0.745   9.942  18.463  0.00  0.00    +0.000 C 
ATOM     25  O   UNL     1       0.740  10.463  19.576  0.00  0.00    +0.000 OA
ATOM     26  N   UNL     1      -1.882  11.151  18.905  0.00  0.00    +0.000 NA
ATOM     27  O   UNL     1      -3.168  11.601  18.712  0.00  0.00    +0.000 OA
ATOM     28  H   UNL     1      -0.116   9.582  16.614  0.00  0.00    +0.000 HD
ENDBRANCH  18  24
ENDBRANCH  17  18
ENDBRANCH   1  17
TORSDOF 4
ENDMDL
MODEL 3
REMARK VINA RESULT:      -8.7      1.868      2.244
REMARK  Name = 
REMARK  5 active torsions:
REMARK  status: ('A' for Active; 'I' for Inactive)
REMARK    1  A    between atoms: C_1  and  C_2
REMARK    2  A    between atoms: C_6  and  C_8
REMARK    3  A    between atoms: C_8  and  O_9
REMARK    4  A    between atoms: O_9  and  C_10
REMARK    5  A    between atoms: C_10  and  C_12
REMARK                            x       y       z     vdW  Elec       q    Type
REMARK                         _______ _______ _______ _____ _____    ______ ____
ROOT
ATOM      1  C   UNL     1       2.483   6.956  18.782  0.00  0.00    +0.000 C 
ATOM      2  O   UNL     1       2.637   7.423  19.900  0.00  0.00    +0.000 OA
ENDROOT
BRANCH   1   3
ATOM      3  C   UNL     1       2.984   5.625  18.316  0.00  0.00    +0.000 A 
ATOM      4  C   UNL     1       4.020   5.532  17.351  0.00  0.00    +0.000 A 
ATOM      5  C   UNL     1       4.437   4.251  16.986  0.00  0.00    +0.000 A 
ATOM      6  N   UNL     1       3.874   3.128  17.479  0.00  0.00    +0.000 NA
ATOM      7  C   UNL     1       2.876   3.215  18.360  0.00  0.00    +0.000 A 
ATOM      8  C   UNL     1       2.332   2.019  18.814  0.00  0.00    +0.000 A 
ATOM      9  C   UNL     1       1.273   1.980  19.726  0.00  0.00    +0.000 A 
ATOM     10  C   UNL     1       0.758   3.169  20.204  0.00  0.00    +0.000 A 
ATOM     11  C   UNL     1       1.294   4.384  19.768  0.00  0.00    +0.000 A 
ATOM     12  C   UNL     1       2.363   4.441  18.830  0.00  0.00    +0.000 A 
ATOM     13  C   UNL     1       5.502   4.005  15.944  0.00  0.00    +0.000 C 
ATOM     14  C   UNL     1       6.296   5.239  15.538  0.00  0.00    +0.000 C 
ATOM     15  C   UNL     1       5.375   6.439  15.400  0.00  0.00    +0.000 C 
ATOM     16  C   UNL     1       4.704   6.732  16.739  0.00  0.00    +0.000 C 
ENDBRANCH   1   3
BRANCH   1  17
ATOM     17  O   UNL     1       1.825   7.596  17.782  0.00  0.00    +0.000 OA
BRANCH  17  18
ATOM     18  C   UNL     1       1.962   9.016  17.774  0.00  0.00    +0.000 C 
BRANCH  18  24
ATOM     19  C   UNL     1      -1.603  12.700  23.158  0.00  0.00    +0.000 C 
ATOM     20  C   UNL     1      -1.061  11.993  21.985  0.00  0.00    +0.000 A 
ATOM     21  C   UNL     1       0.129  11.373  21.685  0.00  0.00    +0.000 A 
ATOM     22  C   UNL     1      -0.029  10.915  20.351  0.00  0.00    +0.000 A 
ATOM     23  N   UNL     1       0.935  10.229  19.631  0.00  0.00    +0.000 N 
ATOM     24  C   UNL     1       0.747   9.761  18.343  0.00  0.00    +0.000 C 
ATOM     25  O   UNL     1      -0.267   9.877  17.659  0.00  0.00    +0.000 OA
ATOM     26  N   UNL     1      -1.242  11.251  19.888  0.00  0.00    +0.000 NA
ATOM     27  O   UNL     1      -1.882  11.911  20.911  0.00  0.00    +0.000 OA
ATOM     28  H   UNL     1       1.772   9.951  20.133  0.00  0.00    +0.000 HD
ENDBRANCH  18  24
ENDBRANCH  17  18
ENDBRANCH   1  17
TORSDOF 4
ENDMDL
MODEL 4
REMARK VINA RESULT:      -8.6      1.251      1.362
REMARK  Name = 
REMARK  5 active torsions:
REMARK  status: ('A' for Active; 'I' for Inactive)
REMARK    1  A    between atoms: C_1  and  C_2
REMARK    2  A    between atoms: C_6  and  C_8
REMARK    3  A    between atoms: C_8  and  O_9
REMARK    4  A    between atoms: O_9  and  C_10
REMARK    5  A    between atoms: C_10  and  C_12
REMARK                            x       y       z     vdW  Elec       q    Type
REMARK                         _______ _______ _______ _____ _____    ______ ____
ROOT
ATOM      1  C   UNL     1       2.207   6.762  18.222  0.00  0.00    +0.000 C 
ATOM      2  O   UNL     1       1.347   6.640  17.363  0.00  0.00    +0.000 OA
ENDROOT
BRANCH   1   3
ATOM      3  C   UNL     1       3.209   5.719  18.606  0.00  0.00    +0.000 A 
ATOM      4  C   UNL     1       4.519   5.727  18.061  0.00  0.00    +0.000 A 
ATOM      5  C   UNL     1       5.392   4.726  18.488  0.00  0.00    +0.000 A 
ATOM      6  N   UNL     1       5.029   3.753  19.350  0.00  0.00    +0.000 NA
ATOM      7  C   UNL     1       3.786   3.724  19.836  0.00  0.00    +0.000 A 
ATOM      8  C   UNL     1       3.476   2.685  20.705  0.00  0.00    +0.000 A 
ATOM      9  C   UNL     1       2.204   2.538  21.268  0.00  0.00    +0.000 A 
ATOM     10  C   UNL     1       1.226   3.465  20.961  0.00  0.00    +0.000 A 
ATOM     11  C   UNL     1       1.518   4.523  20.096  0.00  0.00    +0.000 A 
ATOM     12  C   UNL     1       2.804   4.679  19.504  0.00  0.00    +0.000 A 
ATOM     13  C   UNL     1       6.801   4.594  17.962  0.00  0.00    +0.000 C 
ATOM     14  C   UNL     1       7.302   5.791  17.166  0.00  0.00    +0.000 C 
ATOM     15  C   UNL     1       6.206   6.315  16.253  0.00  0.00    +0.000 C 
ATOM     16  C   UNL     1       5.012   6.771  17.087  0.00  0.00    +0.000 C 
ENDBRANCH   1   3
BRANCH   1  17
ATOM     17  O   UNL     1       2.372   7.883  18.970  0.00  0.00    +0.000 OA
BRANCH  17  18
ATOM     18  C   UNL     1       2.324   9.111  18.245  0.00  0.00    +0.000 C 
BRANCH  18  24
ATOM     19  C   UNL     1      -4.653  11.343  16.982  0.00  0.00    +0.000 C 
ATOM     20  C   UNL     1      -3.270  11.032  17.380  0.00  0.00    +0.000 A 
ATOM     21  C   UNL     1      -2.297  10.171  16.929  0.00  0.00    +0.000 A 
ATOM     22  C   UNL     1      -1.195  10.384  17.800  0.00  0.00    +0.000 A 
ATOM     23  N   UNL     1       0.017   9.719  17.718  0.00  0.00    +0.000 N 
ATOM     24  C   UNL     1       1.089   9.967  18.555  0.00  0.00    +0.000 C 
ATOM     25  O   UNL     1       1.134  10.786  19.470  0.00  0.00    +0.000 OA
ATOM     26  N   UNL     1      -1.503  11.314  18.715  0.00  0.00    +0.000 NA
ATOM     27  O   UNL     1      -2.789  11.720  18.443  0.00  0.00    +0.000 OA
ATOM     28  H   UNL     1       0.154   9.112  16.916  0.00  0.00    +0.000 HD
ENDBRANCH  18  24
ENDBRANCH  17  18
ENDBRANCH   1  17
TORSDOF 4
ENDMDL
MODEL 5
REMARK VINA RESULT:      -8.5      1.969      4.172
REMARK  Name = 
REMARK  5 active torsions:
REMARK  status: ('A' for Active; 'I' for Inactive)
REMARK    1  A    between atoms: C_1  and  C_2
REMARK    2  A    between atoms: C_6  and  C_8
REMARK    3  A    between atoms: C_8  and  O_9
REMARK    4  A    between atoms: O_9  and  C_10
REMARK    5  A    between atoms: C_10  and  C_12
REMARK                            x       y       z     vdW  Elec       q    Type
REMARK                         _______ _______ _______ _____ _____    ______ ____
ROOT
ATOM      1  C   UNL     1       2.514   7.021  18.805  0.00  0.00    +0.000 C 
ATOM      2  O   UNL     1       2.496   7.440  19.952  0.00  0.00    +0.000 OA
ENDROOT
BRANCH   1   3
ATOM      3  C   UNL     1       3.134   5.735  18.356  0.00  0.00    +0.000 A 
ATOM      4  C   UNL     1       2.496   4.492  18.601  0.00  0.00    +0.000 A 
ATOM      5  C   UNL     1       3.137   3.344  18.133  0.00  0.00    +0.000 A 
ATOM      6  N   UNL     1       4.333   3.375  17.507  0.00  0.00    +0.000 NA
ATOM      7  C   UNL     1       4.950   4.541  17.308  0.00  0.00    +0.000 A 
ATOM      8  C   UNL     1       6.186   4.498  16.673  0.00  0.00    +0.000 A 
ATOM      9  C   UNL     1       6.936   5.651  16.422  0.00  0.00    +0.000 A 
ATOM     10  C   UNL     1       6.427   6.877  16.806  0.00  0.00    +0.000 A 
ATOM     11  C   UNL     1       5.183   6.945  17.439  0.00  0.00    +0.000 A 
ATOM     12  C   UNL     1       4.413   5.780  17.714  0.00  0.00    +0.000 A 
ATOM     13  C   UNL     1       2.591   1.955  18.356  0.00  0.00    +0.000 C 
ATOM     14  C   UNL     1       1.154   1.906  18.859  0.00  0.00    +0.000 C 
ATOM     15  C   UNL     1       0.925   2.980  19.908  0.00  0.00    +0.000 C 
ATOM     16  C   UNL     1       1.162   4.359  19.298  0.00  0.00    +0.000 C 
ENDBRANCH   1   3
BRANCH   1  17
ATOM     17  O   UNL     1       1.968   7.682  17.752  0.00  0.00    +0.000 OA
BRANCH  17  18
ATOM     18  C   UNL     1       2.072   9.104  17.806  0.00  0.00    +0.000 C 
BRANCH  18  24
ATOM     19  C   UNL     1      -1.628  12.777  23.105  0.00  0.00    +0.000 C 
ATOM     20  C   UNL     1      -1.062  12.059  21.951  0.00  0.00    +0.000 A 
ATOM     21  C   UNL     1       0.158  11.499  21.655  0.00  0.00    +0.000 A 
ATOM     22  C   UNL     1       0.009  10.981  20.341  0.00  0.00    +0.000 A 
ATOM     23  N   UNL     1       1.001  10.326  19.632  0.00  0.00    +0.000 N 
ATOM     24  C   UNL     1       0.823   9.798  18.366  0.00  0.00    +0.000 C 
ATOM     25  O   UNL     1      -0.205   9.828  17.695  0.00  0.00    +0.000 OA
ATOM     26  N   UNL     1      -1.228  11.227  19.886  0.00  0.00    +0.000 NA
ATOM     27  O   UNL     1      -1.892  11.888  20.894  0.00  0.00    +0.000 OA
ATOM     28  H   UNL     1       1.860  10.117  20.131  0.00  0.00    +0.000 HD
ENDBRANCH  18  24
ENDBRANCH  17  18
ENDBRANCH   1  17
TORSDOF 4
ENDMDL
MODEL 6
REMARK VINA RESULT:      -8.4      2.338      4.339
REMARK  Name = 
REMARK  5 active torsions:
REMARK  status: ('A' for Active; 'I' for Inactive)
REMARK    1  A    between atoms: C_1  and  C_2
REMARK    2  A    between atoms: C_6  and  C_8
REMARK    3  A    between atoms: C_8  and  O_9
REMARK    4  A    between atoms: O_9  and  C_10
REMARK    5  A    between atoms: C_10  and  C_12
REMARK                            x       y       z     vdW  Elec       q    Type
REMARK                         _______ _______ _______ _____ _____    ______ ____
ROOT
ATOM      1  C   UNL     1       2.512   7.064  18.728  0.00  0.00    +0.000 C 
ATOM      2  O   UNL     1       1.940   7.827  17.966  0.00  0.00    +0.000 OA
ENDROOT
BRANCH   1   3
ATOM      3  C   UNL     1       3.176   5.779  18.341  0.00  0.00    +0.000 A 
ATOM      4  C   UNL     1       2.545   4.531  18.577  0.00  0.00    +0.000 A 
ATOM      5  C   UNL     1       3.230   3.385  18.169  0.00  0.00    +0.000 A 
ATOM      6  N   UNL     1       4.458   3.423  17.610  0.00  0.00    +0.000 NA
ATOM      7  C   UNL     1       5.066   4.596  17.421  0.00  0.00    +0.000 A 
ATOM      8  C   UNL     1       6.336   4.561  16.855  0.00  0.00    +0.000 A 
ATOM      9  C   UNL     1       7.080   5.722  16.621  0.00  0.00    +0.000 A 
ATOM     10  C   UNL     1       6.531   6.946  16.951  0.00  0.00    +0.000 A 
ATOM     11  C   UNL     1       5.253   7.006  17.513  0.00  0.00    +0.000 A 
ATOM     12  C   UNL     1       4.488   5.833  17.770  0.00  0.00    +0.000 A 
ATOM     13  C   UNL     1       2.694   1.991  18.391  0.00  0.00    +0.000 C 
ATOM     14  C   UNL     1       1.233   1.928  18.816  0.00  0.00    +0.000 C 
ATOM     15  C   UNL     1       0.929   3.019  19.828  0.00  0.00    +0.000 C 
ATOM     16  C   UNL     1       1.177   4.389  19.202  0.00  0.00    +0.000 C 
ENDBRANCH   1   3
BRANCH   1  17
ATOM     17  O   UNL     1       2.620   7.274  20.065  0.00  0.00    +0.000 OA
BRANCH  17  18
ATOM     18  C   UNL     1       1.400   7.595  20.732  0.00  0.00    +0.000 C 
BRANCH  18  24
ATOM     19  C   UNL     1      -0.052  14.740  19.280  0.00  0.00    +0.000 C 
ATOM     20  C   UNL     1       0.277  13.384  19.751  0.00  0.00    +0.000 A 
ATOM     21  C   UNL     1       0.313  12.135  19.177  0.00  0.00    +0.000 A 
ATOM     22  C   UNL     1       0.703  11.265  20.229  0.00  0.00    +0.000 A 
ATOM     23  N   UNL     1       0.865   9.896  20.104  0.00  0.00    +0.000 N 
ATOM     24  C   UNL     1       1.281   9.072  21.134  0.00  0.00    +0.000 C 
ATOM     25  O   UNL     1       1.560   9.412  22.280  0.00  0.00    +0.000 OA
ATOM     26  N   UNL     1       0.883  11.961  21.362  0.00  0.00    +0.000 NA
ATOM     27  O   UNL     1       0.627  13.278  21.056  0.00  0.00    +0.000 OA
ATOM     28  H   UNL     1       0.795   9.509  19.168  0.00  0.00    +0.000 HD
ENDBRANCH  18  24
ENDBRANCH  17  18
ENDBRANCH   1  17
TORSDOF 4
ENDMDL
MODEL 7
REMARK VINA RESULT:      -8.4      2.248      2.540
REMARK  Name = 
REMARK  5 active torsions:
REMARK  status: ('A' for Active; 'I' for Inactive)
REMARK    1  A    between atoms: C_1  and  C_2
REMARK    2  A    between atoms: C_6  and  C_8
REMARK    3  A    between atoms: C_8  and  O_9
REMARK    4  A    between atoms: O_9  and  C_10
REMARK    5  A    between atoms: C_10  and  C_12
REMARK                            x       y       z     vdW  Elec       q    Type
REMARK                         _______ _______ _______ _____ _____    ______ ____
ROOT
ATOM      1  C   UNL     1       2.363   7.012  18.685  0.00  0.00    +0.000 C 
ATOM      2  O   UNL     1       1.752   7.760  17.937  0.00  0.00    +0.000 OA
ENDROOT
BRANCH   1   3
ATOM      3  C   UNL     1       2.939   5.683  18.310  0.00  0.00    +0.000 A 
ATOM      4  C   UNL     1       4.007   5.586  17.381  0.00  0.00    +0.000 A 
ATOM      5  C   UNL     1       4.493   4.307  17.102  0.00  0.00    +0.000 A 
ATOM      6  N   UNL     1       3.967   3.188  17.642  0.00  0.00    +0.000 NA
ATOM      7  C   UNL     1       2.939   3.276  18.488  0.00  0.00    +0.000 A 
ATOM      8  C   UNL     1       2.436   2.083  18.993  0.00  0.00    +0.000 A 
ATOM      9  C   UNL     1       1.352   2.045  19.876  0.00  0.00    +0.000 A 
ATOM     10  C   UNL     1       0.769   3.233  20.270  0.00  0.00    +0.000 A 
ATOM     11  C   UNL     1       1.263   4.446  19.782  0.00  0.00    +0.000 A 
ATOM     12  C   UNL     1       2.357   4.501  18.872  0.00  0.00    +0.000 A 
ATOM     13  C   UNL     1       5.600   4.054  16.107  0.00  0.00    +0.000 C 
ATOM     14  C   UNL     1       6.349   5.300  15.653  0.00  0.00    +0.000 C 
ATOM     15  C   UNL     1       5.379   6.446  15.422  0.00  0.00    +0.000 C 
ATOM     16  C   UNL     1       4.654   6.781  16.722  0.00  0.00    +0.000 C 
ENDBRANCH   1   3
BRANCH   1  17
ATOM     17  O   UNL     1       2.604   7.286  19.993  0.00  0.00    +0.000 OA
BRANCH  17  18
ATOM     18  C   UNL     1       1.448   7.578  20.777  0.00  0.00    +0.000 C 
BRANCH  18  24
ATOM     19  C   UNL     1      -0.003  14.695  19.193  0.00  0.00    +0.000 C 
ATOM     20  C   UNL     1       0.321  13.347  19.690  0.00  0.00    +0.000 A 
ATOM     21  C   UNL     1       0.376  12.091  19.134  0.00  0.00    +0.000 A 
ATOM     22  C   UNL     1       0.746  11.237  20.207  0.00  0.00    +0.000 A 
ATOM     23  N   UNL     1       0.917   9.867  20.105  0.00  0.00    +0.000 N 
ATOM     24  C   UNL     1       1.312   9.059  21.155  0.00  0.00    +0.000 C 
ATOM     25  O   UNL     1       1.562   9.417  22.303  0.00  0.00    +0.000 OA
ATOM     26  N   UNL     1       0.895  11.950  21.334  0.00  0.00    +0.000 NA
ATOM     27  O   UNL     1       0.640  13.261  21.004  0.00  0.00    +0.000 OA
ATOM     28  H   UNL     1       0.872   9.468  19.173  0.00  0.00    +0.000 HD
ENDBRANCH  18  24
ENDBRANCH  17  18
ENDBRANCH   1  17
TORSDOF 4
ENDMDL
MODEL 8
REMARK VINA RESULT:      -8.4      1.273      3.786
REMARK  Name = 
REMARK  5 active torsions:
REMARK  status: ('A' for Active; 'I' for Inactive)
REMARK    1  A    between atoms: C_1  and  C_2
REMARK    2  A    between atoms: C_6  and  C_8
REMARK    3  A    between atoms: C_8  and  O_9
REMARK    4  A    between atoms: O_9  and  C_10
REMARK    5  A    between atoms: C_10  and  C_12
REMARK                            x       y       z     vdW  Elec       q    Type
REMARK                         _______ _______ _______ _____ _____    ______ ____
ROOT
ATOM      1  C   UNL     1       2.305   6.803  18.163  0.00  0.00    +0.000 C 
ATOM      2  O   UNL     1       1.404   6.694  17.346  0.00  0.00    +0.000 OA
ENDROOT
BRANCH   1   3
ATOM      3  C   UNL     1       3.258   5.719  18.560  0.00  0.00    +0.000 A 
ATOM      4  C   UNL     1       2.840   4.646  19.389  0.00  0.00    +0.000 A 
ATOM      5  C   UNL     1       3.792   3.672  19.696  0.00  0.00    +0.000 A 
ATOM      6  N   UNL     1       5.072   3.737  19.274  0.00  0.00    +0.000 NA
ATOM      7  C   UNL     1       5.474   4.765  18.524  0.00  0.00    +0.000 A 
ATOM      8  C   UNL     1       6.809   4.777  18.138  0.00  0.00    +0.000 A 
ATOM      9  C   UNL     1       7.353   5.807  17.364  0.00  0.00    +0.000 A 
ATOM     10  C   UNL     1       6.533   6.841  16.957  0.00  0.00    +0.000 A 
ATOM     11  C   UNL     1       5.185   6.846  17.326  0.00  0.00    +0.000 A 
ATOM     12  C   UNL     1       4.619   5.812  18.125  0.00  0.00    +0.000 A 
ATOM     13  C   UNL     1       3.495   2.497  20.597  0.00  0.00    +0.000 C 
ATOM     14  C   UNL     1       2.019   2.284  20.904  0.00  0.00    +0.000 C 
ATOM     15  C   UNL     1       1.334   3.616  21.158  0.00  0.00    +0.000 C 
ATOM     16  C   UNL     1       1.432   4.494  19.914  0.00  0.00    +0.000 C 
ENDBRANCH   1   3
BRANCH   1  17
ATOM     17  O   UNL     1       2.568   7.946  18.847  0.00  0.00    +0.000 OA
BRANCH  17  18
ATOM     18  C   UNL     1       2.284   9.155  18.144  0.00  0.00    +0.000 C 
BRANCH  18  24
ATOM     19  C   UNL     1      -4.734  11.337  17.031  0.00  0.00    +0.000 C 
ATOM     20  C   UNL     1      -3.360  10.990  17.428  0.00  0.00    +0.000 A 
ATOM     21  C   UNL     1      -2.310  10.331  16.833  0.00  0.00    +0.000 A 
ATOM     22  C   UNL     1      -1.277  10.344  17.806  0.00  0.00    +0.000 A 
ATOM     23  N   UNL     1      -0.023   9.782  17.636  0.00  0.00    +0.000 N 
ATOM     24  C   UNL     1       0.982   9.838  18.584  0.00  0.00    +0.000 C 
ATOM     25  O   UNL     1       0.922  10.374  19.688  0.00  0.00    +0.000 OA
ATOM     26  N   UNL     1      -1.694  10.973  18.915  0.00  0.00    +0.000 NA
ATOM     27  O   UNL     1      -2.985  11.381  18.670  0.00  0.00    +0.000 OA
ATOM     28  H   UNL     1       0.198   9.425  16.712  0.00  0.00    +0.000 HD
ENDBRANCH  18  24
ENDBRANCH  17  18
ENDBRANCH   1  17
TORSDOF 4
ENDMDL
MODEL 9
REMARK VINA RESULT:      -8.3      1.921      2.167
REMARK  Name = 
REMARK  5 active torsions:
REMARK  status: ('A' for Active; 'I' for Inactive)
REMARK    1  A    between atoms: C_1  and  C_2
REMARK    2  A    between atoms: C_6  and  C_8
REMARK    3  A    between atoms: C_8  and  O_9
REMARK    4  A    between atoms: O_9  and  C_10
REMARK    5  A    between atoms: C_10  and  C_12
REMARK                            x       y       z     vdW  Elec       q    Type
REMARK                         _______ _______ _______ _____ _____    ______ ____
ROOT
ATOM      1  C   UNL     1       2.499   6.977  18.877  0.00  0.00    +0.000 C 
ATOM      2  O   UNL     1       2.639   7.379  20.022  0.00  0.00    +0.000 OA
ENDROOT
BRANCH   1   3
ATOM      3  C   UNL     1       2.965   5.654  18.353  0.00  0.00    +0.000 A 
ATOM      4  C   UNL     1       3.985   5.577  17.371  0.00  0.00    +0.000 A 
ATOM      5  C   UNL     1       4.369   4.302  16.951  0.00  0.00    +0.000 A 
ATOM      6  N   UNL     1       3.789   3.173  17.409  0.00  0.00    +0.000 NA
ATOM      7  C   UNL     1       2.804   3.247  18.307  0.00  0.00    +0.000 A 
ATOM      8  C   UNL     1       2.240   2.047  18.723  0.00  0.00    +0.000 A 
ATOM      9  C   UNL     1       1.193   1.995  19.648  0.00  0.00    +0.000 A 
ATOM     10  C   UNL     1       0.711   3.176  20.178  0.00  0.00    +0.000 A 
ATOM     11  C   UNL     1       1.268   4.395  19.781  0.00  0.00    +0.000 A 
ATOM     12  C   UNL     1       2.325   4.465  18.831  0.00  0.00    +0.000 A 
ATOM     13  C   UNL     1       5.414   4.073  15.886  0.00  0.00    +0.000 C 
ATOM     14  C   UNL     1       6.229   5.305  15.516  0.00  0.00    +0.000 C 
ATOM     15  C   UNL     1       5.333   6.529  15.437  0.00  0.00    +0.000 C 
ATOM     16  C   UNL     1       4.686   6.785  16.796  0.00  0.00    +0.000 C 
ENDBRANCH   1   3
BRANCH   1  17
ATOM     17  O   UNL     1       1.891   7.693  17.896  0.00  0.00    +0.000 OA
BRANCH  17  18
ATOM     18  C   UNL     1       2.273   9.065  17.820  0.00  0.00    +0.000 C 
BRANCH  18  24
ATOM     19  C   UNL     1      -0.319  15.879  19.277  0.00  0.00    +0.000 C 
ATOM     20  C   UNL     1       0.015  14.465  19.040  0.00  0.00    +0.000 A 
ATOM     21  C   UNL     1       1.136  13.785  18.625  0.00  0.00    +0.000 A 
ATOM     22  C   UNL     1       0.743  12.421  18.601  0.00  0.00    +0.000 A 
ATOM     23  N   UNL     1       1.563  11.367  18.235  0.00  0.00    +0.000 N 
ATOM     24  C   UNL     1       1.170  10.042  18.253  0.00  0.00    +0.000 C 
ATOM     25  O   UNL     1       0.070   9.606  18.583  0.00  0.00    +0.000 OA
ATOM     26  N   UNL     1      -0.540  12.303  18.977  0.00  0.00    +0.000 NA
ATOM     27  O   UNL     1      -0.983  13.575  19.258  0.00  0.00    +0.000 OA
ATOM     28  H   UNL     1       2.541  11.584  18.070  0.00  0.00    +0.000 HD
ENDBRANCH  18  24
ENDBRANCH  17  18
ENDBRANCH   1  17
TORSDOF 4
ENDMDL
