MODEL 1
REMARK VINA RESULT:      -7.4      0.000      0.000
REMARK  Name = 
REMARK  5 active torsions:
REMARK  status: ('A' for Active; 'I' for Inactive)
REMARK    1  A    between atoms: C_1  and  C_2
REMARK    2  A    between atoms: C_7  and  N_8
REMARK    3  A    between atoms: C_11  and  N_12
REMARK    4  A    between atoms: N_15  and  C_16
REMARK    5  A    between atoms: C_22  and  C_23
REMARK                            x       y       z     vdW  Elec       q    Type
REMARK                         _______ _______ _______ _____ _____    ______ ____
ROOT
ATOM      1  N   UNL     1       1.150  10.104  18.909  0.00  0.00    +0.000 N 
ATOM      2  N   UNL     1       1.722   9.781  17.720  0.00  0.00    +0.000 NA
ATOM      3  C   UNL     1       2.302   8.598  17.913  0.00  0.00    +0.000 A 
ATOM      4  C   UNL     1       2.094   8.110  19.209  0.00  0.00    +0.000 A 
ATOM      5  C   UNL     1       1.319   9.075  19.830  0.00  0.00    +0.000 A 
ENDROOT
BRANCH   1  12
ATOM      6  C   UNL     1      -1.795  10.480  18.360  0.00  0.00    +0.000 C 
ATOM      7  C   UNL     1      -0.865  11.570  18.826  0.00  0.00    +0.000 A 
ATOM      8  C   UNL     1      -1.430  12.841  19.058  0.00  0.00    +0.000 A 
ATOM      9  C   UNL     1      -0.659  13.907  19.515  0.00  0.00    +0.000 A 
ATOM     10  C   UNL     1       0.703  13.734  19.713  0.00  0.00    +0.000 A 
ATOM     11  C   UNL     1       1.289  12.487  19.480  0.00  0.00    +0.000 A 
ATOM     12  C   UNL     1       0.516  11.382  19.075  0.00  0.00    +0.000 A 
ENDBRANCH   1  12
BRANCH   4  13
ATOM     13  N   UNL     1       2.498   6.929  19.810  0.00  0.00    +0.000 N 
ATOM     14  C   UNL     1       2.509   5.679  19.212  0.00  0.00    +0.000 C 
ATOM     15  O   UNL     1       2.097   5.418  18.087  0.00  0.00    +0.000 OA
ATOM     16  N   UNL     1       3.046   4.740  20.079  0.00  0.00    +0.000 N 
ATOM     17  H   UNL     1       2.659   6.970  20.808  0.00  0.00    +0.000 HD
ATOM     18  H   UNL     1       3.495   5.083  20.914  0.00  0.00    +0.000 HD
BRANCH  16  19
ATOM     19  C   UNL     1       3.089   3.326  19.871  0.00  0.00    +0.000 C 
ATOM     20  C   UNL     1       1.770   2.579  19.944  0.00  0.00    +0.000 C 
ATOM     21  C   UNL     1       1.723   1.763  18.647  0.00  0.00    +0.000 C 
ATOM     22  C   UNL     1       3.183   1.394  18.377  0.00  0.00    +0.000 C 
ATOM     23  C   UNL     1       3.944   2.593  18.878  0.00  0.00    +0.000 C 
ATOM     24  C   UNL     1       4.371   2.637  20.310  0.00  0.00    +0.000 C 
ENDBRANCH  16  19
ENDBRANCH   4  13
BRANCH   5  25
ATOM     25  C   UNL     1       0.648   9.035  21.141  0.00  0.00    +0.000 C 
ATOM     26  F   UNL     1      -0.103   7.915  21.285  0.00  0.00    +0.000 F 
ATOM     27  F   UNL     1       1.572   8.991  22.150  0.00  0.00    +0.000 F 
ENDBRANCH   5  25
TORSDOF 4
ENDMDL
MODEL 2
REMARK VINA RESULT:      -7.3      6.017      9.376
REMARK  Name = 
REMARK  5 active torsions:
REMARK  status: ('A' for Active; 'I' for Inactive)
REMARK    1  A    between atoms: C_1  and  C_2
REMARK    2  A    between atoms: C_7  and  N_8
REMARK    3  A    between atoms: C_11  and  N_12
REMARK    4  A    between atoms: N_15  and  C_16
REMARK    5  A    between atoms: C_22  and  C_23
REMARK                            x       y       z     vdW  Elec       q    Type
REMARK                         _______ _______ _______ _____ _____    ______ ____
ROOT
ATOM      1  N   UNL     1       6.027   5.540  18.234  0.00  0.00    +0.000 N 
ATOM      2  N   UNL     1       7.100   5.217  19.002  0.00  0.00    +0.000 NA
ATOM      3  C   UNL     1       7.959   6.223  18.855  0.00  0.00    +0.000 A 
ATOM      4  C   UNL     1       7.459   7.233  18.025  0.00  0.00    +0.000 A 
ATOM      5  C   UNL     1       6.197   6.796  17.659  0.00  0.00    +0.000 A 
ENDROOT
BRANCH   1  12
ATOM      6  C   UNL     1       5.778   3.791  15.786  0.00  0.00    +0.000 C 
ATOM      7  C   UNL     1       4.818   3.779  16.948  0.00  0.00    +0.000 A 
ATOM      8  C   UNL     1       3.757   2.852  16.895  0.00  0.00    +0.000 A 
ATOM      9  C   UNL     1       2.833   2.746  17.932  0.00  0.00    +0.000 A 
ATOM     10  C   UNL     1       2.929   3.592  19.027  0.00  0.00    +0.000 A 
ATOM     11  C   UNL     1       3.965   4.526  19.097  0.00  0.00    +0.000 A 
ATOM     12  C   UNL     1       4.944   4.609  18.088  0.00  0.00    +0.000 A 
ENDBRANCH   1  12
BRANCH   4  13
ATOM     13  N   UNL     1       8.009   8.442  17.633  0.00  0.00    +0.000 N 
ATOM     14  C   UNL     1       8.725   9.308  18.445  0.00  0.00    +0.000 C 
ATOM     15  O   UNL     1       8.917   9.167  19.649  0.00  0.00    +0.000 OA
ATOM     16  N   UNL     1       9.191  10.382  17.704  0.00  0.00    +0.000 N 
ATOM     17  H   UNL     1       7.739   8.779  16.718  0.00  0.00    +0.000 HD
ATOM     18  H   UNL     1       9.112  10.323  16.701  0.00  0.00    +0.000 HD
BRANCH  16  19
ATOM     19  C   UNL     1       9.843  11.545  18.222  0.00  0.00    +0.000 C 
ATOM     20  C   UNL     1       8.973  12.557  18.944  0.00  0.00    +0.000 C 
ATOM     21  C   UNL     1       9.687  12.785  20.282  0.00  0.00    +0.000 C 
ATOM     22  C   UNL     1      11.174  12.651  19.947  0.00  0.00    +0.000 C 
ATOM     23  C   UNL     1      11.196  11.598  18.871  0.00  0.00    +0.000 C 
ATOM     24  C   UNL     1      11.060  12.016  17.442  0.00  0.00    +0.000 C 
ENDBRANCH  16  19
ENDBRANCH   4  13
BRANCH   5  25
ATOM     25  C   UNL     1       5.132   7.513  16.935  0.00  0.00    +0.000 C 
ATOM     26  F   UNL     1       4.870   6.939  15.734  0.00  0.00    +0.000 F 
ATOM     27  F   UNL     1       3.957   7.458  17.634  0.00  0.00    +0.000 F 
ENDBRANCH   5  25
TORSDOF 4
ENDMDL
MODEL 3
REMARK VINA RESULT:      -7.2      0.779      1.556
REMARK  Name = 
REMARK  5 active torsions:
REMARK  status: ('A' for Active; 'I' for Inactive)
REMARK    1  A    between atoms: C_1  and  C_2
REMARK    2  A    between atoms: C_7  and  N_8
REMARK    3  A    between atoms: C_11  and  N_12
REMARK    4  A    between atoms: N_15  and  C_16
REMARK    5  A    between atoms: C_22  and  C_23
REMARK                            x       y       z     vdW  Elec       q    Type
REMARK                         _______ _______ _______ _____ _____    ______ ____
ROOT
ATOM      1  N   UNL     1       0.609  10.257  19.403  0.00  0.00    +0.000 N 
ATOM      2  N   UNL     1       1.165  10.125  18.171  0.00  0.00    +0.000 NA
ATOM      3  C   UNL     1       1.913   9.025  18.234  0.00  0.00    +0.000 A 
ATOM      4  C   UNL     1       1.835   8.400  19.484  0.00  0.00    +0.000 A 
ATOM      5  C   UNL     1       0.962   9.186  20.218  0.00  0.00    +0.000 A 
ENDROOT
BRANCH   1  12
ATOM      6  C   UNL     1       1.843  12.755  20.567  0.00  0.00    +0.000 C 
ATOM      7  C   UNL     1       0.379  12.591  20.250  0.00  0.00    +0.000 A 
ATOM      8  C   UNL     1      -0.456  13.704  20.478  0.00  0.00    +0.000 A 
ATOM      9  C   UNL     1      -1.819  13.661  20.192  0.00  0.00    +0.000 A 
ATOM     10  C   UNL     1      -2.381  12.490  19.707  0.00  0.00    +0.000 A 
ATOM     11  C   UNL     1      -1.577  11.370  19.482  0.00  0.00    +0.000 A 
ATOM     12  C   UNL     1      -0.188  11.412  19.709  0.00  0.00    +0.000 A 
ENDBRANCH   1  12
BRANCH   4  13
ATOM     13  N   UNL     1       2.427   7.240  19.959  0.00  0.00    +0.000 N 
ATOM     14  C   UNL     1       2.444   6.016  19.310  0.00  0.00    +0.000 C 
ATOM     15  O   UNL     1       1.877   5.756  18.253  0.00  0.00    +0.000 OA
ATOM     16  N   UNL     1       3.189   5.101  20.037  0.00  0.00    +0.000 N 
ATOM     17  H   UNL     1       2.743   7.263  20.919  0.00  0.00    +0.000 HD
ATOM     18  H   UNL     1       3.738   5.455  20.805  0.00  0.00    +0.000 HD
BRANCH  16  19
ATOM     19  C   UNL     1       3.314   3.703  19.759  0.00  0.00    +0.000 C 
ATOM     20  C   UNL     1       2.204   2.800  20.264  0.00  0.00    +0.000 C 
ATOM     21  C   UNL     1       1.785   1.989  19.031  0.00  0.00    +0.000 C 
ATOM     22  C   UNL     1       3.081   1.804  18.240  0.00  0.00    +0.000 C 
ATOM     23  C   UNL     1       3.830   3.085  18.492  0.00  0.00    +0.000 C 
ATOM     24  C   UNL     1       4.737   3.176  19.677  0.00  0.00    +0.000 C 
ENDBRANCH  16  19
ENDBRANCH   4  13
BRANCH   5  25
ATOM     25  C   UNL     1       0.365   8.935  21.542  0.00  0.00    +0.000 C 
ATOM     26  F   UNL     1      -0.459   7.859  21.523  0.00  0.00    +0.000 F 
ATOM     27  F   UNL     1       1.337   8.639  22.457  0.00  0.00    +0.000 F 
ENDBRANCH   5  25
TORSDOF 4
ENDMDL
MODEL 4
REMARK VINA RESULT:      -7.1      5.954      9.529
REMARK  Name = 
REMARK  5 active torsions:
REMARK  status: ('A' for Active; 'I' for Inactive)
REMARK    1  A    between atoms: C_1  and  C_2
REMARK    2  A    between atoms: C_7  and  N_8
REMARK    3  A    between atoms: C_11  and  N_12
REMARK    4  A    between atoms: N_15  and  C_16
REMARK    5  A    between atoms: C_22  and  C_23
REMARK                            x       y       z     vdW  Elec       q    Type
REMARK                         _______ _______ _______ _____ _____    ______ ____
ROOT
ATOM      1  N   UNL     1       6.057   5.423  18.290  0.00  0.00    +0.000 N 
ATOM      2  N   UNL     1       7.200   5.179  18.983  0.00  0.00    +0.000 NA
ATOM      3  C   UNL     1       7.973   6.243  18.779  0.00  0.00    +0.000 A 
ATOM      4  C   UNL     1       7.347   7.212  17.987  0.00  0.00    +0.000 A 
ATOM      5  C   UNL     1       6.097   6.685  17.708  0.00  0.00    +0.000 A 
ENDROOT
BRANCH   1  12
ATOM      6  C   UNL     1       5.609   3.817  15.774  0.00  0.00    +0.000 C 
ATOM      7  C   UNL     1       4.818   3.653  17.046  0.00  0.00    +0.000 A 
ATOM      8  C   UNL     1       3.830   2.647  17.063  0.00  0.00    +0.000 A 
ATOM      9  C   UNL     1       3.064   2.400  18.200  0.00  0.00    +0.000 A 
ATOM     10  C   UNL     1       3.245   3.180  19.332  0.00  0.00    +0.000 A 
ATOM     11  C   UNL     1       4.210   4.190  19.336  0.00  0.00    +0.000 A 
ATOM     12  C   UNL     1       5.035   4.416  18.218  0.00  0.00    +0.000 A 
ENDBRANCH   1  12
BRANCH   4  13
ATOM     13  N   UNL     1       7.782   8.456  17.559  0.00  0.00    +0.000 N 
ATOM     14  C   UNL     1       8.583   9.326  18.282  0.00  0.00    +0.000 C 
ATOM     15  O   UNL     1       8.969   9.156  19.434  0.00  0.00    +0.000 OA
ATOM     16  N   UNL     1       8.885  10.443  17.518  0.00  0.00    +0.000 N 
ATOM     17  H   UNL     1       7.357   8.809  16.712  0.00  0.00    +0.000 HD
ATOM     18  H   UNL     1       8.650  10.412  16.538  0.00  0.00    +0.000 HD
BRANCH  16  19
ATOM     19  C   UNL     1       9.566  11.616  17.972  0.00  0.00    +0.000 C 
ATOM     20  C   UNL     1      11.065  11.503  18.181  0.00  0.00    +0.000 C 
ATOM     21  C   UNL     1      11.648  12.683  17.393  0.00  0.00    +0.000 C 
ATOM     22  C   UNL     1      10.597  13.787  17.528  0.00  0.00    +0.000 C 
ATOM     23  C   UNL     1       9.295  13.029  17.545  0.00  0.00    +0.000 C 
ATOM     24  C   UNL     1       8.749  12.550  18.851  0.00  0.00    +0.000 C 
ENDBRANCH  16  19
ENDBRANCH   4  13
BRANCH   5  25
ATOM     25  C   UNL     1       4.937   7.323  17.059  0.00  0.00    +0.000 C 
ATOM     26  F   UNL     1       4.827   6.956  15.758  0.00  0.00    +0.000 F 
ATOM     27  F   UNL     1       3.773   6.918  17.655  0.00  0.00    +0.000 F 
ENDBRANCH   5  25
TORSDOF 4
ENDMDL
MODEL 5
REMARK VINA RESULT:      -7.1      0.786      1.003
REMARK  Name = 
REMARK  5 active torsions:
REMARK  status: ('A' for Active; 'I' for Inactive)
REMARK    1  A    between atoms: C_1  and  C_2
REMARK    2  A    between atoms: C_7  and  N_8
REMARK    3  A    between atoms: C_11  and  N_12
REMARK    4  A    between atoms: N_15  and  C_16
REMARK    5  A    between atoms: C_22  and  C_23
REMARK                            x       y       z     vdW  Elec       q    Type
REMARK                         _______ _______ _______ _____ _____    ______ ____
ROOT
ATOM      1  N   UNL     1       1.427  10.297  18.717  0.00  0.00    +0.000 N 
ATOM      2  N   UNL     1       2.027   9.863  17.578  0.00  0.00    +0.000 NA
ATOM      3  C   UNL     1       2.391   8.606  17.825  0.00  0.00    +0.000 A 
ATOM      4  C   UNL     1       2.009   8.182  19.103  0.00  0.00    +0.000 A 
ATOM      5  C   UNL     1       1.356   9.272  19.655  0.00  0.00    +0.000 A 
ENDROOT
BRANCH   1  12
ATOM      6  C   UNL     1      -1.411  11.108  18.084  0.00  0.00    +0.000 C 
ATOM      7  C   UNL     1      -0.330  12.056  18.536  0.00  0.00    +0.000 A 
ATOM      8  C   UNL     1      -0.693  13.407  18.712  0.00  0.00    +0.000 A 
ATOM      9  C   UNL     1       0.228  14.356  19.151  0.00  0.00    +0.000 A 
ATOM     10  C   UNL     1       1.541  13.979  19.388  0.00  0.00    +0.000 A 
ATOM     11  C   UNL     1       1.928  12.648  19.211  0.00  0.00    +0.000 A 
ATOM     12  C   UNL     1       0.999  11.663  18.825  0.00  0.00    +0.000 A 
ENDBRANCH   1  12
BRANCH   4  13
ATOM     13  N   UNL     1       2.169   6.963  19.742  0.00  0.00    +0.000 N 
ATOM     14  C   UNL     1       2.405   5.748  19.119  0.00  0.00    +0.000 C 
ATOM     15  O   UNL     1       2.438   5.557  17.908  0.00  0.00    +0.000 OA
ATOM     16  N   UNL     1       2.589   4.754  20.067  0.00  0.00    +0.000 N 
ATOM     17  H   UNL     1       1.950   6.946  20.729  0.00  0.00    +0.000 HD
ATOM     18  H   UNL     1       2.698   5.042  21.027  0.00  0.00    +0.000 HD
BRANCH  16  19
ATOM     19  C   UNL     1       2.713   3.353  19.808  0.00  0.00    +0.000 C 
ATOM     20  C   UNL     1       1.574   2.689  19.056  0.00  0.00    +0.000 C 
ATOM     21  C   UNL     1       2.262   1.947  17.903  0.00  0.00    +0.000 C 
ATOM     22  C   UNL     1       3.604   1.501  18.486  0.00  0.00    +0.000 C 
ATOM     23  C   UNL     1       3.966   2.620  19.425  0.00  0.00    +0.000 C 
ATOM     24  C   UNL     1       3.496   2.561  20.843  0.00  0.00    +0.000 C 
ENDBRANCH  16  19
ENDBRANCH   4  13
BRANCH   5  25
ATOM     25  C   UNL     1       0.590   9.366  20.911  0.00  0.00    +0.000 C 
ATOM     26  F   UNL     1       0.903  10.488  21.605  0.00  0.00    +0.000 F 
ATOM     27  F   UNL     1      -0.750   9.455  20.648  0.00  0.00    +0.000 F 
ENDBRANCH   5  25
TORSDOF 4
ENDMDL
MODEL 6
REMARK VINA RESULT:      -7.0      5.916      8.824
REMARK  Name = 
REMARK  5 active torsions:
REMARK  status: ('A' for Active; 'I' for Inactive)
REMARK    1  A    between atoms: C_1  and  C_2
REMARK    2  A    between atoms: C_7  and  N_8
REMARK    3  A    between atoms: C_11  and  N_12
REMARK    4  A    between atoms: N_15  and  C_16
REMARK    5  A    between atoms: C_22  and  C_23
REMARK                            x       y       z     vdW  Elec       q    Type
REMARK                         _______ _______ _______ _____ _____    ______ ____
ROOT
ATOM      1  N   UNL     1       5.273   5.588  17.213  0.00  0.00    +0.000 N 
ATOM      2  N   UNL     1       5.571   6.063  15.975  0.00  0.00    +0.000 NA
ATOM      3  C   UNL     1       6.604   6.886  16.149  0.00  0.00    +0.000 A 
ATOM      4  C   UNL     1       7.023   6.939  17.484  0.00  0.00    +0.000 A 
ATOM      5  C   UNL     1       6.178   6.069  18.154  0.00  0.00    +0.000 A 
ENDROOT
BRANCH   1  12
ATOM      6  C   UNL     1       2.642   6.687  18.204  0.00  0.00    +0.000 C 
ATOM      7  C   UNL     1       2.889   5.242  17.856  0.00  0.00    +0.000 A 
ATOM      8  C   UNL     1       1.796   4.359  17.966  0.00  0.00    +0.000 A 
ATOM      9  C   UNL     1       1.916   3.009  17.642  0.00  0.00    +0.000 A 
ATOM     10  C   UNL     1       3.144   2.508  17.238  0.00  0.00    +0.000 A 
ATOM     11  C   UNL     1       4.246   3.360  17.132  0.00  0.00    +0.000 A 
ATOM     12  C   UNL     1       4.130   4.738  17.397  0.00  0.00    +0.000 A 
ENDBRANCH   1  12
BRANCH   4  13
ATOM     13  N   UNL     1       8.056   7.639  18.085  0.00  0.00    +0.000 N 
ATOM     14  C   UNL     1       8.155   9.019  18.171  0.00  0.00    +0.000 C 
ATOM     15  O   UNL     1       7.382   9.827  17.668  0.00  0.00    +0.000 OA
ATOM     16  N   UNL     1       9.277   9.371  18.905  0.00  0.00    +0.000 N 
ATOM     17  H   UNL     1       8.866   7.096  18.351  0.00  0.00    +0.000 HD
ATOM     18  H   UNL     1       9.755   8.637  19.404  0.00  0.00    +0.000 HD
BRANCH  16  19
ATOM     19  C   UNL     1       9.786  10.696  19.086  0.00  0.00    +0.000 C 
ATOM     20  C   UNL     1       9.176  11.521  20.204  0.00  0.00    +0.000 C 
ATOM     21  C   UNL     1      10.384  12.022  21.006  0.00  0.00    +0.000 C 
ATOM     22  C   UNL     1      11.478  12.229  19.957  0.00  0.00    +0.000 C 
ATOM     23  C   UNL     1      11.218  11.130  18.961  0.00  0.00    +0.000 C 
ATOM     24  C   UNL     1      10.281  11.385  17.824  0.00  0.00    +0.000 C 
ENDBRANCH  16  19
ENDBRANCH   4  13
BRANCH   5  25
ATOM     25  C   UNL     1       6.245   5.585  19.544  0.00  0.00    +0.000 C 
ATOM     26  F   UNL     1       5.789   4.312  19.653  0.00  0.00    +0.000 F 
ATOM     27  F   UNL     1       7.542   5.551  19.977  0.00  0.00    +0.000 F 
ENDBRANCH   5  25
TORSDOF 4
ENDMDL
MODEL 7
REMARK VINA RESULT:      -6.9      5.698      8.801
REMARK  Name = 
REMARK  5 active torsions:
REMARK  status: ('A' for Active; 'I' for Inactive)
REMARK    1  A    between atoms: C_1  and  C_2
REMARK    2  A    between atoms: C_7  and  N_8
REMARK    3  A    between atoms: C_11  and  N_12
REMARK    4  A    between atoms: N_15  and  C_16
REMARK    5  A    between atoms: C_22  and  C_23
REMARK                            x       y       z     vdW  Elec       q    Type
REMARK                         _______ _______ _______ _____ _____    ______ ____
ROOT
ATOM      1  N   UNL     1       5.276   5.529  17.248  0.00  0.00    +0.000 N 
ATOM      2  N   UNL     1       5.578   5.987  16.005  0.00  0.00    +0.000 NA
ATOM      3  C   UNL     1       6.602   6.822  16.173  0.00  0.00    +0.000 A 
ATOM      4  C   UNL     1       7.010   6.901  17.509  0.00  0.00    +0.000 A 
ATOM      5  C   UNL     1       6.169   6.034  18.187  0.00  0.00    +0.000 A 
ENDROOT
BRANCH   1  12
ATOM      6  C   UNL     1       2.600   6.633  18.106  0.00  0.00    +0.000 C 
ATOM      7  C   UNL     1       2.878   5.177  17.835  0.00  0.00    +0.000 A 
ATOM      8  C   UNL     1       1.794   4.283  17.953  0.00  0.00    +0.000 A 
ATOM      9  C   UNL     1       1.944   2.921  17.698  0.00  0.00    +0.000 A 
ATOM     10  C   UNL     1       3.191   2.420  17.355  0.00  0.00    +0.000 A 
ATOM     11  C   UNL     1       4.283   3.284  17.242  0.00  0.00    +0.000 A 
ATOM     12  C   UNL     1       4.140   4.671  17.438  0.00  0.00    +0.000 A 
ENDBRANCH   1  12
BRANCH   4  13
ATOM     13  N   UNL     1       8.032   7.621  18.106  0.00  0.00    +0.000 N 
ATOM     14  C   UNL     1       8.133   9.003  18.144  0.00  0.00    +0.000 C 
ATOM     15  O   UNL     1       7.372   9.793  17.594  0.00  0.00    +0.000 OA
ATOM     16  N   UNL     1       9.240   9.380  18.888  0.00  0.00    +0.000 N 
ATOM     17  H   UNL     1       8.835   7.087  18.409  0.00  0.00    +0.000 HD
ATOM     18  H   UNL     1       9.705   8.664  19.423  0.00  0.00    +0.000 HD
BRANCH  16  19
ATOM     19  C   UNL     1       9.748  10.710  19.031  0.00  0.00    +0.000 C 
ATOM     20  C   UNL     1      10.506  11.286  17.849  0.00  0.00    +0.000 C 
ATOM     21  C   UNL     1       9.834  12.641  17.592  0.00  0.00    +0.000 C 
ATOM     22  C   UNL     1       9.424  13.131  18.983  0.00  0.00    +0.000 C 
ATOM     23  C   UNL     1       9.064  11.862  19.708  0.00  0.00    +0.000 C 
ATOM     24  C   UNL     1      10.131  11.118  20.445  0.00  0.00    +0.000 C 
ENDBRANCH  16  19
ENDBRANCH   4  13
BRANCH   5  25
ATOM     25  C   UNL     1       6.230   5.574  19.586  0.00  0.00    +0.000 C 
ATOM     26  F   UNL     1       5.736   4.318  19.721  0.00  0.00    +0.000 F 
ATOM     27  F   UNL     1       7.529   5.507  20.011  0.00  0.00    +0.000 F 
ENDBRANCH   5  25
TORSDOF 4
ENDMDL
MODEL 8
REMARK VINA RESULT:      -6.9      5.932      9.182
REMARK  Name = 
REMARK  5 active torsions:
REMARK  status: ('A' for Active; 'I' for Inactive)
REMARK    1  A    between atoms: C_1  and  C_2
REMARK    2  A    between atoms: C_7  and  N_8
REMARK    3  A    between atoms: C_11  and  N_12
REMARK    4  A    between atoms: N_15  and  C_16
REMARK    5  A    between atoms: C_22  and  C_23
REMARK                            x       y       z     vdW  Elec       q    Type
REMARK                         _______ _______ _______ _____ _____    ______ ____
ROOT
ATOM      1  N   UNL     1       5.857   5.554  18.105  0.00  0.00    +0.000 N 
ATOM      2  N   UNL     1       6.885   5.220  18.928  0.00  0.00    +0.000 NA
ATOM      3  C   UNL     1       7.779   6.197  18.796  0.00  0.00    +0.000 A 
ATOM      4  C   UNL     1       7.346   7.200  17.921  0.00  0.00    +0.000 A 
ATOM      5  C   UNL     1       6.089   6.790  17.509  0.00  0.00    +0.000 A 
ENDROOT
BRANCH   1  12
ATOM      6  C   UNL     1       3.450   5.651  19.924  0.00  0.00    +0.000 C 
ATOM      7  C   UNL     1       3.617   4.689  18.776  0.00  0.00    +0.000 A 
ATOM      8  C   UNL     1       2.550   3.805  18.517  0.00  0.00    +0.000 A 
ATOM      9  C   UNL     1       2.597   2.896  17.463  0.00  0.00    +0.000 A 
ATOM     10  C   UNL     1       3.731   2.828  16.667  0.00  0.00    +0.000 A 
ATOM     11  C   UNL     1       4.807   3.685  16.910  0.00  0.00    +0.000 A 
ATOM     12  C   UNL     1       4.754   4.651  17.933  0.00  0.00    +0.000 A 
ENDBRANCH   1  12
BRANCH   4  13
ATOM     13  N   UNL     1       7.948   8.383  17.525  0.00  0.00    +0.000 N 
ATOM     14  C   UNL     1       8.643   9.253  18.350  0.00  0.00    +0.000 C 
ATOM     15  O   UNL     1       8.769   9.143  19.565  0.00  0.00    +0.000 OA
ATOM     16  N   UNL     1       9.176  10.293  17.605  0.00  0.00    +0.000 N 
ATOM     17  H   UNL     1       7.735   8.700  16.588  0.00  0.00    +0.000 HD
ATOM     18  H   UNL     1       9.148  10.208  16.601  0.00  0.00    +0.000 HD
BRANCH  16  19
ATOM     19  C   UNL     1       9.832  11.454  18.125  0.00  0.00    +0.000 C 
ATOM     20  C   UNL     1       8.944  12.568  18.650  0.00  0.00    +0.000 C 
ATOM     21  C   UNL     1       9.491  12.858  20.054  0.00  0.00    +0.000 C 
ATOM     22  C   UNL     1      10.996  12.613  19.933  0.00  0.00    +0.000 C 
ATOM     23  C   UNL     1      11.088  11.480  18.946  0.00  0.00    +0.000 C 
ATOM     24  C   UNL     1      11.169  11.793  17.486  0.00  0.00    +0.000 C 
ENDBRANCH  16  19
ENDBRANCH   4  13
BRANCH   5  25
ATOM     25  C   UNL     1       5.078   7.519  16.722  0.00  0.00    +0.000 C 
ATOM     26  F   UNL     1       4.773   6.867  15.573  0.00  0.00    +0.000 F 
ATOM     27  F   UNL     1       3.903   7.610  17.417  0.00  0.00    +0.000 F 
ENDBRANCH   5  25
TORSDOF 4
ENDMDL
MODEL 9
REMARK VINA RESULT:      -6.9      1.931      2.370
REMARK  Name = 
REMARK  5 active torsions:
REMARK  status: ('A' for Active; 'I' for Inactive)
REMARK    1  A    between atoms: C_1  and  C_2
REMARK    2  A    between atoms: C_7  and  N_8
REMARK    3  A    between atoms: C_11  and  N_12
REMARK    4  A    between atoms: N_15  and  C_16
REMARK    5  A    between atoms: C_22  and  C_23
REMARK                            x       y       z     vdW  Elec       q    Type
REMARK                         _______ _______ _______ _____ _____    ______ ____
ROOT
ATOM      1  N   UNL     1       0.987  10.798  20.495  0.00  0.00    +0.000 N 
ATOM      2  N   UNL     1       1.223  10.684  21.828  0.00  0.00    +0.000 NA
ATOM      3  C   UNL     1       1.229   9.376  22.078  0.00  0.00    +0.000 A 
ATOM      4  C   UNL     1       1.035   8.613  20.921  0.00  0.00    +0.000 A 
ATOM      5  C   UNL     1       0.915   9.542  19.901  0.00  0.00    +0.000 A 
ENDROOT
BRANCH   1  12
ATOM      6  C   UNL     1      -1.749  12.031  20.165  0.00  0.00    +0.000 C 
ATOM      7  C   UNL     1      -0.458  12.688  19.751  0.00  0.00    +0.000 A 
ATOM      8  C   UNL     1      -0.544  13.988  19.210  0.00  0.00    +0.000 A 
ATOM      9  C   UNL     1       0.595  14.690  18.822  0.00  0.00    +0.000 A 
ATOM     10  C   UNL     1       1.841  14.091  18.931  0.00  0.00    +0.000 A 
ATOM     11  C   UNL     1       1.951  12.800  19.453  0.00  0.00    +0.000 A 
ATOM     12  C   UNL     1       0.819  12.097  19.906  0.00  0.00    +0.000 A 
ENDBRANCH   1  12
BRANCH   4  13
ATOM     13  N   UNL     1       0.994   7.241  20.734  0.00  0.00    +0.000 N 
ATOM     14  C   UNL     1       1.956   6.483  20.084  0.00  0.00    +0.000 C 
ATOM     15  O   UNL     1       2.950   6.921  19.515  0.00  0.00    +0.000 OA
ATOM     16  N   UNL     1       1.629   5.138  20.151  0.00  0.00    +0.000 N 
ATOM     17  H   UNL     1       0.121   6.785  20.967  0.00  0.00    +0.000 HD
ATOM     18  H   UNL     1       0.879   4.873  20.771  0.00  0.00    +0.000 HD
BRANCH  16  19
ATOM     19  C   UNL     1       2.302   4.071  19.476  0.00  0.00    +0.000 C 
ATOM     20  C   UNL     1       1.953   3.852  18.016  0.00  0.00    +0.000 C 
ATOM     21  C   UNL     1       3.310   3.826  17.301  0.00  0.00    +0.000 C 
ATOM     22  C   UNL     1       4.260   3.185  18.314  0.00  0.00    +0.000 C 
ATOM     23  C   UNL     1       3.741   3.676  19.639  0.00  0.00    +0.000 C 
ATOM     24  C   UNL     1       2.687   2.885  20.346  0.00  0.00    +0.000 C 
ENDBRANCH  16  19
ENDBRANCH   4  13
BRANCH   5  25
ATOM     25  C   UNL     1       0.867   9.330  18.443  0.00  0.00    +0.000 C 
ATOM     26  F   UNL     1      -0.216   9.927  17.887  0.00  0.00    +0.000 F 
ATOM     27  F   UNL     1       1.954   9.901  17.840  0.00  0.00    +0.000 F 
ENDBRANCH   5  25
TORSDOF 4
ENDMDL
