MODEL 1
REMARK VINA RESULT:      -9.3      0.000      0.000
REMARK  Name = 
REMARK  8 active torsions:
REMARK  status: ('A' for Active; 'I' for Inactive)
REMARK    1  A    between atoms: C_1  and  C_2
REMARK    2  A    between atoms: C_4  and  C_5
REMARK    3  A    between atoms: C_5  and  C_6
REMARK    4  A    between atoms: C_5  and  C_7
REMARK    5  A    between atoms: C_9  and  C_10
REMARK    6  A    between atoms: N_12  and  C_13
REMARK    7  A    between atoms: C_13  and  C_14
REMARK    8  A    between atoms: C_14  and  O_15
REMARK                            x       y       z     vdW  Elec       q    Type
REMARK                         _______ _______ _______ _____ _____    ______ ____
ROOT
ATOM      1  C   UNL     1       5.422   5.704  17.696  0.00  0.00    +0.000 C 
ENDROOT
BRANCH   1   2
ATOM      2  C   UNL     1       4.859   4.515  18.497  0.00  0.00    +0.000 C 
ATOM      3  C   UNL     1       3.799   3.720  17.730  0.00  0.00    +0.000 C 
ATOM      4  C   UNL     1       2.448   4.513  17.500  0.00  0.00    +0.000 C 
ATOM      5  C   UNL     1       2.326   5.891  18.185  0.00  0.00    +0.000 C 
ATOM      6  C   UNL     1       2.693   5.561  19.621  0.00  0.00    +0.000 C 
ATOM      7  C   UNL     1       1.922   4.237  19.798  0.00  0.00    +0.000 C 
ATOM      8  C   UNL     1       1.489   3.707  18.403  0.00  0.00    +0.000 C 
ATOM      9  C   UNL     1       1.985   2.275  18.388  0.00  0.00    +0.000 C 
ATOM     10  C   UNL     1       3.396   2.645  18.777  0.00  0.00    +0.000 C 
ATOM     11  C   UNL     1       3.252   3.505  20.049  0.00  0.00    +0.000 C 
ATOM     12  C   UNL     1       4.064   4.818  19.789  0.00  0.00    +0.000 C 
BRANCH   2  13
ATOM     13  O   UNL     1       5.946   3.646  18.849  0.00  0.00    +0.000 OA
ATOM     14  H   UNL     1       6.458   4.065  19.574  0.00  0.00    +0.000 HD
ENDBRANCH   2  13
ENDBRANCH   1   2
BRANCH   1  17
ATOM     15  C   UNL     1       6.641   4.837  15.723  0.00  0.00    +0.000 C 
ATOM     16  O   UNL     1       7.666   4.682  16.378  0.00  0.00    +0.000 OA
ATOM     17  N   UNL     1       5.506   5.397  16.273  0.00  0.00    +0.000 N 
ATOM     18  H   UNL     1       4.655   5.390  15.734  0.00  0.00    +0.000 HD
BRANCH  15  24
ATOM     19  C   UNL     1       8.573   5.726  13.307  0.00  0.00    +0.000 C 
ATOM     20  C   UNL     1       7.383   4.834  13.324  0.00  0.00    +0.000 A 
ATOM     21  O   UNL     1       7.039   4.286  12.133  0.00  0.00    +0.000 OA
ATOM     22  C   UNL     1       5.944   3.507  12.350  0.00  0.00    +0.000 A 
ATOM     23  C   UNL     1       5.573   3.578  13.674  0.00  0.00    +0.000 A 
ATOM     24  C   UNL     1       6.521   4.434  14.328  0.00  0.00    +0.000 A 
BRANCH  22  25
ATOM     25  C   UNL     1       5.411   2.754  11.174  0.00  0.00    +0.000 C 
ATOM     26  C   UNL     1       5.835   1.284  11.220  0.00  0.00    +0.000 C 
ATOM     27  C   UNL     1       3.891   2.882  11.097  0.00  0.00    +0.000 C 
ENDBRANCH  22  25
ENDBRANCH  15  24
ENDBRANCH   1  17
TORSDOF 5
ENDMDL
MODEL 2
REMARK VINA RESULT:      -8.9      3.446      5.759
REMARK  Name = 
REMARK  8 active torsions:
REMARK  status: ('A' for Active; 'I' for Inactive)
REMARK    1  A    between atoms: C_1  and  C_2
REMARK    2  A    between atoms: C_4  and  C_5
REMARK    3  A    between atoms: C_5  and  C_6
REMARK    4  A    between atoms: C_5  and  C_7
REMARK    5  A    between atoms: C_9  and  C_10
REMARK    6  A    between atoms: N_12  and  C_13
REMARK    7  A    between atoms: C_13  and  C_14
REMARK    8  A    between atoms: C_14  and  O_15
REMARK                            x       y       z     vdW  Elec       q    Type
REMARK                         _______ _______ _______ _____ _____    ______ ____
ROOT
ATOM      1  C   UNL     1       4.037   5.007  17.216  0.00  0.00    +0.000 C 
ENDROOT
BRANCH   1   2
ATOM      2  C   UNL     1       2.884   5.008  18.236  0.00  0.00    +0.000 C 
ATOM      3  C   UNL     1       3.327   4.614  19.648  0.00  0.00    +0.000 C 
ATOM      4  C   UNL     1       3.760   3.097  19.781  0.00  0.00    +0.000 C 
ATOM      5  C   UNL     1       3.547   2.202  18.541  0.00  0.00    +0.000 C 
ATOM      6  C   UNL     1       2.092   2.474  18.204  0.00  0.00    +0.000 C 
ATOM      7  C   UNL     1       1.480   2.456  19.619  0.00  0.00    +0.000 C 
ATOM      8  C   UNL     1       2.621   2.554  20.670  0.00  0.00    +0.000 C 
ATOM      9  C   UNL     1       2.191   3.698  21.567  0.00  0.00    +0.000 C 
ATOM     10  C   UNL     1       1.980   4.659  20.422  0.00  0.00    +0.000 C 
ATOM     11  C   UNL     1       1.046   3.921  19.442  0.00  0.00    +0.000 C 
ATOM     12  C   UNL     1       1.734   3.992  18.037  0.00  0.00    +0.000 C 
BRANCH   2  13
ATOM     13  O   UNL     1       2.303   6.321  18.266  0.00  0.00    +0.000 OA
ATOM     14  H   UNL     1       2.373   6.714  17.370  0.00  0.00    +0.000 HD
ENDBRANCH   2  13
ENDBRANCH   1   2
BRANCH   1  17
ATOM     15  C   UNL     1       5.958   6.528  16.856  0.00  0.00    +0.000 C 
ATOM     16  O   UNL     1       5.790   6.512  15.641  0.00  0.00    +0.000 OA
ATOM     17  N   UNL     1       5.184   5.763  17.706  0.00  0.00    +0.000 N 
ATOM     18  H   UNL     1       5.277   5.902  18.699  0.00  0.00    +0.000 HD
BRANCH  15  24
ATOM     19  C   UNL     1       8.068   5.565  19.088  0.00  0.00    +0.000 C 
ATOM     20  C   UNL     1       7.858   6.895  18.456  0.00  0.00    +0.000 A 
ATOM     21  O   UNL     1       8.687   7.883  18.870  0.00  0.00    +0.000 OA
ATOM     22  C   UNL     1       8.349   9.008  18.183  0.00  0.00    +0.000 A 
ATOM     23  C   UNL     1       7.285   8.746  17.350  0.00  0.00    +0.000 A 
ATOM     24  C   UNL     1       6.963   7.356  17.508  0.00  0.00    +0.000 A 
BRANCH  22  25
ATOM     25  C   UNL     1       9.173  10.228  18.443  0.00  0.00    +0.000 C 
ATOM     26  C   UNL     1       8.553  11.463  17.784  0.00  0.00    +0.000 C 
ATOM     27  C   UNL     1       9.357  10.444  19.943  0.00  0.00    +0.000 C 
ENDBRANCH  22  25
ENDBRANCH  15  24
ENDBRANCH   1  17
TORSDOF 5
ENDMDL
MODEL 3
REMARK VINA RESULT:      -8.5      0.993      1.956
REMARK  Name = 
REMARK  8 active torsions:
REMARK  status: ('A' for Active; 'I' for Inactive)
REMARK    1  A    between atoms: C_1  and  C_2
REMARK    2  A    between atoms: C_4  and  C_5
REMARK    3  A    between atoms: C_5  and  C_6
REMARK    4  A    between atoms: C_5  and  C_7
REMARK    5  A    between atoms: C_9  and  C_10
REMARK    6  A    between atoms: N_12  and  C_13
REMARK    7  A    between atoms: C_13  and  C_14
REMARK    8  A    between atoms: C_14  and  O_15
REMARK                            x       y       z     vdW  Elec       q    Type
REMARK                         _______ _______ _______ _____ _____    ______ ____
ROOT
ATOM      1  C   UNL     1       5.294   4.390  18.049  0.00  0.00    +0.000 C 
ENDROOT
BRANCH   1   2
ATOM      2  C   UNL     1       3.883   4.739  18.558  0.00  0.00    +0.000 C 
ATOM      3  C   UNL     1       3.525   4.037  19.870  0.00  0.00    +0.000 C 
ATOM      4  C   UNL     1       3.344   2.471  19.727  0.00  0.00    +0.000 C 
ATOM      5  C   UNL     1       3.408   1.891  18.298  0.00  0.00    +0.000 C 
ATOM      6  C   UNL     1       2.413   2.768  17.559  0.00  0.00    +0.000 C 
ATOM      7  C   UNL     1       1.283   2.834  18.607  0.00  0.00    +0.000 C 
ATOM      8  C   UNL     1       1.826   2.337  19.976  0.00  0.00    +0.000 C 
ATOM      9  C   UNL     1       1.448   3.442  20.940  0.00  0.00    +0.000 C 
ATOM     10  C   UNL     1       2.070   4.533  20.104  0.00  0.00    +0.000 C 
ATOM     11  C   UNL     1       1.465   4.359  18.696  0.00  0.00    +0.000 C 
ATOM     12  C   UNL     1       2.671   4.309  17.699  0.00  0.00    +0.000 C 
BRANCH   2  13
ATOM     13  O   UNL     1       3.803   6.161  18.740  0.00  0.00    +0.000 OA
ATOM     14  H   UNL     1       2.974   6.483  18.325  0.00  0.00    +0.000 HD
ENDBRANCH   2  13
ENDBRANCH   1   2
BRANCH   1  17
ATOM     15  C   UNL     1       6.448   4.599  15.869  0.00  0.00    +0.000 C 
ATOM     16  O   UNL     1       7.427   5.117  16.394  0.00  0.00    +0.000 OA
ATOM     17  N   UNL     1       5.322   4.269  16.597  0.00  0.00    +0.000 N 
ATOM     18  H   UNL     1       4.596   3.735  16.146  0.00  0.00    +0.000 HD
BRANCH  15  24
ATOM     19  C   UNL     1       8.423   5.689  13.572  0.00  0.00    +0.000 C 
ATOM     20  C   UNL     1       7.267   4.757  13.500  0.00  0.00    +0.000 A 
ATOM     21  O   UNL     1       6.981   4.265  12.270  0.00  0.00    +0.000 OA
ATOM     22  C   UNL     1       5.910   3.437  12.406  0.00  0.00    +0.000 A 
ATOM     23  C   UNL     1       5.493   3.420  13.717  0.00  0.00    +0.000 A 
ATOM     24  C   UNL     1       6.388   4.271  14.450  0.00  0.00    +0.000 A 
BRANCH  22  25
ATOM     25  C   UNL     1       5.443   2.734  11.172  0.00  0.00    +0.000 C 
ATOM     26  C   UNL     1       5.827   1.252  11.202  0.00  0.00    +0.000 C 
ATOM     27  C   UNL     1       3.935   2.904  10.994  0.00  0.00    +0.000 C 
ENDBRANCH  22  25
ENDBRANCH  15  24
ENDBRANCH   1  17
TORSDOF 5
ENDMDL
MODEL 4
REMARK VINA RESULT:      -8.5      3.554      5.580
REMARK  Name = 
REMARK  8 active torsions:
REMARK  status: ('A' for Active; 'I' for Inactive)
REMARK    1  A    between atoms: C_1  and  C_2
REMARK    2  A    between atoms: C_4  and  C_5
REMARK    3  A    between atoms: C_5  and  C_6
REMARK    4  A    between atoms: C_5  and  C_7
REMARK    5  A    between atoms: C_9  and  C_10
REMARK    6  A    between atoms: N_12  and  C_13
REMARK    7  A    between atoms: C_13  and  C_14
REMARK    8  A    between atoms: C_14  and  O_15
REMARK                            x       y       z     vdW  Elec       q    Type
REMARK                         _______ _______ _______ _____ _____    ______ ____
ROOT
ATOM      1  C   UNL     1       3.670   5.844  17.315  0.00  0.00    +0.000 C 
ENDROOT
BRANCH   1   2
ATOM      2  C   UNL     1       3.585   4.360  17.713  0.00  0.00    +0.000 C 
ATOM      3  C   UNL     1       2.150   3.829  17.761  0.00  0.00    +0.000 C 
ATOM      4  C   UNL     1       1.282   4.440  18.936  0.00  0.00    +0.000 C 
ATOM      5  C   UNL     1       2.016   5.355  19.939  0.00  0.00    +0.000 C 
ATOM      6  C   UNL     1       3.203   4.496  20.337  0.00  0.00    +0.000 C 
ATOM      7  C   UNL     1       2.506   3.129  20.491  0.00  0.00    +0.000 C 
ATOM      8  C   UNL     1       1.100   3.196  19.830  0.00  0.00    +0.000 C 
ATOM      9  C   UNL     1       1.077   1.997  18.903  0.00  0.00    +0.000 C 
ATOM     10  C   UNL     1       2.374   2.362  18.223  0.00  0.00    +0.000 C 
ATOM     11  C   UNL     1       3.389   2.560  19.367  0.00  0.00    +0.000 C 
ATOM     12  C   UNL     1       4.052   3.959  19.132  0.00  0.00    +0.000 C 
BRANCH   2  13
ATOM     13  O   UNL     1       4.348   3.590  16.772  0.00  0.00    +0.000 OA
ATOM     14  H   UNL     1       5.168   4.085  16.555  0.00  0.00    +0.000 HD
ENDBRANCH   2  13
ENDBRANCH   1   2
BRANCH   1  17
ATOM     15  C   UNL     1       5.913   6.840  16.990  0.00  0.00    +0.000 C 
ATOM     16  O   UNL     1       5.906   6.559  15.796  0.00  0.00    +0.000 OA
ATOM     17  N   UNL     1       4.883   6.468  17.830  0.00  0.00    +0.000 N 
ATOM     18  H   UNL     1       4.874   6.826  18.771  0.00  0.00    +0.000 HD
BRANCH  15  24
ATOM     19  C   UNL     1       8.085   5.701  19.074  0.00  0.00    +0.000 C 
ATOM     20  C   UNL     1       7.904   7.062  18.505  0.00  0.00    +0.000 A 
ATOM     21  O   UNL     1       8.796   7.997  18.913  0.00  0.00    +0.000 OA
ATOM     22  C   UNL     1       8.475   9.162  18.286  0.00  0.00    +0.000 A 
ATOM     23  C   UNL     1       7.360   8.979  17.499  0.00  0.00    +0.000 A 
ATOM     24  C   UNL     1       6.986   7.598  17.621  0.00  0.00    +0.000 A 
BRANCH  22  25
ATOM     25  C   UNL     1       9.364  10.334  18.550  0.00  0.00    +0.000 C 
ATOM     26  C   UNL     1       8.840  11.592  17.852  0.00  0.00    +0.000 C 
ATOM     27  C   UNL     1       9.517  10.566  20.051  0.00  0.00    +0.000 C 
ENDBRANCH  22  25
ENDBRANCH  15  24
ENDBRANCH   1  17
TORSDOF 5
ENDMDL
MODEL 5
REMARK VINA RESULT:      -8.5      1.097      1.184
REMARK  Name = 
REMARK  8 active torsions:
REMARK  status: ('A' for Active; 'I' for Inactive)
REMARK    1  A    between atoms: C_1  and  C_2
REMARK    2  A    between atoms: C_4  and  C_5
REMARK    3  A    between atoms: C_5  and  C_6
REMARK    4  A    between atoms: C_5  and  C_7
REMARK    5  A    between atoms: C_9  and  C_10
REMARK    6  A    between atoms: N_12  and  C_13
REMARK    7  A    between atoms: C_13  and  C_14
REMARK    8  A    between atoms: C_14  and  O_15
REMARK                            x       y       z     vdW  Elec       q    Type
REMARK                         _______ _______ _______ _____ _____    ______ ____
ROOT
ATOM      1  C   UNL     1       5.333   4.331  18.486  0.00  0.00    +0.000 C 
ENDROOT
BRANCH   1   2
ATOM      2  C   UNL     1       4.323   3.416  19.200  0.00  0.00    +0.000 C 
ATOM      3  C   UNL     1       3.199   2.925  18.283  0.00  0.00    +0.000 C 
ATOM      4  C   UNL     1       2.203   4.068  17.828  0.00  0.00    +0.000 C 
ATOM      5  C   UNL     1       2.403   5.460  18.466  0.00  0.00    +0.000 C 
ATOM      6  C   UNL     1       2.433   5.125  19.946  0.00  0.00    +0.000 C 
ATOM      7  C   UNL     1       1.280   4.104  20.014  0.00  0.00    +0.000 C 
ATOM      8  C   UNL     1       0.921   3.641  18.574  0.00  0.00    +0.000 C 
ATOM      9  C   UNL     1       0.955   2.129  18.659  0.00  0.00    +0.000 C 
ATOM     10  C   UNL     1       2.336   2.086  19.266  0.00  0.00    +0.000 C 
ATOM     11  C   UNL     1       2.271   3.026  20.486  0.00  0.00    +0.000 C 
ATOM     12  C   UNL     1       3.473   4.019  20.343  0.00  0.00    +0.000 C 
BRANCH   2  13
ATOM     13  O   UNL     1       5.029   2.286  19.735  0.00  0.00    +0.000 OA
ATOM     14  H   UNL     1       5.881   2.195  19.257  0.00  0.00    +0.000 HD
ENDBRANCH   2  13
ENDBRANCH   1   2
BRANCH   1  17
ATOM     15  C   UNL     1       5.353   4.986  16.098  0.00  0.00    +0.000 C 
ATOM     16  O   UNL     1       5.070   6.146  16.375  0.00  0.00    +0.000 OA
ATOM     17  N   UNL     1       5.437   4.007  17.068  0.00  0.00    +0.000 N 
ATOM     18  H   UNL     1       5.792   3.100  16.809  0.00  0.00    +0.000 HD
BRANCH  15  24
ATOM     19  C   UNL     1       8.107   5.417  14.488  0.00  0.00    +0.000 C 
ATOM     20  C   UNL     1       6.844   4.740  14.092  0.00  0.00    +0.000 A 
ATOM     21  O   UNL     1       6.828   4.200  12.849  0.00  0.00    +0.000 OA
ATOM     22  C   UNL     1       5.606   3.627  12.674  0.00  0.00    +0.000 A 
ATOM     23  C   UNL     1       4.831   3.825  13.794  0.00  0.00    +0.000 A 
ATOM     24  C   UNL     1       5.639   4.541  14.740  0.00  0.00    +0.000 A 
BRANCH  22  25
ATOM     25  C   UNL     1       5.375   2.918  11.379  0.00  0.00    +0.000 C 
ATOM     26  C   UNL     1       5.908   1.484  11.432  0.00  0.00    +0.000 C 
ATOM     27  C   UNL     1       3.892   2.936  11.012  0.00  0.00    +0.000 C 
ENDBRANCH  22  25
ENDBRANCH  15  24
ENDBRANCH   1  17
TORSDOF 5
ENDMDL
MODEL 6
REMARK VINA RESULT:      -8.3      3.531      5.428
REMARK  Name = 
REMARK  8 active torsions:
REMARK  status: ('A' for Active; 'I' for Inactive)
REMARK    1  A    between atoms: C_1  and  C_2
REMARK    2  A    between atoms: C_4  and  C_5
REMARK    3  A    between atoms: C_5  and  C_6
REMARK    4  A    between atoms: C_5  and  C_7
REMARK    5  A    between atoms: C_9  and  C_10
REMARK    6  A    between atoms: N_12  and  C_13
REMARK    7  A    between atoms: C_13  and  C_14
REMARK    8  A    between atoms: C_14  and  O_15
REMARK                            x       y       z     vdW  Elec       q    Type
REMARK                         _______ _______ _______ _____ _____    ______ ____
ROOT
ATOM      1  C   UNL     1       5.482   3.742  19.572  0.00  0.00    +0.000 C 
ENDROOT
BRANCH   1   2
ATOM      2  C   UNL     1       4.425   3.326  18.533  0.00  0.00    +0.000 C 
ATOM      3  C   UNL     1       3.335   4.381  18.325  0.00  0.00    +0.000 C 
ATOM      4  C   UNL     1       2.379   4.565  19.574  0.00  0.00    +0.000 C 
ATOM      5  C   UNL     1       2.575   3.584  20.750  0.00  0.00    +0.000 C 
ATOM      6  C   UNL     1       2.534   2.239  20.046  0.00  0.00    +0.000 C 
ATOM      7  C   UNL     1       1.361   2.480  19.074  0.00  0.00    +0.000 C 
ATOM      8  C   UNL     1       1.059   4.004  19.006  0.00  0.00    +0.000 C 
ATOM      9  C   UNL     1       1.064   4.309  17.522  0.00  0.00    +0.000 C 
ATOM     10  C   UNL     1       2.416   3.681  17.286  0.00  0.00    +0.000 C 
ATOM     11  C   UNL     1       2.312   2.264  17.884  0.00  0.00    +0.000 C 
ATOM     12  C   UNL     1       3.536   2.100  18.847  0.00  0.00    +0.000 C 
BRANCH   2  13
ATOM     13  O   UNL     1       5.088   3.073  17.285  0.00  0.00    +0.000 OA
ATOM     14  H   UNL     1       6.027   3.345  17.369  0.00  0.00    +0.000 HD
ENDBRANCH   2  13
ENDBRANCH   1   2
BRANCH   1  17
ATOM     15  C   UNL     1       7.150   5.260  18.551  0.00  0.00    +0.000 C 
ATOM     16  O   UNL     1       7.841   4.315  18.186  0.00  0.00    +0.000 OA
ATOM     17  N   UNL     1       6.004   5.075  19.299  0.00  0.00    +0.000 N 
ATOM     18  H   UNL     1       5.406   5.868  19.469  0.00  0.00    +0.000 HD
BRANCH  15  24
ATOM     19  C   UNL     1       5.628   7.092  16.386  0.00  0.00    +0.000 C 
ATOM     20  C   UNL     1       6.770   7.397  17.288  0.00  0.00    +0.000 A 
ATOM     21  O   UNL     1       7.266   8.655  17.208  0.00  0.00    +0.000 OA
ATOM     22  C   UNL     1       8.288   8.744  18.102  0.00  0.00    +0.000 A 
ATOM     23  C   UNL     1       8.463   7.534  18.735  0.00  0.00    +0.000 A 
ATOM     24  C   UNL     1       7.459   6.645  18.221  0.00  0.00    +0.000 A 
BRANCH  22  25
ATOM     25  C   UNL     1       8.961  10.073  18.225  0.00  0.00    +0.000 C 
ATOM     26  C   UNL     1       8.073  11.194  17.678  0.00  0.00    +0.000 C 
ATOM     27  C   UNL     1       9.354  10.344  19.676  0.00  0.00    +0.000 C 
ENDBRANCH  22  25
ENDBRANCH  15  24
ENDBRANCH   1  17
TORSDOF 5
ENDMDL
MODEL 7
REMARK VINA RESULT:      -8.3      1.640      2.673
REMARK  Name = 
REMARK  8 active torsions:
REMARK  status: ('A' for Active; 'I' for Inactive)
REMARK    1  A    between atoms: C_1  and  C_2
REMARK    2  A    between atoms: C_4  and  C_5
REMARK    3  A    between atoms: C_5  and  C_6
REMARK    4  A    between atoms: C_5  and  C_7
REMARK    5  A    between atoms: C_9  and  C_10
REMARK    6  A    between atoms: N_12  and  C_13
REMARK    7  A    between atoms: C_13  and  C_14
REMARK    8  A    between atoms: C_14  and  O_15
REMARK                            x       y       z     vdW  Elec       q    Type
REMARK                         _______ _______ _______ _____ _____    ______ ____
ROOT
ATOM      1  C   UNL     1       5.110   3.624  19.830  0.00  0.00    +0.000 C 
ENDROOT
BRANCH   1   2
ATOM      2  C   UNL     1       3.927   2.642  19.914  0.00  0.00    +0.000 C 
ATOM      3  C   UNL     1       2.827   2.934  18.890  0.00  0.00    +0.000 C 
ATOM      4  C   UNL     1       2.038   4.279  19.167  0.00  0.00    +0.000 C 
ATOM      5  C   UNL     1       2.375   5.026  20.476  0.00  0.00    +0.000 C 
ATOM      6  C   UNL     1       2.236   3.923  21.510  0.00  0.00    +0.000 C 
ATOM      7  C   UNL     1       0.951   3.238  21.002  0.00  0.00    +0.000 C 
ATOM      8  C   UNL     1       0.653   3.721  19.555  0.00  0.00    +0.000 C 
ATOM      9  C   UNL     1       0.471   2.436  18.773  0.00  0.00    +0.000 C 
ATOM     10  C   UNL     1       1.778   1.841  19.237  0.00  0.00    +0.000 C 
ATOM     11  C   UNL     1       1.742   1.938  20.776  0.00  0.00    +0.000 C 
ATOM     12  C   UNL     1       3.077   2.634  21.206  0.00  0.00    +0.000 C 
BRANCH   2  13
ATOM     13  O   UNL     1       4.425   1.311  19.714  0.00  0.00    +0.000 OA
ATOM     14  H   UNL     1       4.348   0.818  20.559  0.00  0.00    +0.000 HD
ENDBRANCH   2  13
ENDBRANCH   1   2
BRANCH   1  17
ATOM     15  C   UNL     1       5.429   4.949  17.763  0.00  0.00    +0.000 C 
ATOM     16  O   UNL     1       4.779   5.885  18.217  0.00  0.00    +0.000 OA
ATOM     17  N   UNL     1       5.588   3.768  18.460  0.00  0.00    +0.000 N 
ATOM     18  H   UNL     1       6.229   3.079  18.102  0.00  0.00    +0.000 HD
BRANCH  15  24
ATOM     19  C   UNL     1       7.663   7.082  16.856  0.00  0.00    +0.000 C 
ATOM     20  C   UNL     1       7.063   5.933  16.129  0.00  0.00    +0.000 A 
ATOM     21  O   UNL     1       7.523   5.725  14.872  0.00  0.00    +0.000 OA
ATOM     22  C   UNL     1       6.868   4.639  14.377  0.00  0.00    +0.000 A 
ATOM     23  C   UNL     1       5.969   4.170  15.308  0.00  0.00    +0.000 A 
ATOM     24  C   UNL     1       6.100   5.002  16.471  0.00  0.00    +0.000 A 
BRANCH  22  25
ATOM     25  C   UNL     1       7.255   4.188  13.006  0.00  0.00    +0.000 C 
ATOM     26  C   UNL     1       6.095   3.466  12.315  0.00  0.00    +0.000 C 
ATOM     27  C   UNL     1       7.740   5.369  12.168  0.00  0.00    +0.000 C 
ENDBRANCH  22  25
ENDBRANCH  15  24
ENDBRANCH   1  17
TORSDOF 5
ENDMDL
MODEL 8
REMARK VINA RESULT:      -8.2      1.460      2.241
REMARK  Name = 
REMARK  8 active torsions:
REMARK  status: ('A' for Active; 'I' for Inactive)
REMARK    1  A    between atoms: C_1  and  C_2
REMARK    2  A    between atoms: C_4  and  C_5
REMARK    3  A    between atoms: C_5  and  C_6
REMARK    4  A    between atoms: C_5  and  C_7
REMARK    5  A    between atoms: C_9  and  C_10
REMARK    6  A    between atoms: N_12  and  C_13
REMARK    7  A    between atoms: C_13  and  C_14
REMARK    8  A    between atoms: C_14  and  O_15
REMARK                            x       y       z     vdW  Elec       q    Type
REMARK                         _______ _______ _______ _____ _____    ______ ____
ROOT
ATOM      1  C   UNL     1       4.966   4.305  19.622  0.00  0.00    +0.000 C 
ENDROOT
BRANCH   1   2
ATOM      2  C   UNL     1       3.972   3.175  19.946  0.00  0.00    +0.000 C 
ATOM      3  C   UNL     1       2.890   2.999  18.876  0.00  0.00    +0.000 C 
ATOM      4  C   UNL     1       1.865   4.203  18.801  0.00  0.00    +0.000 C 
ATOM      5  C   UNL     1       1.998   5.299  19.880  0.00  0.00    +0.000 C 
ATOM      6  C   UNL     1       2.003   4.480  21.159  0.00  0.00    +0.000 C 
ATOM      7  C   UNL     1       0.886   3.468  20.834  0.00  0.00    +0.000 C 
ATOM      8  C   UNL     1       0.581   3.515  19.310  0.00  0.00    +0.000 C 
ATOM      9  C   UNL     1       0.667   2.065  18.878  0.00  0.00    +0.000 C 
ATOM     10  C   UNL     1       2.033   1.853  19.484  0.00  0.00    +0.000 C 
ATOM     11  C   UNL     1       1.903   2.319  20.947  0.00  0.00    +0.000 C 
ATOM     12  C   UNL     1       3.072   3.332  21.194  0.00  0.00    +0.000 C 
BRANCH   2  13
ATOM     13  O   UNL     1       4.705   1.949  20.091  0.00  0.00    +0.000 OA
ATOM     14  H   UNL     1       4.939   1.835  21.036  0.00  0.00    +0.000 HD
ENDBRANCH   2  13
ENDBRANCH   1   2
BRANCH   1  17
ATOM     15  C   UNL     1       6.309   4.480  17.549  0.00  0.00    +0.000 C 
ATOM     16  O   UNL     1       7.358   4.387  18.177  0.00  0.00    +0.000 OA
ATOM     17  N   UNL     1       5.084   4.516  18.184  0.00  0.00    +0.000 N 
ATOM     18  H   UNL     1       4.248   4.469  17.623  0.00  0.00    +0.000 HD
BRANCH  15  24
ATOM     19  C   UNL     1       5.184   6.924  15.782  0.00  0.00    +0.000 C 
ATOM     20  C   UNL     1       5.773   5.620  15.377  0.00  0.00    +0.000 A 
ATOM     21  O   UNL     1       5.868   5.405  14.043  0.00  0.00    +0.000 OA
ATOM     22  C   UNL     1       6.431   4.178  13.871  0.00  0.00    +0.000 A 
ATOM     23  C   UNL     1       6.669   3.597  15.096  0.00  0.00    +0.000 A 
ATOM     24  C   UNL     1       6.257   4.542  16.094  0.00  0.00    +0.000 A 
BRANCH  22  25
ATOM     25  C   UNL     1       6.682   3.744  12.463  0.00  0.00    +0.000 C 
ATOM     26  C   UNL     1       5.398   3.229  11.807  0.00  0.00    +0.000 C 
ATOM     27  C   UNL     1       7.293   4.883  11.650  0.00  0.00    +0.000 C 
ENDBRANCH  22  25
ENDBRANCH  15  24
ENDBRANCH   1  17
TORSDOF 5
ENDMDL
MODEL 9
REMARK VINA RESULT:      -8.1      4.360      8.134
REMARK  Name = 
REMARK  8 active torsions:
REMARK  status: ('A' for Active; 'I' for Inactive)
REMARK    1  A    between atoms: C_1  and  C_2
REMARK    2  A    between atoms: C_4  and  C_5
REMARK    3  A    between atoms: C_5  and  C_6
REMARK    4  A    between atoms: C_5  and  C_7
REMARK    5  A    between atoms: C_9  and  C_10
REMARK    6  A    between atoms: N_12  and  C_13
REMARK    7  A    between atoms: C_13  and  C_14
REMARK    8  A    between atoms: C_14  and  O_15
REMARK                            x       y       z     vdW  Elec       q    Type
REMARK                         _______ _______ _______ _____ _____    ______ ____
ROOT
ATOM      1  C   UNL     1       3.079   6.525  18.223  0.00  0.00    +0.000 C 
ENDROOT
BRANCH   1   2
ATOM      2  C   UNL     1       3.473   5.301  19.070  0.00  0.00    +0.000 C 
ATOM      3  C   UNL     1       3.825   4.073  18.228  0.00  0.00    +0.000 C 
ATOM      4  C   UNL     1       2.587   3.445  17.466  0.00  0.00    +0.000 C 
ATOM      5  C   UNL     1       1.200   4.049  17.777  0.00  0.00    +0.000 C 
ATOM      6  C   UNL     1       1.170   3.999  19.294  0.00  0.00    +0.000 C 
ATOM      7  C   UNL     1       1.773   2.600  19.529  0.00  0.00    +0.000 C 
ATOM      8  C   UNL     1       2.441   2.104  18.216  0.00  0.00    +0.000 C 
ATOM      9  C   UNL     1       3.836   1.699  18.648  0.00  0.00    +0.000 C 
ATOM     10  C   UNL     1       4.126   3.015  19.327  0.00  0.00    +0.000 C 
ATOM     11  C   UNL     1       2.945   3.241  20.292  0.00  0.00    +0.000 C 
ATOM     12  C   UNL     1       2.399   4.678  19.994  0.00  0.00    +0.000 C 
BRANCH   2  13
ATOM     13  O   UNL     1       4.597   5.656  19.890  0.00  0.00    +0.000 OA
ATOM     14  H   UNL     1       4.894   6.557  19.640  0.00  0.00    +0.000 HD
ENDBRANCH   2  13
ENDBRANCH   1   2
BRANCH   1  17
ATOM     15  C   UNL     1       1.888   8.683  18.453  0.00  0.00    +0.000 C 
ATOM     16  O   UNL     1       2.222   9.031  17.326  0.00  0.00    +0.000 OA
ATOM     17  N   UNL     1       2.319   7.493  19.005  0.00  0.00    +0.000 N 
ATOM     18  H   UNL     1       1.920   7.194  19.880  0.00  0.00    +0.000 HD
BRANCH  15  24
ATOM     19  C   UNL     1      -0.927   9.980  17.582  0.00  0.00    +0.000 C 
ATOM     20  C   UNL     1      -0.206  10.003  18.882  0.00  0.00    +0.000 A 
ATOM     21  O   UNL     1      -0.821  10.672  19.887  0.00  0.00    +0.000 OA
ATOM     22  C   UNL     1      -0.021  10.577  20.984  0.00  0.00    +0.000 A 
ATOM     23  C   UNL     1       1.119   9.871  20.673  0.00  0.00    +0.000 A 
ATOM     24  C   UNL     1       1.002   9.473  19.298  0.00  0.00    +0.000 A 
BRANCH  22  25
ATOM     25  C   UNL     1      -0.527  11.206  22.242  0.00  0.00    +0.000 C 
ATOM     26  C   UNL     1      -1.763  12.068  21.970  0.00  0.00    +0.000 C 
ATOM     27  C   UNL     1      -0.825  10.140  23.294  0.00  0.00    +0.000 C 
ENDBRANCH  22  25
ENDBRANCH  15  24
ENDBRANCH   1  17
TORSDOF 5
ENDMDL
