MODEL 1
REMARK VINA RESULT:      -8.7      0.000      0.000
REMARK  Name = 
REMARK  4 active torsions:
REMARK  status: ('A' for Active; 'I' for Inactive)
REMARK    1  A    between atoms: C_2  and  C_12
REMARK    2  A    between atoms: N_3  and  C_4
REMARK    3  A    between atoms: C_4  and  C_5
REMARK    4  A    between atoms: C_12  and  C_13
REMARK                            x       y       z     vdW  Elec       q    Type
REMARK                         _______ _______ _______ _____ _____    ______ ____
ROOT
ATOM      1  C   UNL     1       6.312   5.547  16.653  0.00  0.00    +0.000 C 
ATOM      2  C   UNL     1       7.017   6.777  17.284  0.00  0.00    +0.000 C 
ATOM      3  C   UNL     1       7.717   6.274  18.545  0.00  0.00    +0.000 C 
ATOM      4  C   UNL     1       7.871   4.769  18.367  0.00  0.00    +0.000 C 
ATOM      5  C   UNL     1       7.410   4.486  16.944  0.00  0.00    +0.000 C 
ENDROOT
BRANCH   1   6
ATOM      6  C   UNL     1       4.937   5.225  17.270  0.00  0.00    +0.000 A 
ATOM      7  C   UNL     1       4.092   6.237  17.771  0.00  0.00    +0.000 A 
ATOM      8  C   UNL     1       2.863   5.932  18.371  0.00  0.00    +0.000 A 
ATOM      9  C   UNL     1       2.463   4.613  18.508  0.00  0.00    +0.000 A 
ATOM     10  C   UNL     1       3.278   3.592  18.024  0.00  0.00    +0.000 A 
ATOM     11  C   UNL     1       4.508   3.897  17.431  0.00  0.00    +0.000 A 
ATOM     12  O   UNL     1       2.956   2.262  18.107  0.00  0.00    +0.000 OA
ATOM     13  C   UNL     1       1.571   2.080  18.423  0.00  0.00    +0.000 C 
ATOM     14  C   UNL     1       1.148   3.015  19.544  0.00  0.00    +0.000 C 
ATOM     15  O   UNL     1       1.264   4.382  19.134  0.00  0.00    +0.000 OA
ENDBRANCH   1   6
BRANCH   1  17
ATOM     16  O   UNL     1       5.294   6.398  14.613  0.00  0.00    +0.000 OA
ATOM     17  C   UNL     1       6.155   5.678  15.117  0.00  0.00    +0.000 C 
ATOM     18  N   UNL     1       7.087   5.007  14.356  0.00  0.00    +0.000 N 
ATOM     19  H   UNL     1       7.751   4.386  14.796  0.00  0.00    +0.000 HD
BRANCH  18  20
ATOM     20  C   UNL     1       7.105   5.076  12.909  0.00  0.00    +0.000 C 
BRANCH  20  21
ATOM     21  C   UNL     1       6.788   3.746  12.281  0.00  0.00    +0.000 A 
ATOM     22  C   UNL     1       7.796   2.976  11.683  0.00  0.00    +0.000 A 
ATOM     23  C   UNL     1       7.488   1.769  11.049  0.00  0.00    +0.000 A 
ATOM     24  C   UNL     1       6.170   1.318  11.000  0.00  0.00    +0.000 A 
ATOM     25  C   UNL     1       5.159   2.073  11.592  0.00  0.00    +0.000 A 
ATOM     26  C   UNL     1       5.472   3.276  12.221  0.00  0.00    +0.000 A 
ATOM     27  F   UNL     1       4.481   3.989  12.773  0.00  0.00    +0.000 F 
ENDBRANCH  20  21
ENDBRANCH  18  20
ENDBRANCH   1  17
TORSDOF 4
ENDMDL
MODEL 2
REMARK VINA RESULT:      -8.5      4.168      6.347
REMARK  Name = 
REMARK  4 active torsions:
REMARK  status: ('A' for Active; 'I' for Inactive)
REMARK    1  A    between atoms: C_2  and  C_12
REMARK    2  A    between atoms: N_3  and  C_4
REMARK    3  A    between atoms: C_4  and  C_5
REMARK    4  A    between atoms: C_12  and  C_13
REMARK                            x       y       z     vdW  Elec       q    Type
REMARK                         _______ _______ _______ _____ _____    ______ ____
ROOT
ATOM      1  C   UNL     1       2.694   4.098  18.943  0.00  0.00    +0.000 C 
ATOM      2  C   UNL     1       2.749   3.175  20.191  0.00  0.00    +0.000 C 
ATOM      3  C   UNL     1       1.310   2.751  20.477  0.00  0.00    +0.000 C 
ATOM      4  C   UNL     1       0.544   2.957  19.177  0.00  0.00    +0.000 C 
ATOM      5  C   UNL     1       1.601   3.331  18.147  0.00  0.00    +0.000 C 
ENDROOT
BRANCH   1   6
ATOM      6  C   UNL     1       2.339   5.564  19.261  0.00  0.00    +0.000 A 
ATOM      7  C   UNL     1       1.883   5.959  20.535  0.00  0.00    +0.000 A 
ATOM      8  C   UNL     1       1.520   7.286  20.802  0.00  0.00    +0.000 A 
ATOM      9  C   UNL     1       1.580   8.240  19.800  0.00  0.00    +0.000 A 
ATOM     10  C   UNL     1       2.025   7.878  18.530  0.00  0.00    +0.000 A 
ATOM     11  C   UNL     1       2.380   6.552  18.262  0.00  0.00    +0.000 A 
ATOM     12  O   UNL     1       2.125   8.758  17.483  0.00  0.00    +0.000 OA
ATOM     13  C   UNL     1       2.054  10.115  17.934  0.00  0.00    +0.000 C 
ATOM     14  C   UNL     1       0.929  10.289  18.942  0.00  0.00    +0.000 C 
ATOM     15  O   UNL     1       1.179   9.512  20.119  0.00  0.00    +0.000 OA
ENDBRANCH   1   6
BRANCH   1  17
ATOM     16  O   UNL     1       4.011   3.844  16.914  0.00  0.00    +0.000 OA
ATOM     17  C   UNL     1       4.008   4.065  18.124  0.00  0.00    +0.000 C 
ATOM     18  N   UNL     1       5.158   4.379  18.814  0.00  0.00    +0.000 N 
ATOM     19  H   UNL     1       5.130   4.509  19.815  0.00  0.00    +0.000 HD
BRANCH  18  20
ATOM     20  C   UNL     1       6.456   4.445  18.175  0.00  0.00    +0.000 C 
BRANCH  20  21
ATOM     21  C   UNL     1       6.970   5.856  18.094  0.00  0.00    +0.000 A 
ATOM     22  C   UNL     1       6.472   6.747  17.131  0.00  0.00    +0.000 A 
ATOM     23  C   UNL     1       6.994   8.039  17.020  0.00  0.00    +0.000 A 
ATOM     24  C   UNL     1       8.020   8.457  17.866  0.00  0.00    +0.000 A 
ATOM     25  C   UNL     1       8.521   7.583  18.828  0.00  0.00    +0.000 A 
ATOM     26  C   UNL     1       7.999   6.296  18.933  0.00  0.00    +0.000 A 
ATOM     27  F   UNL     1       8.506   5.471  19.859  0.00  0.00    +0.000 F 
ENDBRANCH  20  21
ENDBRANCH  18  20
ENDBRANCH   1  17
TORSDOF 4
ENDMDL
MODEL 3
REMARK VINA RESULT:      -8.5      3.771      6.038
REMARK  Name = 
REMARK  4 active torsions:
REMARK  status: ('A' for Active; 'I' for Inactive)
REMARK    1  A    between atoms: C_2  and  C_12
REMARK    2  A    between atoms: N_3  and  C_4
REMARK    3  A    between atoms: C_4  and  C_5
REMARK    4  A    between atoms: C_12  and  C_13
REMARK                            x       y       z     vdW  Elec       q    Type
REMARK                         _______ _______ _______ _____ _____    ______ ____
ROOT
ATOM      1  C   UNL     1       2.827   3.977  18.799  0.00  0.00    +0.000 C 
ATOM      2  C   UNL     1       2.955   3.038  20.028  0.00  0.00    +0.000 C 
ATOM      3  C   UNL     1       1.538   2.583  20.373  0.00  0.00    +0.000 C 
ATOM      4  C   UNL     1       0.711   2.794  19.112  0.00  0.00    +0.000 C 
ATOM      5  C   UNL     1       1.714   3.201  18.041  0.00  0.00    +0.000 C 
ENDROOT
BRANCH   1   6
ATOM      6  C   UNL     1       2.461   5.432  19.153  0.00  0.00    +0.000 A 
ATOM      7  C   UNL     1       2.040   5.797  20.448  0.00  0.00    +0.000 A 
ATOM      8  C   UNL     1       1.666   7.114  20.750  0.00  0.00    +0.000 A 
ATOM      9  C   UNL     1       1.680   8.086  19.764  0.00  0.00    +0.000 A 
ATOM     10  C   UNL     1       2.090   7.753  18.474  0.00  0.00    +0.000 A 
ATOM     11  C   UNL     1       2.457   6.437  18.171  0.00  0.00    +0.000 A 
ATOM     12  O   UNL     1       2.145   8.652  17.441  0.00  0.00    +0.000 OA
ATOM     13  C   UNL     1       2.068  10.000  17.918  0.00  0.00    +0.000 C 
ATOM     14  C   UNL     1       0.973  10.139  18.963  0.00  0.00    +0.000 C 
ATOM     15  O   UNL     1       1.271   9.346  20.118  0.00  0.00    +0.000 OA
ENDBRANCH   1   6
BRANCH   1  17
ATOM     16  O   UNL     1       4.046   3.907  16.694  0.00  0.00    +0.000 OA
ATOM     17  C   UNL     1       4.104   3.980  17.921  0.00  0.00    +0.000 C 
ATOM     18  N   UNL     1       5.296   4.152  18.589  0.00  0.00    +0.000 N 
ATOM     19  H   UNL     1       5.316   4.160  19.599  0.00  0.00    +0.000 HD
BRANCH  18  20
ATOM     20  C   UNL     1       6.569   4.231  17.903  0.00  0.00    +0.000 C 
BRANCH  20  21
ATOM     21  C   UNL     1       7.130   5.626  17.924  0.00  0.00    +0.000 A 
ATOM     22  C   UNL     1       7.984   6.041  18.956  0.00  0.00    +0.000 A 
ATOM     23  C   UNL     1       8.456   7.356  19.004  0.00  0.00    +0.000 A 
ATOM     24  C   UNL     1       8.078   8.274  18.025  0.00  0.00    +0.000 A 
ATOM     25  C   UNL     1       7.231   7.874  16.993  0.00  0.00    +0.000 A 
ATOM     26  C   UNL     1       6.763   6.562  16.951  0.00  0.00    +0.000 A 
ATOM     27  F   UNL     1       5.942   6.205  15.955  0.00  0.00    +0.000 F 
ENDBRANCH  20  21
ENDBRANCH  18  20
ENDBRANCH   1  17
TORSDOF 4
ENDMDL
MODEL 4
REMARK VINA RESULT:      -8.4      2.488      4.365
REMARK  Name = 
REMARK  4 active torsions:
REMARK  status: ('A' for Active; 'I' for Inactive)
REMARK    1  A    between atoms: C_2  and  C_12
REMARK    2  A    between atoms: N_3  and  C_4
REMARK    3  A    between atoms: C_4  and  C_5
REMARK    4  A    between atoms: C_12  and  C_13
REMARK                            x       y       z     vdW  Elec       q    Type
REMARK                         _______ _______ _______ _____ _____    ______ ____
ROOT
ATOM      1  C   UNL     1       3.795   4.146  18.372  0.00  0.00    +0.000 C 
ATOM      2  C   UNL     1       3.796   3.033  19.455  0.00  0.00    +0.000 C 
ATOM      3  C   UNL     1       2.418   2.376  19.399  0.00  0.00    +0.000 C 
ATOM      4  C   UNL     1       1.851   2.704  18.023  0.00  0.00    +0.000 C 
ATOM      5  C   UNL     1       2.988   3.392  17.278  0.00  0.00    +0.000 C 
ENDROOT
BRANCH   1   6
ATOM      6  C   UNL     1       3.159   5.472  18.833  0.00  0.00    +0.000 A 
ATOM      7  C   UNL     1       2.655   5.640  20.138  0.00  0.00    +0.000 A 
ATOM      8  C   UNL     1       2.037   6.834  20.535  0.00  0.00    +0.000 A 
ATOM      9  C   UNL     1       1.887   7.874  19.633  0.00  0.00    +0.000 A 
ATOM     10  C   UNL     1       2.373   7.735  18.335  0.00  0.00    +0.000 A 
ATOM     11  C   UNL     1       2.983   6.540  17.937  0.00  0.00    +0.000 A 
ATOM     12  O   UNL     1       2.277   8.715  17.381  0.00  0.00    +0.000 OA
ATOM     13  C   UNL     1       1.943   9.980  17.964  0.00  0.00    +0.000 C 
ATOM     14  C   UNL     1       0.824   9.823  18.981  0.00  0.00    +0.000 C 
ATOM     15  O   UNL     1       1.245   9.002  20.076  0.00  0.00    +0.000 OA
ENDBRANCH   1   6
BRANCH   1  17
ATOM     16  O   UNL     1       6.200   4.465  18.553  0.00  0.00    +0.000 OA
ATOM     17  C   UNL     1       5.214   4.434  17.819  0.00  0.00    +0.000 C 
ATOM     18  N   UNL     1       5.312   4.571  16.452  0.00  0.00    +0.000 N 
ATOM     19  H   UNL     1       4.479   4.589  15.882  0.00  0.00    +0.000 HD
BRANCH  18  20
ATOM     20  C   UNL     1       6.577   4.789  15.781  0.00  0.00    +0.000 C 
BRANCH  20  21
ATOM     21  C   UNL     1       6.501   4.446  14.318  0.00  0.00    +0.000 A 
ATOM     22  C   UNL     1       5.486   3.610  13.829  0.00  0.00    +0.000 A 
ATOM     23  C   UNL     1       5.452   3.246  12.480  0.00  0.00    +0.000 A 
ATOM     24  C   UNL     1       6.433   3.708  11.603  0.00  0.00    +0.000 A 
ATOM     25  C   UNL     1       7.446   4.540  12.076  0.00  0.00    +0.000 A 
ATOM     26  C   UNL     1       7.474   4.899  13.423  0.00  0.00    +0.000 A 
ATOM     27  F   UNL     1       8.465   5.691  13.854  0.00  0.00    +0.000 F 
ENDBRANCH  20  21
ENDBRANCH  18  20
ENDBRANCH   1  17
TORSDOF 4
ENDMDL
MODEL 5
REMARK VINA RESULT:      -8.2      3.062      5.740
REMARK  Name = 
REMARK  4 active torsions:
REMARK  status: ('A' for Active; 'I' for Inactive)
REMARK    1  A    between atoms: C_2  and  C_12
REMARK    2  A    between atoms: N_3  and  C_4
REMARK    3  A    between atoms: C_4  and  C_5
REMARK    4  A    between atoms: C_12  and  C_13
REMARK                            x       y       z     vdW  Elec       q    Type
REMARK                         _______ _______ _______ _____ _____    ______ ____
ROOT
ATOM      1  C   UNL     1       2.726   4.329  19.834  0.00  0.00    +0.000 C 
ATOM      2  C   UNL     1       2.544   3.556  21.168  0.00  0.00    +0.000 C 
ATOM      3  C   UNL     1       1.085   3.106  21.210  0.00  0.00    +0.000 C 
ATOM      4  C   UNL     1       0.596   3.132  19.767  0.00  0.00    +0.000 C 
ATOM      5  C   UNL     1       1.834   3.432  18.932  0.00  0.00    +0.000 C 
ENDROOT
BRANCH   1   6
ATOM      6  C   UNL     1       2.287   5.805  19.898  0.00  0.00    +0.000 A 
ATOM      7  C   UNL     1       1.684   6.352  21.048  0.00  0.00    +0.000 A 
ATOM      8  C   UNL     1       1.247   7.683  21.081  0.00  0.00    +0.000 A 
ATOM      9  C   UNL     1       1.378   8.488  19.962  0.00  0.00    +0.000 A 
ATOM     10  C   UNL     1       1.969   7.973  18.810  0.00  0.00    +0.000 A 
ATOM     11  C   UNL     1       2.399   6.643  18.775  0.00  0.00    +0.000 A 
ATOM     12  O   UNL     1       2.149   8.701  17.662  0.00  0.00    +0.000 OA
ATOM     13  C   UNL     1       1.981  10.103  17.901  0.00  0.00    +0.000 C 
ATOM     14  C   UNL     1       0.749  10.359  18.754  0.00  0.00    +0.000 C 
ATOM     15  O   UNL     1       0.900   9.771  20.051  0.00  0.00    +0.000 OA
ENDBRANCH   1   6
BRANCH   1  17
ATOM     16  O   UNL     1       4.622   3.252  18.754  0.00  0.00    +0.000 OA
ATOM     17  C   UNL     1       4.181   4.260  19.304  0.00  0.00    +0.000 C 
ATOM     18  N   UNL     1       4.918   5.418  19.411  0.00  0.00    +0.000 N 
ATOM     19  H   UNL     1       4.546   6.213  19.910  0.00  0.00    +0.000 HD
BRANCH  18  20
ATOM     20  C   UNL     1       6.273   5.528  18.912  0.00  0.00    +0.000 C 
BRANCH  20  21
ATOM     21  C   UNL     1       6.326   5.439  17.411  0.00  0.00    +0.000 A 
ATOM     22  C   UNL     1       5.352   6.068  16.621  0.00  0.00    +0.000 A 
ATOM     23  C   UNL     1       5.370   5.934  15.229  0.00  0.00    +0.000 A 
ATOM     24  C   UNL     1       6.357   5.167  14.611  0.00  0.00    +0.000 A 
ATOM     25  C   UNL     1       7.330   4.539  15.384  0.00  0.00    +0.000 A 
ATOM     26  C   UNL     1       7.307   4.675  16.771  0.00  0.00    +0.000 A 
ATOM     27  F   UNL     1       8.247   4.052  17.493  0.00  0.00    +0.000 F 
ENDBRANCH  20  21
ENDBRANCH  18  20
ENDBRANCH   1  17
TORSDOF 4
ENDMDL
MODEL 6
REMARK VINA RESULT:      -8.2      0.834      1.432
REMARK  Name = 
REMARK  4 active torsions:
REMARK  status: ('A' for Active; 'I' for Inactive)
REMARK    1  A    between atoms: C_2  and  C_12
REMARK    2  A    between atoms: N_3  and  C_4
REMARK    3  A    between atoms: C_4  and  C_5
REMARK    4  A    between atoms: C_12  and  C_13
REMARK                            x       y       z     vdW  Elec       q    Type
REMARK                         _______ _______ _______ _____ _____    ______ ____
ROOT
ATOM      1  C   UNL     1       6.375   5.352  16.826  0.00  0.00    +0.000 C 
ATOM      2  C   UNL     1       6.852   6.647  17.538  0.00  0.00    +0.000 C 
ATOM      3  C   UNL     1       7.669   6.197  18.749  0.00  0.00    +0.000 C 
ATOM      4  C   UNL     1       8.100   4.766  18.456  0.00  0.00    +0.000 C 
ATOM      5  C   UNL     1       7.662   4.503  17.022  0.00  0.00    +0.000 C 
ENDROOT
BRANCH   1   6
ATOM      6  C   UNL     1       5.103   4.731  17.436  0.00  0.00    +0.000 A 
ATOM      7  C   UNL     1       4.418   3.673  16.806  0.00  0.00    +0.000 A 
ATOM      8  C   UNL     1       3.237   3.144  17.345  0.00  0.00    +0.000 A 
ATOM      9  C   UNL     1       2.702   3.675  18.507  0.00  0.00    +0.000 A 
ATOM     10  C   UNL     1       3.358   4.723  19.150  0.00  0.00    +0.000 A 
ATOM     11  C   UNL     1       4.532   5.255  18.609  0.00  0.00    +0.000 A 
ATOM     12  O   UNL     1       2.906   5.301  20.309  0.00  0.00    +0.000 OA
ATOM     13  C   UNL     1       1.906   4.492  20.940  0.00  0.00    +0.000 C 
ATOM     14  C   UNL     1       0.897   3.991  19.920  0.00  0.00    +0.000 C 
ATOM     15  O   UNL     1       1.527   3.133  18.962  0.00  0.00    +0.000 OA
ENDBRANCH   1   6
BRANCH   1  17
ATOM     16  O   UNL     1       5.266   6.295  14.877  0.00  0.00    +0.000 OA
ATOM     17  C   UNL     1       6.154   5.560  15.307  0.00  0.00    +0.000 C 
ATOM     18  N   UNL     1       7.060   4.940  14.475  0.00  0.00    +0.000 N 
ATOM     19  H   UNL     1       7.747   4.305  14.855  0.00  0.00    +0.000 HD
BRANCH  18  20
ATOM     20  C   UNL     1       7.018   5.083  13.034  0.00  0.00    +0.000 C 
BRANCH  20  21
ATOM     21  C   UNL     1       6.741   3.773  12.349  0.00  0.00    +0.000 A 
ATOM     22  C   UNL     1       7.773   3.055  11.727  0.00  0.00    +0.000 A 
ATOM     23  C   UNL     1       7.502   1.868  11.041  0.00  0.00    +0.000 A 
ATOM     24  C   UNL     1       6.197   1.384  10.964  0.00  0.00    +0.000 A 
ATOM     25  C   UNL     1       5.162   2.087  11.579  0.00  0.00    +0.000 A 
ATOM     26  C   UNL     1       5.439   3.270  12.260  0.00  0.00    +0.000 A 
ATOM     27  F   UNL     1       4.425   3.932  12.834  0.00  0.00    +0.000 F 
ENDBRANCH  20  21
ENDBRANCH  18  20
ENDBRANCH   1  17
TORSDOF 4
ENDMDL
MODEL 7
REMARK VINA RESULT:      -8.1      3.706      6.152
REMARK  Name = 
REMARK  4 active torsions:
REMARK  status: ('A' for Active; 'I' for Inactive)
REMARK    1  A    between atoms: C_2  and  C_12
REMARK    2  A    between atoms: N_3  and  C_4
REMARK    3  A    between atoms: C_4  and  C_5
REMARK    4  A    between atoms: C_12  and  C_13
REMARK                            x       y       z     vdW  Elec       q    Type
REMARK                         _______ _______ _______ _____ _____    ______ ____
ROOT
ATOM      1  C   UNL     1       2.770   4.106  19.361  0.00  0.00    +0.000 C 
ATOM      2  C   UNL     1       2.436   3.364  20.682  0.00  0.00    +0.000 C 
ATOM      3  C   UNL     1       0.982   2.912  20.568  0.00  0.00    +0.000 C 
ATOM      4  C   UNL     1       0.660   2.904  19.079  0.00  0.00    +0.000 C 
ATOM      5  C   UNL     1       1.985   3.186  18.384  0.00  0.00    +0.000 C 
ENDROOT
BRANCH   1   6
ATOM      6  C   UNL     1       2.328   5.582  19.339  0.00  0.00    +0.000 A 
ATOM      7  C   UNL     1       2.446   6.377  18.181  0.00  0.00    +0.000 A 
ATOM      8  C   UNL     1       2.083   7.730  18.183  0.00  0.00    +0.000 A 
ATOM      9  C   UNL     1       1.620   8.326  19.345  0.00  0.00    +0.000 A 
ATOM     10  C   UNL     1       1.496   7.565  20.505  0.00  0.00    +0.000 A 
ATOM     11  C   UNL     1       1.864   6.216  20.505  0.00  0.00    +0.000 A 
ATOM     12  O   UNL     1       1.037   8.070  21.695  0.00  0.00    +0.000 OA
ATOM     13  C   UNL     1       0.395   9.337  21.512  0.00  0.00    +0.000 C 
ATOM     14  C   UNL     1       1.218  10.229  20.598  0.00  0.00    +0.000 C 
ATOM     15  O   UNL     1       1.314   9.661  19.286  0.00  0.00    +0.000 OA
ENDBRANCH   1   6
BRANCH   1  17
ATOM     16  O   UNL     1       5.107   3.585  19.792  0.00  0.00    +0.000 OA
ATOM     17  C   UNL     1       4.276   4.027  19.001  0.00  0.00    +0.000 C 
ATOM     18  N   UNL     1       4.610   4.402  17.719  0.00  0.00    +0.000 N 
ATOM     19  H   UNL     1       3.914   4.806  17.109  0.00  0.00    +0.000 HD
BRANCH  18  20
ATOM     20  C   UNL     1       5.967   4.332  17.216  0.00  0.00    +0.000 C 
BRANCH  20  21
ATOM     21  C   UNL     1       6.755   5.566  17.559  0.00  0.00    +0.000 A 
ATOM     22  C   UNL     1       7.701   5.549  18.596  0.00  0.00    +0.000 A 
ATOM     23  C   UNL     1       8.389   6.713  18.950  0.00  0.00    +0.000 A 
ATOM     24  C   UNL     1       8.139   7.909  18.279  0.00  0.00    +0.000 A 
ATOM     25  C   UNL     1       7.203   7.939  17.247  0.00  0.00    +0.000 A 
ATOM     26  C   UNL     1       6.519   6.776  16.898  0.00  0.00    +0.000 A 
ATOM     27  F   UNL     1       5.617   6.833  15.910  0.00  0.00    +0.000 F 
ENDBRANCH  20  21
ENDBRANCH  18  20
ENDBRANCH   1  17
TORSDOF 4
ENDMDL
MODEL 8
REMARK VINA RESULT:      -8.1      2.771      4.463
REMARK  Name = 
REMARK  4 active torsions:
REMARK  status: ('A' for Active; 'I' for Inactive)
REMARK    1  A    between atoms: C_2  and  C_12
REMARK    2  A    between atoms: N_3  and  C_4
REMARK    3  A    between atoms: C_4  and  C_5
REMARK    4  A    between atoms: C_12  and  C_13
REMARK                            x       y       z     vdW  Elec       q    Type
REMARK                         _______ _______ _______ _____ _____    ______ ____
ROOT
ATOM      1  C   UNL     1       3.605   5.098  18.292  0.00  0.00    +0.000 C 
ATOM      2  C   UNL     1       3.705   4.129  19.500  0.00  0.00    +0.000 C 
ATOM      3  C   UNL     1       2.388   3.357  19.545  0.00  0.00    +0.000 C 
ATOM      4  C   UNL     1       1.789   3.467  18.149  0.00  0.00    +0.000 C 
ATOM      5  C   UNL     1       2.859   4.152  17.309  0.00  0.00    +0.000 C 
ENDROOT
BRANCH   1   6
ATOM      6  C   UNL     1       2.860   6.412  18.599  0.00  0.00    +0.000 A 
ATOM      7  C   UNL     1       2.727   7.434  17.637  0.00  0.00    +0.000 A 
ATOM      8  C   UNL     1       2.088   8.643  17.939  0.00  0.00    +0.000 A 
ATOM      9  C   UNL     1       1.591   8.871  19.212  0.00  0.00    +0.000 A 
ATOM     10  C   UNL     1       1.710   7.879  20.184  0.00  0.00    +0.000 A 
ATOM     11  C   UNL     1       2.355   6.674  19.884  0.00  0.00    +0.000 A 
ATOM     12  O   UNL     1       1.238   8.014  21.464  0.00  0.00    +0.000 OA
ATOM     13  C   UNL     1       0.332   9.118  21.573  0.00  0.00    +0.000 C 
ATOM     14  C   UNL     1       0.883  10.339  20.855  0.00  0.00    +0.000 C 
ATOM     15  O   UNL     1       1.006  10.088  19.450  0.00  0.00    +0.000 OA
ENDBRANCH   1   6
BRANCH   1  17
ATOM     16  O   UNL     1       5.890   5.928  18.366  0.00  0.00    +0.000 OA
ATOM     17  C   UNL     1       4.991   5.436  17.687  0.00  0.00    +0.000 C 
ATOM     18  N   UNL     1       5.178   5.075  16.371  0.00  0.00    +0.000 N 
ATOM     19  H   UNL     1       4.407   4.717  15.827  0.00  0.00    +0.000 HD
BRANCH  18  20
ATOM     20  C   UNL     1       6.437   5.274  15.681  0.00  0.00    +0.000 C 
BRANCH  20  21
ATOM     21  C   UNL     1       6.412   4.695  14.293  0.00  0.00    +0.000 A 
ATOM     22  C   UNL     1       5.375   3.839  13.891  0.00  0.00    +0.000 A 
ATOM     23  C   UNL     1       5.387   3.255  12.621  0.00  0.00    +0.000 A 
ATOM     24  C   UNL     1       6.435   3.514  11.739  0.00  0.00    +0.000 A 
ATOM     25  C   UNL     1       7.470   4.363  12.125  0.00  0.00    +0.000 A 
ATOM     26  C   UNL     1       7.453   4.942  13.393  0.00  0.00    +0.000 A 
ATOM     27  F   UNL     1       8.465   5.746  13.745  0.00  0.00    +0.000 F 
ENDBRANCH  20  21
ENDBRANCH  18  20
ENDBRANCH   1  17
TORSDOF 4
ENDMDL
MODEL 9
REMARK VINA RESULT:      -8.1      1.012      1.410
REMARK  Name = 
REMARK  4 active torsions:
REMARK  status: ('A' for Active; 'I' for Inactive)
REMARK    1  A    between atoms: C_2  and  C_12
REMARK    2  A    between atoms: N_3  and  C_4
REMARK    3  A    between atoms: C_4  and  C_5
REMARK    4  A    between atoms: C_12  and  C_13
REMARK                            x       y       z     vdW  Elec       q    Type
REMARK                         _______ _______ _______ _____ _____    ______ ____
ROOT
ATOM      1  C   UNL     1       5.865   5.519  16.761  0.00  0.00    +0.000 C 
ATOM      2  C   UNL     1       6.733   6.708  17.252  0.00  0.00    +0.000 C 
ATOM      3  C   UNL     1       7.660   6.150  18.329  0.00  0.00    +0.000 C 
ATOM      4  C   UNL     1       7.717   4.646  18.096  0.00  0.00    +0.000 C 
ATOM      5  C   UNL     1       6.959   4.415  16.796  0.00  0.00    +0.000 C 
ENDROOT
BRANCH   1   6
ATOM      6  C   UNL     1       4.638   5.227  17.647  0.00  0.00    +0.000 A 
ATOM      7  C   UNL     1       3.909   6.261  18.269  0.00  0.00    +0.000 A 
ATOM      8  C   UNL     1       2.822   5.984  19.109  0.00  0.00    +0.000 A 
ATOM      9  C   UNL     1       2.455   4.674  19.366  0.00  0.00    +0.000 A 
ATOM     10  C   UNL     1       3.159   3.632  18.766  0.00  0.00    +0.000 A 
ATOM     11  C   UNL     1       4.248   3.908  17.933  0.00  0.00    +0.000 A 
ATOM     12  O   UNL     1       2.859   2.308  18.956  0.00  0.00    +0.000 OA
ATOM     13  C   UNL     1       1.563   2.145  19.545  0.00  0.00    +0.000 C 
ATOM     14  C   UNL     1       1.369   3.120  20.694  0.00  0.00    +0.000 C 
ATOM     15  O   UNL     1       1.403   4.473  20.223  0.00  0.00    +0.000 OA
ENDBRANCH   1   6
BRANCH   1  17
ATOM     16  O   UNL     1       5.171   6.804  14.815  0.00  0.00    +0.000 OA
ATOM     17  C   UNL     1       5.395   5.694  15.294  0.00  0.00    +0.000 C 
ATOM     18  N   UNL     1       5.327   4.542  14.541  0.00  0.00    +0.000 N 
ATOM     19  H   UNL     1       5.471   3.642  14.975  0.00  0.00    +0.000 HD
BRANCH  18  20
ATOM     20  C   UNL     1       4.958   4.549  13.140  0.00  0.00    +0.000 C 
BRANCH  20  21
ATOM     21  C   UNL     1       5.760   3.556  12.346  0.00  0.00    +0.000 A 
ATOM     22  C   UNL     1       5.181   2.359  11.899  0.00  0.00    +0.000 A 
ATOM     23  C   UNL     1       5.945   1.411  11.212  0.00  0.00    +0.000 A 
ATOM     24  C   UNL     1       7.297   1.644  10.966  0.00  0.00    +0.000 A 
ATOM     25  C   UNL     1       7.885   2.829  11.404  0.00  0.00    +0.000 A 
ATOM     26  C   UNL     1       7.118   3.770  12.089  0.00  0.00    +0.000 A 
ATOM     27  F   UNL     1       7.709   4.896  12.508  0.00  0.00    +0.000 F 
ENDBRANCH  20  21
ENDBRANCH  18  20
ENDBRANCH   1  17
TORSDOF 4
ENDMDL
