MODEL 1
REMARK VINA RESULT:      -8.7      0.000      0.000
REMARK  Name = 
REMARK  1 active torsions:
REMARK  status: ('A' for Active; 'I' for Inactive)
REMARK    1  A    between atoms: C_2  and  C_3
REMARK                            x       y       z     vdW  Elec       q    Type
REMARK                         _______ _______ _______ _____ _____    ______ ____
ROOT
ATOM      1  O   UNL     1       1.657   6.541  21.073  0.00  0.00    +0.000 OA
ATOM      2  C   UNL     1       1.963   6.666  19.888  0.00  0.00    +0.000 C 
ATOM      3  N   UNL     1       2.280   5.539  19.105  0.00  0.00    +0.000 N 
ATOM      4  C   UNL     1       1.991   4.215  19.648  0.00  0.00    +0.000 C 
ATOM      5  C   UNL     1       3.270   3.432  19.921  0.00  0.00    +0.000 C 
ATOM      6  C   UNL     1       4.117   3.325  18.651  0.00  0.00    +0.000 C 
ATOM      7  C   UNL     1       4.421   4.713  18.070  0.00  0.00    +0.000 C 
ATOM      8  C   UNL     1       3.131   5.552  17.901  0.00  0.00    +0.000 C 
ATOM      9  O   UNL     1       5.289   5.413  19.009  0.00  0.00    +0.000 OA
ATOM     10  C   UNL     1       6.545   5.757  18.393  0.00  0.00    +0.000 C 
ATOM     11  C   UNL     1       6.457   5.239  17.007  0.00  0.00    +0.000 A 
ATOM     12  C   UNL     1       7.410   5.294  16.004  0.00  0.00    +0.000 A 
ATOM     13  C   UNL     1       7.107   4.719  14.769  0.00  0.00    +0.000 A 
ATOM     14  C   UNL     1       5.862   4.108  14.559  0.00  0.00    +0.000 A 
ATOM     15  C   UNL     1       4.909   4.065  15.580  0.00  0.00    +0.000 A 
ATOM     16  C   UNL     1       5.224   4.635  16.807  0.00  0.00    +0.000 A 
ENDROOT
BRANCH   2  17
ATOM     17  C   UNL     1       1.895   7.964  19.226  0.00  0.00    +0.000 A 
ATOM     18  C   UNL     1       2.376   8.332  17.950  0.00  0.00    +0.000 A 
ATOM     19  N   UNL     1       2.133   9.600  17.624  0.00  0.00    +0.000 NA
ATOM     20  N   UNL     1       1.391  10.061  18.653  0.00  0.00    +0.000 N 
ATOM     21  C   UNL     1       0.812  11.322  18.760  0.00  0.00    +0.000 A 
ATOM     22  C   UNL     1       0.057  11.634  19.820  0.00  0.00    +0.000 A 
ATOM     23  C   UNL     1      -0.075  10.552  20.833  0.00  0.00    +0.000 A 
ATOM     24  N   UNL     1       0.473   9.375  20.777  0.00  0.00    +0.000 NA
ATOM     25  C   UNL     1       1.217   9.097  19.658  0.00  0.00    +0.000 A 
ENDBRANCH   2  17
TORSDOF 1
ENDMDL
MODEL 2
REMARK VINA RESULT:      -8.3      6.965     10.154
REMARK  Name = 
REMARK  1 active torsions:
REMARK  status: ('A' for Active; 'I' for Inactive)
REMARK    1  A    between atoms: C_2  and  C_3
REMARK                            x       y       z     vdW  Elec       q    Type
REMARK                         _______ _______ _______ _____ _____    ______ ____
ROOT
ATOM      1  O   UNL     1      -5.152  15.241  22.129  0.00  0.00    +0.000 OA
ATOM      2  C   UNL     1      -4.900  14.051  22.316  0.00  0.00    +0.000 C 
ATOM      3  N   UNL     1      -3.712  13.661  22.964  0.00  0.00    +0.000 N 
ATOM      4  C   UNL     1      -2.919  14.689  23.632  0.00  0.00    +0.000 C 
ATOM      5  C   UNL     1      -1.573  14.890  22.944  0.00  0.00    +0.000 C 
ATOM      6  C   UNL     1      -0.803  13.571  22.872  0.00  0.00    +0.000 C 
ATOM      7  C   UNL     1      -1.633  12.482  22.176  0.00  0.00    +0.000 C 
ATOM      8  C   UNL     1      -3.043  12.358  22.801  0.00  0.00    +0.000 C 
ATOM      9  O   UNL     1      -1.796  12.867  20.779  0.00  0.00    +0.000 OA
ATOM     10  C   UNL     1      -1.227  11.876  19.901  0.00  0.00    +0.000 C 
ATOM     11  C   UNL     1      -0.677  10.830  20.795  0.00  0.00    +0.000 A 
ATOM     12  C   UNL     1      -0.008   9.667  20.451  0.00  0.00    +0.000 A 
ATOM     13  C   UNL     1       0.438   8.831  21.476  0.00  0.00    +0.000 A 
ATOM     14  C   UNL     1       0.202   9.167  22.817  0.00  0.00    +0.000 A 
ATOM     15  C   UNL     1      -0.479  10.342  23.147  0.00  0.00    +0.000 A 
ATOM     16  C   UNL     1      -0.912  11.169  22.119  0.00  0.00    +0.000 A 
ENDROOT
BRANCH   2  17
ATOM     17  C   UNL     1      -5.871  13.015  21.982  0.00  0.00    +0.000 A 
ATOM     18  C   UNL     1      -7.028  12.625  22.693  0.00  0.00    +0.000 A 
ATOM     19  N   UNL     1      -7.724  11.655  22.105  0.00  0.00    +0.000 NA
ATOM     20  N   UNL     1      -7.081  11.459  20.934  0.00  0.00    +0.000 N 
ATOM     21  C   UNL     1      -7.460  10.595  19.913  0.00  0.00    +0.000 A 
ATOM     22  C   UNL     1      -6.753  10.534  18.778  0.00  0.00    +0.000 A 
ATOM     23  C   UNL     1      -5.564  11.427  18.734  0.00  0.00    +0.000 A 
ATOM     24  N   UNL     1      -5.167  12.226  19.679  0.00  0.00    +0.000 NA
ATOM     25  C   UNL     1      -5.940  12.269  20.812  0.00  0.00    +0.000 A 
ENDBRANCH   2  17
TORSDOF 1
ENDMDL
MODEL 3
REMARK VINA RESULT:      -7.8      7.098      9.259
REMARK  Name = 
REMARK  1 active torsions:
REMARK  status: ('A' for Active; 'I' for Inactive)
REMARK    1  A    between atoms: C_2  and  C_3
REMARK                            x       y       z     vdW  Elec       q    Type
REMARK                         _______ _______ _______ _____ _____    ______ ____
ROOT
ATOM      1  O   UNL     1       4.754  17.403  19.181  0.00  0.00    +0.000 OA
ATOM      2  C   UNL     1       5.210  16.418  19.761  0.00  0.00    +0.000 C 
ATOM      3  N   UNL     1       6.599  16.259  19.923  0.00  0.00    +0.000 N 
ATOM      4  C   UNL     1       7.466  17.394  19.623  0.00  0.00    +0.000 C 
ATOM      5  C   UNL     1       8.348  17.118  18.411  0.00  0.00    +0.000 C 
ATOM      6  C   UNL     1       9.173  15.847  18.623  0.00  0.00    +0.000 C 
ATOM      7  C   UNL     1       8.269  14.648  18.945  0.00  0.00    +0.000 C 
ATOM      8  C   UNL     1       7.292  14.969  20.101  0.00  0.00    +0.000 C 
ATOM      9  O   UNL     1       7.474  14.354  17.758  0.00  0.00    +0.000 OA
ATOM     10  C   UNL     1       7.730  13.018  17.285  0.00  0.00    +0.000 C 
ATOM     11  C   UNL     1       8.738  12.458  18.215  0.00  0.00    +0.000 A 
ATOM     12  C   UNL     1       9.335  11.208  18.189  0.00  0.00    +0.000 A 
ATOM     13  C   UNL     1      10.279  10.905  19.172  0.00  0.00    +0.000 A 
ATOM     14  C   UNL     1      10.602  11.847  20.160  0.00  0.00    +0.000 A 
ATOM     15  C   UNL     1       9.987  13.101  20.174  0.00  0.00    +0.000 A 
ATOM     16  C   UNL     1       9.054  13.395  19.188  0.00  0.00    +0.000 A 
ENDROOT
BRANCH   2  17
ATOM     17  C   UNL     1       4.328  15.448  20.401  0.00  0.00    +0.000 A 
ATOM     18  C   UNL     1       3.960  15.350  21.762  0.00  0.00    +0.000 A 
ATOM     19  N   UNL     1       3.112  14.358  22.023  0.00  0.00    +0.000 NA
ATOM     20  N   UNL     1       2.829  13.845  20.807  0.00  0.00    +0.000 N 
ATOM     21  C   UNL     1       1.923  12.828  20.525  0.00  0.00    +0.000 A 
ATOM     22  C   UNL     1       1.704  12.445  19.261  0.00  0.00    +0.000 A 
ATOM     23  C   UNL     1       2.507  13.172  18.241  0.00  0.00    +0.000 A 
ATOM     24  N   UNL     1       3.379  14.107  18.472  0.00  0.00    +0.000 NA
ATOM     25  C   UNL     1       3.549  14.478  19.782  0.00  0.00    +0.000 A 
ENDBRANCH   2  17
TORSDOF 1
ENDMDL
MODEL 4
REMARK VINA RESULT:      -7.7      4.064      7.166
REMARK  Name = 
REMARK  1 active torsions:
REMARK  status: ('A' for Active; 'I' for Inactive)
REMARK    1  A    between atoms: C_2  and  C_3
REMARK                            x       y       z     vdW  Elec       q    Type
REMARK                         _______ _______ _______ _____ _____    ______ ____
ROOT
ATOM      1  O   UNL     1      -0.363  14.771  19.933  0.00  0.00    +0.000 OA
ATOM      2  C   UNL     1       0.584  14.022  19.694  0.00  0.00    +0.000 C 
ATOM      3  N   UNL     1       0.441  12.945  18.799  0.00  0.00    +0.000 N 
ATOM      4  C   UNL     1      -0.761  12.887  17.973  0.00  0.00    +0.000 C 
ATOM      5  C   UNL     1      -1.639  11.697  18.345  0.00  0.00    +0.000 C 
ATOM      6  C   UNL     1      -0.846  10.392  18.244  0.00  0.00    +0.000 C 
ATOM      7  C   UNL     1       0.423  10.447  19.107  0.00  0.00    +0.000 C 
ATOM      8  C   UNL     1       1.255  11.717  18.810  0.00  0.00    +0.000 C 
ATOM      9  O   UNL     1       0.013  10.499  20.505  0.00  0.00    +0.000 OA
ATOM     10  C   UNL     1       0.526   9.367  21.235  0.00  0.00    +0.000 C 
ATOM     11  C   UNL     1       1.282   8.569  20.242  0.00  0.00    +0.000 A 
ATOM     12  C   UNL     1       1.954   7.373  20.428  0.00  0.00    +0.000 A 
ATOM     13  C   UNL     1       2.589   6.791  19.330  0.00  0.00    +0.000 A 
ATOM     14  C   UNL     1       2.546   7.415  18.074  0.00  0.00    +0.000 A 
ATOM     15  C   UNL     1       1.867   8.624  17.904  0.00  0.00    +0.000 A 
ATOM     16  C   UNL     1       1.233   9.190  19.002  0.00  0.00    +0.000 A 
ENDROOT
BRANCH   2  17
ATOM     17  C   UNL     1       1.911  14.293  20.235  0.00  0.00    +0.000 A 
ATOM     18  C   UNL     1       2.384  14.106  21.554  0.00  0.00    +0.000 A 
ATOM     19  N   UNL     1       3.664  14.430  21.721  0.00  0.00    +0.000 NA
ATOM     20  N   UNL     1       4.084  14.743  20.477  0.00  0.00    +0.000 N 
ATOM     21  C   UNL     1       5.380  15.079  20.098  0.00  0.00    +0.000 A 
ATOM     22  C   UNL     1       5.669  15.323  18.814  0.00  0.00    +0.000 A 
ATOM     23  C   UNL     1       4.512  15.224  17.883  0.00  0.00    +0.000 A 
ATOM     24  N   UNL     1       3.287  14.940  18.208  0.00  0.00    +0.000 NA
ATOM     25  C   UNL     1       3.048  14.675  19.533  0.00  0.00    +0.000 A 
ENDBRANCH   2  17
TORSDOF 1
ENDMDL
MODEL 5
REMARK VINA RESULT:      -7.5      6.451      8.739
REMARK  Name = 
REMARK  1 active torsions:
REMARK  status: ('A' for Active; 'I' for Inactive)
REMARK    1  A    between atoms: C_2  and  C_3
REMARK                            x       y       z     vdW  Elec       q    Type
REMARK                         _______ _______ _______ _____ _____    ______ ____
ROOT
ATOM      1  O   UNL     1       2.323  14.088  21.860  0.00  0.00    +0.000 OA
ATOM      2  C   UNL     1       1.629  14.169  20.846  0.00  0.00    +0.000 C 
ATOM      3  N   UNL     1       0.271  13.799  20.874  0.00  0.00    +0.000 N 
ATOM      4  C   UNL     1      -0.357  13.565  22.171  0.00  0.00    +0.000 C 
ATOM      5  C   UNL     1      -0.745  12.102  22.348  0.00  0.00    +0.000 C 
ATOM      6  C   UNL     1      -1.662  11.647  21.211  0.00  0.00    +0.000 C 
ATOM      7  C   UNL     1      -1.011  11.894  19.843  0.00  0.00    +0.000 C 
ATOM      8  C   UNL     1      -0.512  13.352  19.707  0.00  0.00    +0.000 C 
ATOM      9  O   UNL     1       0.146  11.014  19.731  0.00  0.00    +0.000 OA
ATOM     10  C   UNL     1       0.005  10.116  18.612  0.00  0.00    +0.000 C 
ATOM     11  C   UNL     1      -1.305  10.448  18.005  0.00  0.00    +0.000 A 
ATOM     12  C   UNL     1      -1.922   9.862  16.912  0.00  0.00    +0.000 A 
ATOM     13  C   UNL     1      -3.177  10.336  16.527  0.00  0.00    +0.000 A 
ATOM     14  C   UNL     1      -3.786  11.384  17.233  0.00  0.00    +0.000 A 
ATOM     15  C   UNL     1      -3.148  11.967  18.331  0.00  0.00    +0.000 A 
ATOM     16  C   UNL     1      -1.902  11.484  18.709  0.00  0.00    +0.000 A 
ENDROOT
BRANCH   2  17
ATOM     17  C   UNL     1       2.155  14.759  19.621  0.00  0.00    +0.000 A 
ATOM     18  C   UNL     1       3.099  14.223  18.715  0.00  0.00    +0.000 A 
ATOM     19  N   UNL     1       3.352  15.007  17.670  0.00  0.00    +0.000 NA
ATOM     20  N   UNL     1       2.495  16.038  17.823  0.00  0.00    +0.000 N 
ATOM     21  C   UNL     1       2.309  17.101  16.945  0.00  0.00    +0.000 A 
ATOM     22  C   UNL     1       1.385  18.036  17.198  0.00  0.00    +0.000 A 
ATOM     23  C   UNL     1       0.631  17.842  18.466  0.00  0.00    +0.000 A 
ATOM     24  N   UNL     1       0.798  16.877  19.320  0.00  0.00    +0.000 NA
ATOM     25  C   UNL     1       1.740  15.931  19.002  0.00  0.00    +0.000 A 
ENDBRANCH   2  17
TORSDOF 1
ENDMDL
MODEL 6
REMARK VINA RESULT:      -7.4      6.707     11.857
REMARK  Name = 
REMARK  1 active torsions:
REMARK  status: ('A' for Active; 'I' for Inactive)
REMARK    1  A    between atoms: C_2  and  C_3
REMARK                            x       y       z     vdW  Elec       q    Type
REMARK                         _______ _______ _______ _____ _____    ______ ____
ROOT
ATOM      1  O   UNL     1       0.432  14.507  22.831  0.00  0.00    +0.000 OA
ATOM      2  C   UNL     1      -0.567  14.097  22.241  0.00  0.00    +0.000 C 
ATOM      3  N   UNL     1      -1.765  14.837  22.255  0.00  0.00    +0.000 N 
ATOM      4  C   UNL     1      -1.726  16.207  22.758  0.00  0.00    +0.000 C 
ATOM      5  C   UNL     1      -2.519  16.350  24.052  0.00  0.00    +0.000 C 
ATOM      6  C   UNL     1      -3.963  15.886  23.852  0.00  0.00    +0.000 C 
ATOM      7  C   UNL     1      -4.013  14.447  23.318  0.00  0.00    +0.000 C 
ATOM      8  C   UNL     1      -3.115  14.274  22.070  0.00  0.00    +0.000 C 
ATOM      9  O   UNL     1      -3.504  13.563  24.360  0.00  0.00    +0.000 OA
ATOM     10  C   UNL     1      -4.504  12.604  24.756  0.00  0.00    +0.000 C 
ATOM     11  C   UNL     1      -5.693  12.912  23.928  0.00  0.00    +0.000 A 
ATOM     12  C   UNL     1      -6.932  12.293  23.934  0.00  0.00    +0.000 A 
ATOM     13  C   UNL     1      -7.916  12.769  23.066  0.00  0.00    +0.000 A 
ATOM     14  C   UNL     1      -7.643  13.845  22.209  0.00  0.00    +0.000 A 
ATOM     15  C   UNL     1      -6.387  14.456  22.212  0.00  0.00    +0.000 A 
ATOM     16  C   UNL     1      -5.418  13.978  23.084  0.00  0.00    +0.000 A 
ENDROOT
BRANCH   2  17
ATOM     17  C   UNL     1      -0.512  12.896  21.414  0.00  0.00    +0.000 A 
ATOM     18  C   UNL     1      -0.368  12.794  20.012  0.00  0.00    +0.000 A 
ATOM     19  N   UNL     1      -0.328  11.542  19.562  0.00  0.00    +0.000 NA
ATOM     20  N   UNL     1      -0.346  10.793  20.685  0.00  0.00    +0.000 N 
ATOM     21  C   UNL     1      -0.243   9.408  20.761  0.00  0.00    +0.000 A 
ATOM     22  C   UNL     1      -0.228   8.793  21.950  0.00  0.00    +0.000 A 
ATOM     23  C   UNL     1      -0.347   9.700  23.124  0.00  0.00    +0.000 A 
ATOM     24  N   UNL     1      -0.471  10.993  23.087  0.00  0.00    +0.000 NA
ATOM     25  C   UNL     1      -0.458  11.576  21.845  0.00  0.00    +0.000 A 
ENDBRANCH   2  17
TORSDOF 1
ENDMDL
MODEL 7
REMARK VINA RESULT:      -7.4      6.832      9.103
REMARK  Name = 
REMARK  1 active torsions:
REMARK  status: ('A' for Active; 'I' for Inactive)
REMARK    1  A    between atoms: C_2  and  C_3
REMARK                            x       y       z     vdW  Elec       q    Type
REMARK                         _______ _______ _______ _____ _____    ______ ____
ROOT
ATOM      1  O   UNL     1       1.109  15.397  22.697  0.00  0.00    +0.000 OA
ATOM      2  C   UNL     1       0.528  15.258  21.621  0.00  0.00    +0.000 C 
ATOM      3  N   UNL     1      -0.667  14.518  21.539  0.00  0.00    +0.000 N 
ATOM      4  C   UNL     1      -1.333  14.140  22.782  0.00  0.00    +0.000 C 
ATOM      5  C   UNL     1      -1.310  12.630  22.992  0.00  0.00    +0.000 C 
ATOM      6  C   UNL     1      -1.941  11.911  21.798  0.00  0.00    +0.000 C 
ATOM      7  C   UNL     1      -1.249  12.307  20.485  0.00  0.00    +0.000 C 
ATOM      8  C   UNL     1      -1.168  13.844  20.328  0.00  0.00    +0.000 C 
ATOM      9  O   UNL     1       0.114  11.791  20.523  0.00  0.00    +0.000 OA
ATOM     10  C   UNL     1       0.347  10.869  19.440  0.00  0.00    +0.000 C 
ATOM     11  C   UNL     1      -0.934  10.803  18.699  0.00  0.00    +0.000 A 
ATOM     12  C   UNL     1      -1.246  10.045  17.583  0.00  0.00    +0.000 A 
ATOM     13  C   UNL     1      -2.538  10.135  17.061  0.00  0.00    +0.000 A 
ATOM     14  C   UNL     1      -3.486  10.980  17.656  0.00  0.00    +0.000 A 
ATOM     15  C   UNL     1      -3.153  11.741  18.780  0.00  0.00    +0.000 A 
ATOM     16  C   UNL     1      -1.868  11.639  19.295  0.00  0.00    +0.000 A 
ENDROOT
BRANCH   2  17
ATOM     17  C   UNL     1       0.990  15.950  20.423  0.00  0.00    +0.000 A 
ATOM     18  C   UNL     1       0.642  17.237  19.955  0.00  0.00    +0.000 A 
ATOM     19  N   UNL     1       1.261  17.590  18.831  0.00  0.00    +0.000 NA
ATOM     20  N   UNL     1       2.111  16.569  18.595  0.00  0.00    +0.000 N 
ATOM     21  C   UNL     1       3.048  16.489  17.570  0.00  0.00    +0.000 A 
ATOM     22  C   UNL     1       3.865  15.432  17.478  0.00  0.00    +0.000 A 
ATOM     23  C   UNL     1       3.661  14.393  18.524  0.00  0.00    +0.000 A 
ATOM     24  N   UNL     1       2.779  14.425  19.478  0.00  0.00    +0.000 NA
ATOM     25  C   UNL     1       1.983  15.540  19.541  0.00  0.00    +0.000 A 
ENDBRANCH   2  17
TORSDOF 1
ENDMDL
MODEL 8
REMARK VINA RESULT:      -7.3      6.780      9.990
REMARK  Name = 
REMARK  1 active torsions:
REMARK  status: ('A' for Active; 'I' for Inactive)
REMARK    1  A    between atoms: C_2  and  C_3
REMARK                            x       y       z     vdW  Elec       q    Type
REMARK                         _______ _______ _______ _____ _____    ______ ____
ROOT
ATOM      1  O   UNL     1       0.155  10.308  19.886  0.00  0.00    +0.000 OA
ATOM      2  C   UNL     1      -0.309  11.161  19.131  0.00  0.00    +0.000 C 
ATOM      3  N   UNL     1       0.390  12.359  18.885  0.00  0.00    +0.000 N 
ATOM      4  C   UNL     1       1.776  12.456  19.333  0.00  0.00    +0.000 C 
ATOM      5  C   UNL     1       1.932  13.490  20.443  0.00  0.00    +0.000 C 
ATOM      6  C   UNL     1       1.412  14.854  19.985  0.00  0.00    +0.000 C 
ATOM      7  C   UNL     1      -0.044  14.759  19.507  0.00  0.00    +0.000 C 
ATOM      8  C   UNL     1      -0.225  13.631  18.464  0.00  0.00    +0.000 C 
ATOM      9  O   UNL     1      -0.876  14.438  20.660  0.00  0.00    +0.000 OA
ATOM     10  C   UNL     1      -1.855  15.469  20.892  0.00  0.00    +0.000 C 
ATOM     11  C   UNL     1      -1.616  16.482  19.838  0.00  0.00    +0.000 A 
ATOM     12  C   UNL     1      -2.277  17.681  19.629  0.00  0.00    +0.000 A 
ATOM     13  C   UNL     1      -1.862  18.490  18.570  0.00  0.00    +0.000 A 
ATOM     14  C   UNL     1      -0.806  18.086  17.741  0.00  0.00    +0.000 A 
ATOM     15  C   UNL     1      -0.152  16.872  17.964  0.00  0.00    +0.000 A 
ATOM     16  C   UNL     1      -0.568  16.078  19.024  0.00  0.00    +0.000 A 
ENDROOT
BRANCH   2  17
ATOM     17  C   UNL     1      -1.532  10.913  18.376  0.00  0.00    +0.000 A 
ATOM     18  C   UNL     1      -1.737  10.035  17.288  0.00  0.00    +0.000 A 
ATOM     19  N   UNL     1      -2.988  10.021  16.832  0.00  0.00    +0.000 NA
ATOM     20  N   UNL     1      -3.654  10.825  17.688  0.00  0.00    +0.000 N 
ATOM     21  C   UNL     1      -5.020  11.084  17.691  0.00  0.00    +0.000 A 
ATOM     22  C   UNL     1      -5.560  11.869  18.631  0.00  0.00    +0.000 A 
ATOM     23  C   UNL     1      -4.589  12.426  19.612  0.00  0.00    +0.000 A 
ATOM     24  N   UNL     1      -3.305  12.226  19.622  0.00  0.00    +0.000 NA
ATOM     25  C   UNL     1      -2.806  11.395  18.651  0.00  0.00    +0.000 A 
ENDBRANCH   2  17
TORSDOF 1
ENDMDL
MODEL 9
REMARK VINA RESULT:      -7.2      5.997      9.891
REMARK  Name = 
REMARK  1 active torsions:
REMARK  status: ('A' for Active; 'I' for Inactive)
REMARK    1  A    between atoms: C_2  and  C_3
REMARK                            x       y       z     vdW  Elec       q    Type
REMARK                         _______ _______ _______ _____ _____    ______ ____
ROOT
ATOM      1  O   UNL     1       1.517  11.788  21.458  0.00  0.00    +0.000 OA
ATOM      2  C   UNL     1       1.313  12.264  20.342  0.00  0.00    +0.000 C 
ATOM      3  N   UNL     1       1.968  13.440  19.931  0.00  0.00    +0.000 N 
ATOM      4  C   UNL     1       3.074  13.937  20.745  0.00  0.00    +0.000 C 
ATOM      5  C   UNL     1       2.731  15.269  21.401  0.00  0.00    +0.000 C 
ATOM      6  C   UNL     1       2.327  16.301  20.346  0.00  0.00    +0.000 C 
ATOM      7  C   UNL     1       1.168  15.784  19.482  0.00  0.00    +0.000 C 
ATOM      8  C   UNL     1       1.470  14.379  18.910  0.00  0.00    +0.000 C 
ATOM      9  O   UNL     1      -0.012  15.676  20.332  0.00  0.00    +0.000 OA
ATOM     10  C   UNL     1      -1.076  16.518  19.847  0.00  0.00    +0.000 C 
ATOM     11  C   UNL     1      -0.529  17.188  18.644  0.00  0.00    +0.000 A 
ATOM     12  C   UNL     1      -1.145  18.114  17.818  0.00  0.00    +0.000 A 
ATOM     13  C   UNL     1      -0.420  18.625  16.741  0.00  0.00    +0.000 A 
ATOM     14  C   UNL     1       0.896  18.200  16.506  0.00  0.00    +0.000 A 
ATOM     15  C   UNL     1       1.500  17.263  17.346  0.00  0.00    +0.000 A 
ATOM     16  C   UNL     1       0.773  16.765  18.419  0.00  0.00    +0.000 A 
ENDROOT
BRANCH   2  17
ATOM     17  C   UNL     1       0.483  11.565  19.367  0.00  0.00    +0.000 A 
ATOM     18  C   UNL     1       0.827  10.484  18.525  0.00  0.00    +0.000 A 
ATOM     19  N   UNL     1      -0.174  10.054  17.760  0.00  0.00    +0.000 NA
ATOM     20  N   UNL     1      -1.231  10.789  18.165  0.00  0.00    +0.000 N 
ATOM     21  C   UNL     1      -2.544  10.668  17.724  0.00  0.00    +0.000 A 
ATOM     22  C   UNL     1      -3.509  11.435  18.247  0.00  0.00    +0.000 A 
ATOM     23  C   UNL     1      -3.048  12.398  19.283  0.00  0.00    +0.000 A 
ATOM     24  N   UNL     1      -1.826  12.555  19.698  0.00  0.00    +0.000 NA
ATOM     25  C   UNL     1      -0.880  11.728  19.147  0.00  0.00    +0.000 A 
ENDBRANCH   2  17
TORSDOF 1
ENDMDL
