MODEL 1
REMARK VINA RESULT:      -8.9      0.000      0.000
REMARK  Name = 
REMARK  5 active torsions:
REMARK  status: ('A' for Active; 'I' for Inactive)
REMARK    1  A    between atoms: C_2  and  C_11
REMARK    2  A    between atoms: N_3  and  C_4
REMARK    3  A    between atoms: C_15  and  N_16
REMARK    4  A    between atoms: C_21  and  C_22
REMARK    5  A    between atoms: C_22  and  C_23
REMARK                            x       y       z     vdW  Elec       q    Type
REMARK                         _______ _______ _______ _____ _____    ______ ____
ROOT
ATOM      1  C   UNL     1       4.200   5.888  17.467  0.00  0.00    +0.000 A 
ATOM      2  C   UNL     1       4.333   4.796  18.330  0.00  0.00    +0.000 A 
ATOM      3  C   UNL     1       3.607   4.768  19.517  0.00  0.00    +0.000 A 
ATOM      4  C   UNL     1       2.781   5.841  19.859  0.00  0.00    +0.000 A 
ATOM      5  C   UNL     1       2.680   6.963  19.032  0.00  0.00    +0.000 A 
ATOM      6  C   UNL     1       3.373   6.967  17.817  0.00  0.00    +0.000 A 
ENDROOT
BRANCH   5   7
ATOM      7  N   UNL     1       1.940   8.114  19.376  0.00  0.00    +0.000 N 
ATOM      8  C   UNL     1       1.663   9.197  18.565  0.00  0.00    +0.000 C 
ATOM      9  O   UNL     1       2.104   9.382  17.433  0.00  0.00    +0.000 OA
ATOM     10  N   UNL     1       0.800  10.104  19.148  0.00  0.00    +0.000 N 
ATOM     11  C   UNL     1       0.198  11.241  18.454  0.00  0.00    +0.000 C 
ATOM     12  C   UNL     1      -1.155  10.804  19.034  0.00  0.00    +0.000 C 
ATOM     13  C   UNL     1      -0.390   9.826  19.945  0.00  0.00    +0.000 C 
ATOM     14  H   UNL     1       1.508   8.134  20.288  0.00  0.00    +0.000 HD
BRANCH  12  15
ATOM     15  C   UNL     1      -2.110  10.171  18.020  0.00  0.00    +0.000 C 
BRANCH  15  16
ATOM     16  C   UNL     1      -2.651  11.192  17.058  0.00  0.00    +0.000 C 
ATOM     17  C   UNL     1      -4.057  11.040  16.542  0.00  0.00    +0.000 C 
ATOM     18  C   UNL     1      -2.894  10.841  15.613  0.00  0.00    +0.000 C 
ENDBRANCH  15  16
ENDBRANCH  12  15
ENDBRANCH   5   7
BRANCH   1  20
ATOM     19  O   UNL     1       5.203   7.048  15.714  0.00  0.00    +0.000 OA
ATOM     20  C   UNL     1       4.963   5.949  16.190  0.00  0.00    +0.000 C 
ATOM     21  N   UNL     1       5.266   4.714  15.638  0.00  0.00    +0.000 N 
ATOM     22  H   UNL     1       4.814   3.905  16.047  0.00  0.00    +0.000 HD
BRANCH  21  23
ATOM     23  C   UNL     1       5.963   4.488  14.435  0.00  0.00    +0.000 A 
ATOM     24  C   UNL     1       7.151   5.144  14.100  0.00  0.00    +0.000 A 
ATOM     25  C   UNL     1       7.763   4.927  12.861  0.00  0.00    +0.000 A 
ATOM     26  C   UNL     1       7.191   4.045  11.948  0.00  0.00    +0.000 A 
ATOM     27  C   UNL     1       6.032   3.366  12.297  0.00  0.00    +0.000 A 
ATOM     28  F   UNL     1       5.478   2.516  11.422  0.00  0.00    +0.000 F 
ATOM     29  C   UNL     1       5.422   3.565  13.534  0.00  0.00    +0.000 A 
ENDBRANCH  21  23
ENDBRANCH   1  20
TORSDOF 5
ENDMDL
MODEL 2
REMARK VINA RESULT:      -8.7      1.020      1.406
REMARK  Name = 
REMARK  5 active torsions:
REMARK  status: ('A' for Active; 'I' for Inactive)
REMARK    1  A    between atoms: C_2  and  C_11
REMARK    2  A    between atoms: N_3  and  C_4
REMARK    3  A    between atoms: C_15  and  N_16
REMARK    4  A    between atoms: C_21  and  C_22
REMARK    5  A    between atoms: C_22  and  C_23
REMARK                            x       y       z     vdW  Elec       q    Type
REMARK                         _______ _______ _______ _____ _____    ______ ____
ROOT
ATOM      1  C   UNL     1       4.108   5.827  17.465  0.00  0.00    +0.000 A 
ATOM      2  C   UNL     1       4.172   4.691  18.277  0.00  0.00    +0.000 A 
ATOM      3  C   UNL     1       3.424   4.642  19.449  0.00  0.00    +0.000 A 
ATOM      4  C   UNL     1       2.644   5.738  19.828  0.00  0.00    +0.000 A 
ATOM      5  C   UNL     1       2.613   6.901  19.054  0.00  0.00    +0.000 A 
ATOM      6  C   UNL     1       3.328   6.928  17.852  0.00  0.00    +0.000 A 
ENDROOT
BRANCH   5   7
ATOM      7  N   UNL     1       1.922   8.070  19.440  0.00  0.00    +0.000 N 
ATOM      8  C   UNL     1       1.683   9.187  18.665  0.00  0.00    +0.000 C 
ATOM      9  O   UNL     1       2.121   9.389  17.535  0.00  0.00    +0.000 OA
ATOM     10  N   UNL     1       0.862  10.110  19.284  0.00  0.00    +0.000 N 
ATOM     11  C   UNL     1       0.300  11.290  18.631  0.00  0.00    +0.000 C 
ATOM     12  C   UNL     1      -1.064  10.891  19.211  0.00  0.00    +0.000 C 
ATOM     13  C   UNL     1      -0.331   9.856  20.084  0.00  0.00    +0.000 C 
ATOM     14  H   UNL     1       1.500   8.079  20.356  0.00  0.00    +0.000 HD
BRANCH  12  15
ATOM     15  C   UNL     1      -2.053  10.327  18.188  0.00  0.00    +0.000 C 
BRANCH  15  16
ATOM     16  C   UNL     1      -3.204  11.266  17.958  0.00  0.00    +0.000 C 
ATOM     17  C   UNL     1      -4.606  10.717  17.936  0.00  0.00    +0.000 C 
ATOM     18  C   UNL     1      -3.985  11.232  16.669  0.00  0.00    +0.000 C 
ENDBRANCH  15  16
ENDBRANCH  12  15
ENDBRANCH   5   7
BRANCH   1  20
ATOM     19  O   UNL     1       5.224   7.016  15.802  0.00  0.00    +0.000 OA
ATOM     20  C   UNL     1       4.897   5.911  16.204  0.00  0.00    +0.000 C 
ATOM     21  N   UNL     1       5.120   4.693  15.582  0.00  0.00    +0.000 N 
ATOM     22  H   UNL     1       4.603   3.896  15.933  0.00  0.00    +0.000 HD
BRANCH  21  23
ATOM     23  C   UNL     1       5.821   4.490  14.376  0.00  0.00    +0.000 A 
ATOM     24  C   UNL     1       5.399   3.603  13.381  0.00  0.00    +0.000 A 
ATOM     25  C   UNL     1       6.172   3.396  12.234  0.00  0.00    +0.000 A 
ATOM     26  C   UNL     1       7.373   4.081  12.071  0.00  0.00    +0.000 A 
ATOM     27  C   UNL     1       7.771   4.990  13.042  0.00  0.00    +0.000 A 
ATOM     28  F   UNL     1       8.926   5.652  12.890  0.00  0.00    +0.000 F 
ATOM     29  C   UNL     1       7.002   5.214  14.182  0.00  0.00    +0.000 A 
ENDBRANCH  21  23
ENDBRANCH   1  20
TORSDOF 5
ENDMDL
MODEL 3
REMARK VINA RESULT:      -8.7      3.463      9.279
REMARK  Name = 
REMARK  5 active torsions:
REMARK  status: ('A' for Active; 'I' for Inactive)
REMARK    1  A    between atoms: C_2  and  C_11
REMARK    2  A    between atoms: N_3  and  C_4
REMARK    3  A    between atoms: C_15  and  N_16
REMARK    4  A    between atoms: C_21  and  C_22
REMARK    5  A    between atoms: C_22  and  C_23
REMARK                            x       y       z     vdW  Elec       q    Type
REMARK                         _______ _______ _______ _____ _____    ______ ____
ROOT
ATOM      1  C   UNL     1       1.865   6.910  20.309  0.00  0.00    +0.000 A 
ATOM      2  C   UNL     1       1.511   5.667  20.842  0.00  0.00    +0.000 A 
ATOM      3  C   UNL     1       2.208   4.529  20.448  0.00  0.00    +0.000 A 
ATOM      4  C   UNL     1       3.229   4.625  19.499  0.00  0.00    +0.000 A 
ATOM      5  C   UNL     1       3.557   5.853  18.917  0.00  0.00    +0.000 A 
ATOM      6  C   UNL     1       2.887   7.003  19.351  0.00  0.00    +0.000 A 
ENDROOT
BRANCH   5   7
ATOM      7  N   UNL     1       4.509   5.992  17.885  0.00  0.00    +0.000 N 
ATOM      8  C   UNL     1       5.539   5.124  17.583  0.00  0.00    +0.000 C 
ATOM      9  O   UNL     1       5.859   4.130  18.231  0.00  0.00    +0.000 OA
ATOM     10  N   UNL     1       6.218   5.469  16.430  0.00  0.00    +0.000 N 
ATOM     11  C   UNL     1       7.227   4.635  15.781  0.00  0.00    +0.000 C 
ATOM     12  C   UNL     1       6.490   4.877  14.456  0.00  0.00    +0.000 C 
ATOM     13  C   UNL     1       5.662   5.959  15.174  0.00  0.00    +0.000 C 
ATOM     14  H   UNL     1       4.400   6.772  17.255  0.00  0.00    +0.000 HD
BRANCH  12  15
ATOM     15  C   UNL     1       5.708   3.671  13.931  0.00  0.00    +0.000 C 
BRANCH  15  16
ATOM     16  C   UNL     1       5.732   3.610  12.429  0.00  0.00    +0.000 C 
ATOM     17  C   UNL     1       4.479   3.215  11.691  0.00  0.00    +0.000 C 
ATOM     18  C   UNL     1       5.661   2.288  11.707  0.00  0.00    +0.000 C 
ENDBRANCH  15  16
ENDBRANCH  12  15
ENDBRANCH   5   7
BRANCH   1  20
ATOM     19  O   UNL     1       0.656   8.195  21.830  0.00  0.00    +0.000 OA
ATOM     20  C   UNL     1       1.139   8.148  20.709  0.00  0.00    +0.000 C 
ATOM     21  N   UNL     1       1.036   9.104  19.712  0.00  0.00    +0.000 N 
ATOM     22  H   UNL     1       1.306   8.824  18.777  0.00  0.00    +0.000 HD
BRANCH  21  23
ATOM     23  C   UNL     1       0.391  10.353  19.819  0.00  0.00    +0.000 A 
ATOM     24  C   UNL     1       0.973  11.468  20.428  0.00  0.00    +0.000 A 
ATOM     25  C   UNL     1       0.258  12.663  20.563  0.00  0.00    +0.000 A 
ATOM     26  C   UNL     1      -1.046  12.751  20.084  0.00  0.00    +0.000 A 
ATOM     27  C   UNL     1      -1.609  11.654  19.446  0.00  0.00    +0.000 A 
ATOM     28  F   UNL     1      -2.863  11.734  18.983  0.00  0.00    +0.000 F 
ATOM     29  C   UNL     1      -0.900  10.464  19.294  0.00  0.00    +0.000 A 
ENDBRANCH  21  23
ENDBRANCH   1  20
TORSDOF 5
ENDMDL
MODEL 4
REMARK VINA RESULT:      -8.7      1.412      1.720
REMARK  Name = 
REMARK  5 active torsions:
REMARK  status: ('A' for Active; 'I' for Inactive)
REMARK    1  A    between atoms: C_2  and  C_11
REMARK    2  A    between atoms: N_3  and  C_4
REMARK    3  A    between atoms: C_15  and  N_16
REMARK    4  A    between atoms: C_21  and  C_22
REMARK    5  A    between atoms: C_22  and  C_23
REMARK                            x       y       z     vdW  Elec       q    Type
REMARK                         _______ _______ _______ _____ _____    ______ ____
ROOT
ATOM      1  C   UNL     1       4.429   4.598  17.918  0.00  0.00    +0.000 A 
ATOM      2  C   UNL     1       4.105   3.528  18.757  0.00  0.00    +0.000 A 
ATOM      3  C   UNL     1       3.147   3.701  19.751  0.00  0.00    +0.000 A 
ATOM      4  C   UNL     1       2.541   4.947  19.931  0.00  0.00    +0.000 A 
ATOM      5  C   UNL     1       2.895   6.041  19.135  0.00  0.00    +0.000 A 
ATOM      6  C   UNL     1       3.823   5.850  18.106  0.00  0.00    +0.000 A 
ENDROOT
BRANCH   5   7
ATOM      7  N   UNL     1       2.388   7.342  19.338  0.00  0.00    +0.000 N 
ATOM      8  C   UNL     1       2.256   8.338  18.391  0.00  0.00    +0.000 C 
ATOM      9  O   UNL     1       2.654   8.288  17.230  0.00  0.00    +0.000 OA
ATOM     10  N   UNL     1       1.601   9.456  18.870  0.00  0.00    +0.000 N 
ATOM     11  C   UNL     1       1.166  10.580  18.043  0.00  0.00    +0.000 C 
ATOM     12  C   UNL     1      -0.205  10.478  18.727  0.00  0.00    +0.000 C 
ATOM     13  C   UNL     1       0.431   9.508  19.740  0.00  0.00    +0.000 C 
ATOM     14  H   UNL     1       2.022   7.561  20.252  0.00  0.00    +0.000 HD
BRANCH  12  15
ATOM     15  C   UNL     1      -1.315   9.898  17.848  0.00  0.00    +0.000 C 
BRANCH  15  16
ATOM     16  C   UNL     1      -2.216  10.976  17.314  0.00  0.00    +0.000 C 
ATOM     17  C   UNL     1      -3.660  10.653  17.033  0.00  0.00    +0.000 C 
ATOM     18  C   UNL     1      -2.721  10.929  15.894  0.00  0.00    +0.000 C 
ENDBRANCH  15  16
ENDBRANCH  12  15
ENDBRANCH   5   7
BRANCH   1  20
ATOM     19  O   UNL     1       6.624   4.364  17.175  0.00  0.00    +0.000 OA
ATOM     20  C   UNL     1       5.451   4.446  16.846  0.00  0.00    +0.000 C 
ATOM     21  N   UNL     1       4.943   4.481  15.556  0.00  0.00    +0.000 N 
ATOM     22  H   UNL     1       3.977   4.765  15.450  0.00  0.00    +0.000 HD
BRANCH  21  23
ATOM     23  C   UNL     1       5.689   4.374  14.365  0.00  0.00    +0.000 A 
ATOM     24  C   UNL     1       5.344   3.516  13.317  0.00  0.00    +0.000 A 
ATOM     25  C   UNL     1       6.160   3.405  12.186  0.00  0.00    +0.000 A 
ATOM     26  C   UNL     1       7.327   4.158  12.094  0.00  0.00    +0.000 A 
ATOM     27  C   UNL     1       7.648   5.038  13.119  0.00  0.00    +0.000 A 
ATOM     28  F   UNL     1       8.770   5.765  13.035  0.00  0.00    +0.000 F 
ATOM     29  C   UNL     1       6.835   5.166  14.243  0.00  0.00    +0.000 A 
ENDBRANCH  21  23
ENDBRANCH   1  20
TORSDOF 5
ENDMDL
MODEL 5
REMARK VINA RESULT:      -8.5      4.941     10.866
REMARK  Name = 
REMARK  5 active torsions:
REMARK  status: ('A' for Active; 'I' for Inactive)
REMARK    1  A    between atoms: C_2  and  C_11
REMARK    2  A    between atoms: N_3  and  C_4
REMARK    3  A    between atoms: C_15  and  N_16
REMARK    4  A    between atoms: C_21  and  C_22
REMARK    5  A    between atoms: C_22  and  C_23
REMARK                            x       y       z     vdW  Elec       q    Type
REMARK                         _______ _______ _______ _____ _____    ______ ____
ROOT
ATOM      1  C   UNL     1       0.431  10.006  20.626  0.00  0.00    +0.000 A 
ATOM      2  C   UNL     1       0.114  10.497  19.356  0.00  0.00    +0.000 A 
ATOM      3  C   UNL     1       0.609   9.849  18.228  0.00  0.00    +0.000 A 
ATOM      4  C   UNL     1       1.446   8.739  18.367  0.00  0.00    +0.000 A 
ATOM      5  C   UNL     1       1.815   8.271  19.631  0.00  0.00    +0.000 A 
ATOM      6  C   UNL     1       1.277   8.894  20.763  0.00  0.00    +0.000 A 
ENDROOT
BRANCH   5   7
ATOM      7  N   UNL     1       2.733   7.218  19.829  0.00  0.00    +0.000 N 
ATOM      8  C   UNL     1       2.479   5.865  19.732  0.00  0.00    +0.000 C 
ATOM      9  O   UNL     1       1.379   5.348  19.552  0.00  0.00    +0.000 OA
ATOM     10  N   UNL     1       3.617   5.090  19.850  0.00  0.00    +0.000 N 
ATOM     11  C   UNL     1       3.668   3.649  19.606  0.00  0.00    +0.000 C 
ATOM     12  C   UNL     1       4.905   3.900  18.732  0.00  0.00    +0.000 C 
ATOM     13  C   UNL     1       4.936   5.339  19.279  0.00  0.00    +0.000 C 
ATOM     14  H   UNL     1       3.696   7.467  20.000  0.00  0.00    +0.000 HD
BRANCH  12  15
ATOM     15  C   UNL     1       4.664   3.758  17.228  0.00  0.00    +0.000 C 
BRANCH  15  16
ATOM     16  C   UNL     1       5.855   4.217  16.433  0.00  0.00    +0.000 C 
ATOM     17  C   UNL     1       5.680   5.318  15.419  0.00  0.00    +0.000 C 
ATOM     18  C   UNL     1       5.964   3.916  14.960  0.00  0.00    +0.000 C 
ENDBRANCH  15  16
ENDBRANCH  12  15
ENDBRANCH   5   7
BRANCH   1  20
ATOM     19  O   UNL     1       0.278  10.245  22.938  0.00  0.00    +0.000 OA
ATOM     20  C   UNL     1      -0.082  10.676  21.854  0.00  0.00    +0.000 C 
ATOM     21  N   UNL     1      -0.986  11.700  21.617  0.00  0.00    +0.000 N 
ATOM     22  H   UNL     1      -1.338  11.793  20.672  0.00  0.00    +0.000 HD
BRANCH  21  23
ATOM     23  C   UNL     1      -1.629  12.484  22.595  0.00  0.00    +0.000 A 
ATOM     24  C   UNL     1      -1.134  13.712  23.044  0.00  0.00    +0.000 A 
ATOM     25  C   UNL     1      -1.784  14.414  24.065  0.00  0.00    +0.000 A 
ATOM     26  C   UNL     1      -2.939  13.893  24.642  0.00  0.00    +0.000 A 
ATOM     27  C   UNL     1      -3.450  12.692  24.168  0.00  0.00    +0.000 A 
ATOM     28  F   UNL     1      -4.562  12.188  24.719  0.00  0.00    +0.000 F 
ATOM     29  C   UNL     1      -2.819  11.992  23.142  0.00  0.00    +0.000 A 
ENDBRANCH  21  23
ENDBRANCH   1  20
TORSDOF 5
ENDMDL
MODEL 6
REMARK VINA RESULT:      -8.5      3.230      8.831
REMARK  Name = 
REMARK  5 active torsions:
REMARK  status: ('A' for Active; 'I' for Inactive)
REMARK    1  A    between atoms: C_2  and  C_11
REMARK    2  A    between atoms: N_3  and  C_4
REMARK    3  A    between atoms: C_15  and  N_16
REMARK    4  A    between atoms: C_21  and  C_22
REMARK    5  A    between atoms: C_22  and  C_23
REMARK                            x       y       z     vdW  Elec       q    Type
REMARK                         _______ _______ _______ _____ _____    ______ ____
ROOT
ATOM      1  C   UNL     1      -0.002   9.902  20.169  0.00  0.00    +0.000 A 
ATOM      2  C   UNL     1      -0.392  10.280  21.457  0.00  0.00    +0.000 A 
ATOM      3  C   UNL     1       0.195   9.665  22.559  0.00  0.00    +0.000 A 
ATOM      4  C   UNL     1       1.141   8.654  22.377  0.00  0.00    +0.000 A 
ATOM      5  C   UNL     1       1.501   8.228  21.095  0.00  0.00    +0.000 A 
ATOM      6  C   UNL     1       0.944   8.881  19.989  0.00  0.00    +0.000 A 
ENDROOT
BRANCH   5   7
ATOM      7  N   UNL     1       2.374   7.147  20.854  0.00  0.00    +0.000 N 
ATOM      8  C   UNL     1       2.031   5.883  20.417  0.00  0.00    +0.000 C 
ATOM      9  O   UNL     1       0.888   5.459  20.260  0.00  0.00    +0.000 OA
ATOM     10  N   UNL     1       3.127   5.087  20.148  0.00  0.00    +0.000 N 
ATOM     11  C   UNL     1       3.062   3.776  19.504  0.00  0.00    +0.000 C 
ATOM     12  C   UNL     1       4.185   4.245  18.568  0.00  0.00    +0.000 C 
ATOM     13  C   UNL     1       4.371   5.466  19.488  0.00  0.00    +0.000 C 
ATOM     14  H   UNL     1       3.364   7.319  20.949  0.00  0.00    +0.000 HD
BRANCH  12  15
ATOM     15  C   UNL     1       3.739   4.545  17.136  0.00  0.00    +0.000 C 
BRANCH  15  16
ATOM     16  C   UNL     1       4.738   4.042  16.130  0.00  0.00    +0.000 C 
ATOM     17  C   UNL     1       6.195   4.376  16.314  0.00  0.00    +0.000 C 
ATOM     18  C   UNL     1       5.424   4.991  15.180  0.00  0.00    +0.000 C 
ENDBRANCH  15  16
ENDBRANCH  12  15
ENDBRANCH   5   7
BRANCH   1  20
ATOM     19  O   UNL     1      -0.080  11.542  18.516  0.00  0.00    +0.000 OA
ATOM     20  C   UNL     1      -0.611  10.540  18.969  0.00  0.00    +0.000 C 
ATOM     21  N   UNL     1      -1.782   9.941  18.530  0.00  0.00    +0.000 N 
ATOM     22  H   UNL     1      -2.201   9.250  19.139  0.00  0.00    +0.000 HD
BRANCH  21  23
ATOM     23  C   UNL     1      -2.565  10.350  17.432  0.00  0.00    +0.000 A 
ATOM     24  C   UNL     1      -3.711  11.141  17.556  0.00  0.00    +0.000 A 
ATOM     25  C   UNL     1      -4.484  11.461  16.435  0.00  0.00    +0.000 A 
ATOM     26  C   UNL     1      -4.112  10.994  15.178  0.00  0.00    +0.000 A 
ATOM     27  C   UNL     1      -2.953  10.240  15.050  0.00  0.00    +0.000 A 
ATOM     28  F   UNL     1      -2.590   9.789  13.842  0.00  0.00    +0.000 F 
ATOM     29  C   UNL     1      -2.168   9.929  16.158  0.00  0.00    +0.000 A 
ENDBRANCH  21  23
ENDBRANCH   1  20
TORSDOF 5
ENDMDL
MODEL 7
REMARK VINA RESULT:      -8.5      3.599      9.356
REMARK  Name = 
REMARK  5 active torsions:
REMARK  status: ('A' for Active; 'I' for Inactive)
REMARK    1  A    between atoms: C_2  and  C_11
REMARK    2  A    between atoms: N_3  and  C_4
REMARK    3  A    between atoms: C_15  and  N_16
REMARK    4  A    between atoms: C_21  and  C_22
REMARK    5  A    between atoms: C_22  and  C_23
REMARK                            x       y       z     vdW  Elec       q    Type
REMARK                         _______ _______ _______ _____ _____    ______ ____
ROOT
ATOM      1  C   UNL     1       1.896   7.000  20.285  0.00  0.00    +0.000 A 
ATOM      2  C   UNL     1       1.477   5.773  20.810  0.00  0.00    +0.000 A 
ATOM      3  C   UNL     1       2.120   4.603  20.414  0.00  0.00    +0.000 A 
ATOM      4  C   UNL     1       3.150   4.653  19.472  0.00  0.00    +0.000 A 
ATOM      5  C   UNL     1       3.542   5.867  18.899  0.00  0.00    +0.000 A 
ATOM      6  C   UNL     1       2.927   7.046  19.335  0.00  0.00    +0.000 A 
ENDROOT
BRANCH   5   7
ATOM      7  N   UNL     1       4.506   5.963  17.874  0.00  0.00    +0.000 N 
ATOM      8  C   UNL     1       5.452   5.017  17.531  0.00  0.00    +0.000 C 
ATOM      9  O   UNL     1       5.675   3.969  18.132  0.00  0.00    +0.000 OA
ATOM     10  N   UNL     1       6.164   5.350  16.395  0.00  0.00    +0.000 N 
ATOM     11  C   UNL     1       7.093   4.455  15.707  0.00  0.00    +0.000 C 
ATOM     12  C   UNL     1       6.387   4.825  14.395  0.00  0.00    +0.000 C 
ATOM     13  C   UNL     1       5.661   5.946  15.163  0.00  0.00    +0.000 C 
ATOM     14  H   UNL     1       4.473   6.778  17.280  0.00  0.00    +0.000 HD
BRANCH  12  15
ATOM     15  C   UNL     1       5.497   3.723  13.816  0.00  0.00    +0.000 C 
BRANCH  15  16
ATOM     16  C   UNL     1       5.631   3.635  12.321  0.00  0.00    +0.000 C 
ATOM     17  C   UNL     1       4.448   3.187  11.504  0.00  0.00    +0.000 C 
ATOM     18  C   UNL     1       5.653   2.298  11.624  0.00  0.00    +0.000 C 
ENDBRANCH  15  16
ENDBRANCH  12  15
ENDBRANCH   5   7
BRANCH   1  20
ATOM     19  O   UNL     1       0.882   8.395  21.852  0.00  0.00    +0.000 OA
ATOM     20  C   UNL     1       1.229   8.269  20.687  0.00  0.00    +0.000 C 
ATOM     21  N   UNL     1       1.014   9.162  19.649  0.00  0.00    +0.000 N 
ATOM     22  H   UNL     1       1.170   8.819  18.709  0.00  0.00    +0.000 HD
BRANCH  21  23
ATOM     23  C   UNL     1       0.394  10.423  19.750  0.00  0.00    +0.000 A 
ATOM     24  C   UNL     1      -0.821  10.734  19.132  0.00  0.00    +0.000 A 
ATOM     25  C   UNL     1      -1.356  12.024  19.215  0.00  0.00    +0.000 A 
ATOM     26  C   UNL     1      -0.679  13.013  19.923  0.00  0.00    +0.000 A 
ATOM     27  C   UNL     1       0.508  12.693  20.568  0.00  0.00    +0.000 A 
ATOM     28  F   UNL     1       1.163  13.641  21.251  0.00  0.00    +0.000 F 
ATOM     29  C   UNL     1       1.042  11.407  20.503  0.00  0.00    +0.000 A 
ENDBRANCH  21  23
ENDBRANCH   1  20
TORSDOF 5
ENDMDL
MODEL 8
REMARK VINA RESULT:      -8.4      3.857      9.057
REMARK  Name = 
REMARK  5 active torsions:
REMARK  status: ('A' for Active; 'I' for Inactive)
REMARK    1  A    between atoms: C_2  and  C_11
REMARK    2  A    between atoms: N_3  and  C_4
REMARK    3  A    between atoms: C_15  and  N_16
REMARK    4  A    between atoms: C_21  and  C_22
REMARK    5  A    between atoms: C_22  and  C_23
REMARK                            x       y       z     vdW  Elec       q    Type
REMARK                         _______ _______ _______ _____ _____    ______ ____
ROOT
ATOM      1  C   UNL     1      -0.037   9.900  20.148  0.00  0.00    +0.000 A 
ATOM      2  C   UNL     1      -0.409  10.292  21.438  0.00  0.00    +0.000 A 
ATOM      3  C   UNL     1       0.205   9.701  22.538  0.00  0.00    +0.000 A 
ATOM      4  C   UNL     1       1.159   8.697  22.353  0.00  0.00    +0.000 A 
ATOM      5  C   UNL     1       1.501   8.257  21.071  0.00  0.00    +0.000 A 
ATOM      6  C   UNL     1       0.917   8.887  19.966  0.00  0.00    +0.000 A 
ENDROOT
BRANCH   5   7
ATOM      7  N   UNL     1       2.382   7.182  20.830  0.00  0.00    +0.000 N 
ATOM      8  C   UNL     1       2.046   5.912  20.407  0.00  0.00    +0.000 C 
ATOM      9  O   UNL     1       0.907   5.476  20.263  0.00  0.00    +0.000 OA
ATOM     10  N   UNL     1       3.148   5.124  20.133  0.00  0.00    +0.000 N 
ATOM     11  C   UNL     1       3.089   3.807  19.500  0.00  0.00    +0.000 C 
ATOM     12  C   UNL     1       4.199   4.279  18.549  0.00  0.00    +0.000 C 
ATOM     13  C   UNL     1       4.382   5.509  19.458  0.00  0.00    +0.000 C 
ATOM     14  H   UNL     1       3.371   7.365  20.914  0.00  0.00    +0.000 HD
BRANCH  12  15
ATOM     15  C   UNL     1       3.736   4.564  17.119  0.00  0.00    +0.000 C 
BRANCH  15  16
ATOM     16  C   UNL     1       4.742   4.087  16.108  0.00  0.00    +0.000 C 
ATOM     17  C   UNL     1       6.209   4.301  16.376  0.00  0.00    +0.000 C 
ATOM     18  C   UNL     1       5.529   5.068  15.277  0.00  0.00    +0.000 C 
ENDBRANCH  15  16
ENDBRANCH  12  15
ENDBRANCH   5   7
BRANCH   1  20
ATOM     19  O   UNL     1      -0.258  11.593  18.563  0.00  0.00    +0.000 OA
ATOM     20  C   UNL     1      -0.676  10.513  18.950  0.00  0.00    +0.000 C 
ATOM     21  N   UNL     1      -1.746   9.796  18.437  0.00  0.00    +0.000 N 
ATOM     22  H   UNL     1      -2.098   9.030  18.999  0.00  0.00    +0.000 HD
BRANCH  21  23
ATOM     23  C   UNL     1      -2.531  10.156  17.324  0.00  0.00    +0.000 A 
ATOM     24  C   UNL     1      -2.270   9.713  16.024  0.00  0.00    +0.000 A 
ATOM     25  C   UNL     1      -3.046  10.157  14.948  0.00  0.00    +0.000 A 
ATOM     26  C   UNL     1      -4.095  11.046  15.167  0.00  0.00    +0.000 A 
ATOM     27  C   UNL     1      -4.376  11.455  16.463  0.00  0.00    +0.000 A 
ATOM     28  F   UNL     1      -5.384  12.310  16.679  0.00  0.00    +0.000 F 
ATOM     29  C   UNL     1      -3.618  11.008  17.543  0.00  0.00    +0.000 A 
ENDBRANCH  21  23
ENDBRANCH   1  20
TORSDOF 5
ENDMDL
MODEL 9
REMARK VINA RESULT:      -8.4      5.009     11.014
REMARK  Name = 
REMARK  5 active torsions:
REMARK  status: ('A' for Active; 'I' for Inactive)
REMARK    1  A    between atoms: C_2  and  C_11
REMARK    2  A    between atoms: N_3  and  C_4
REMARK    3  A    between atoms: C_15  and  N_16
REMARK    4  A    between atoms: C_21  and  C_22
REMARK    5  A    between atoms: C_22  and  C_23
REMARK                            x       y       z     vdW  Elec       q    Type
REMARK                         _______ _______ _______ _____ _____    ______ ____
ROOT
ATOM      1  C   UNL     1       0.325  10.008  20.653  0.00  0.00    +0.000 A 
ATOM      2  C   UNL     1      -0.061  10.488  19.397  0.00  0.00    +0.000 A 
ATOM      3  C   UNL     1       0.412   9.861  18.248  0.00  0.00    +0.000 A 
ATOM      4  C   UNL     1       1.294   8.783  18.351  0.00  0.00    +0.000 A 
ATOM      5  C   UNL     1       1.732   8.328  19.599  0.00  0.00    +0.000 A 
ATOM      6  C   UNL     1       1.217   8.929  20.752  0.00  0.00    +0.000 A 
ENDROOT
BRANCH   5   7
ATOM      7  N   UNL     1       2.696   7.310  19.757  0.00  0.00    +0.000 N 
ATOM      8  C   UNL     1       2.484   5.948  19.696  0.00  0.00    +0.000 C 
ATOM      9  O   UNL     1       1.393   5.391  19.592  0.00  0.00    +0.000 OA
ATOM     10  N   UNL     1       3.653   5.214  19.757  0.00  0.00    +0.000 N 
ATOM     11  C   UNL     1       3.740   3.772  19.534  0.00  0.00    +0.000 C 
ATOM     12  C   UNL     1       4.913   4.049  18.583  0.00  0.00    +0.000 C 
ATOM     13  C   UNL     1       4.926   5.498  19.104  0.00  0.00    +0.000 C 
ATOM     14  H   UNL     1       3.658   7.595  19.866  0.00  0.00    +0.000 HD
BRANCH  12  15
ATOM     15  C   UNL     1       4.587   3.872  17.098  0.00  0.00    +0.000 C 
BRANCH  15  16
ATOM     16  C   UNL     1       5.820   3.564  16.296  0.00  0.00    +0.000 C 
ATOM     17  C   UNL     1       6.830   4.656  16.054  0.00  0.00    +0.000 C 
ATOM     18  C   UNL     1       6.005   4.134  14.912  0.00  0.00    +0.000 C 
ENDBRANCH  15  16
ENDBRANCH  12  15
ENDBRANCH   5   7
BRANCH   1  20
ATOM     19  O   UNL     1       0.235  10.222  22.970  0.00  0.00    +0.000 OA
ATOM     20  C   UNL     1      -0.163  10.658  21.901  0.00  0.00    +0.000 C 
ATOM     21  N   UNL     1      -1.090  11.669  21.701  0.00  0.00    +0.000 N 
ATOM     22  H   UNL     1      -1.470  11.766  20.768  0.00  0.00    +0.000 HD
BRANCH  21  23
ATOM     23  C   UNL     1      -1.718  12.433  22.706  0.00  0.00    +0.000 A 
ATOM     24  C   UNL     1      -2.974  12.122  23.234  0.00  0.00    +0.000 A 
ATOM     25  C   UNL     1      -3.576  12.956  24.184  0.00  0.00    +0.000 A 
ATOM     26  C   UNL     1      -2.920  14.105  24.615  0.00  0.00    +0.000 A 
ATOM     27  C   UNL     1      -1.656  14.391  24.117  0.00  0.00    +0.000 A 
ATOM     28  F   UNL     1      -1.021  15.496  24.530  0.00  0.00    +0.000 F 
ATOM     29  C   UNL     1      -1.042  13.561  23.182  0.00  0.00    +0.000 A 
ENDBRANCH  21  23
ENDBRANCH   1  20
TORSDOF 5
ENDMDL
