MODEL 1
REMARK VINA RESULT:      -8.2      0.000      0.000
REMARK  Name = 
REMARK  6 active torsions:
REMARK  status: ('A' for Active; 'I' for Inactive)
REMARK    1  A    between atoms: C_2  and  C_4
REMARK    2  A    between atoms: C_6  and  N_7
REMARK    3  A    between atoms: C_8  and  C_10
REMARK    4  A    between atoms: N_12  and  C_13
REMARK    5  A    between atoms: C_13  and  C_14
REMARK    6  A    between atoms: C_21  and  C_22
REMARK                            x       y       z     vdW  Elec       q    Type
REMARK                         _______ _______ _______ _____ _____    ______ ____
ROOT
ATOM      1  C   UNL     1       4.682   6.068  16.524  0.00  0.00    +0.000 A 
ATOM      2  C   UNL     1       5.405   6.076  15.344  0.00  0.00    +0.000 A 
ATOM      3  N   UNL     1       5.799   4.780  15.143  0.00  0.00    +0.000 N 
ATOM      4  N   UNL     1       5.226   3.912  15.993  0.00  0.00    +0.000 NA
ATOM      5  C   UNL     1       4.563   4.679  16.874  0.00  0.00    +0.000 A 
ENDROOT
BRANCH   5   6
ATOM      6  C   UNL     1       3.838   4.064  17.994  0.00  0.00    +0.000 A 
ATOM      7  C   UNL     1       2.440   3.943  17.955  0.00  0.00    +0.000 A 
ATOM      8  C   UNL     1       1.745   3.362  19.023  0.00  0.00    +0.000 A 
ATOM      9  C   UNL     1       2.444   2.895  20.133  0.00  0.00    +0.000 A 
ATOM     10 CL   UNL     1       1.592   2.187  21.450  0.00  0.00    +0.000 Cl
ATOM     11  C   UNL     1       3.828   3.006  20.190  0.00  0.00    +0.000 A 
ATOM     12  C   UNL     1       4.519   3.603  19.133  0.00  0.00    +0.000 A 
ENDBRANCH   5   6
BRANCH   1  14
ATOM     13  N   UNL     1       2.849   7.311  17.496  0.00  0.00    +0.000 N 
ATOM     14  C   UNL     1       4.222   7.198  17.316  0.00  0.00    +0.000 C 
ATOM     15  O   UNL     1       5.046   7.950  17.827  0.00  0.00    +0.000 OA
ATOM     16  H   UNL     1       2.277   6.540  17.179  0.00  0.00    +0.000 HD
BRANCH  13  19
ATOM     17  C   UNL     1       1.156   9.138  20.311  0.00  0.00    +0.000 A 
ATOM     18  C   UNL     1       1.830   8.138  19.598  0.00  0.00    +0.000 A 
ATOM     19  C   UNL     1       2.228   8.326  18.268  0.00  0.00    +0.000 A 
ATOM     20  C   UNL     1       1.986   9.571  17.669  0.00  0.00    +0.000 A 
ATOM     21  C   UNL     1       1.330  10.584  18.382  0.00  0.00    +0.000 A 
ATOM     22  C   UNL     1       0.913  10.360  19.693  0.00  0.00    +0.000 A 
ATOM     23  F   UNL     1       0.281  11.350  20.340  0.00  0.00    +0.000 F 
BRANCH  17  25
ATOM     24  N   UNL     1       1.658   8.952  22.684  0.00  0.00    +0.000 N 
ATOM     25  C   UNL     1       0.722   8.843  21.697  0.00  0.00    +0.000 C 
ATOM     26  O   UNL     1      -0.436   8.543  21.958  0.00  0.00    +0.000 OA
ATOM     27  H   UNL     1       1.371   8.745  23.630  0.00  0.00    +0.000 HD
ATOM     28  H   UNL     1       2.629   9.166  22.500  0.00  0.00    +0.000 HD
ENDBRANCH  17  25
ENDBRANCH  13  19
ENDBRANCH   1  14
BRANCH   3  29
ATOM     29  C   UNL     1       6.736   4.286  14.138  0.00  0.00    +0.000 C 
BRANCH  29  30
ATOM     30  C   UNL     1       6.029   3.592  12.994  0.00  0.00    +0.000 A 
ATOM     31  C   UNL     1       4.754   4.010  12.577  0.00  0.00    +0.000 A 
ATOM     32  C   UNL     1       4.095   3.359  11.532  0.00  0.00    +0.000 A 
ATOM     33  C   UNL     1       4.710   2.294  10.878  0.00  0.00    +0.000 A 
ATOM     34  C   UNL     1       5.987   1.887  11.262  0.00  0.00    +0.000 A 
ATOM     35  C   UNL     1       6.644   2.533  12.312  0.00  0.00    +0.000 A 
ENDBRANCH  29  30
ENDBRANCH   3  29
TORSDOF 6
ENDMDL
MODEL 2
REMARK VINA RESULT:      -8.1      0.571      1.026
REMARK  Name = 
REMARK  6 active torsions:
REMARK  status: ('A' for Active; 'I' for Inactive)
REMARK    1  A    between atoms: C_2  and  C_4
REMARK    2  A    between atoms: C_6  and  N_7
REMARK    3  A    between atoms: C_8  and  C_10
REMARK    4  A    between atoms: N_12  and  C_13
REMARK    5  A    between atoms: C_13  and  C_14
REMARK    6  A    between atoms: C_21  and  C_22
REMARK                            x       y       z     vdW  Elec       q    Type
REMARK                         _______ _______ _______ _____ _____    ______ ____
ROOT
ATOM      1  C   UNL     1       4.629   6.035  16.584  0.00  0.00    +0.000 A 
ATOM      2  C   UNL     1       5.351   6.022  15.403  0.00  0.00    +0.000 A 
ATOM      3  N   UNL     1       5.715   4.717  15.206  0.00  0.00    +0.000 N 
ATOM      4  N   UNL     1       5.122   3.865  16.060  0.00  0.00    +0.000 NA
ATOM      5  C   UNL     1       4.478   4.651  16.939  0.00  0.00    +0.000 A 
ENDROOT
BRANCH   5   6
ATOM      6  C   UNL     1       3.739   4.056  18.062  0.00  0.00    +0.000 A 
ATOM      7  C   UNL     1       2.336   4.053  18.067  0.00  0.00    +0.000 A 
ATOM      8  C   UNL     1       1.628   3.492  19.137  0.00  0.00    +0.000 A 
ATOM      9  C   UNL     1       2.320   2.927  20.206  0.00  0.00    +0.000 A 
ATOM     10 CL   UNL     1       1.454   2.244  21.526  0.00  0.00    +0.000 Cl
ATOM     11  C   UNL     1       3.710   2.921  20.218  0.00  0.00    +0.000 A 
ATOM     12  C   UNL     1       4.415   3.498  19.159  0.00  0.00    +0.000 A 
ENDBRANCH   5   6
BRANCH   1  14
ATOM     13  N   UNL     1       2.825   7.348  17.518  0.00  0.00    +0.000 N 
ATOM     14  C   UNL     1       4.197   7.178  17.373  0.00  0.00    +0.000 C 
ATOM     15  O   UNL     1       5.038   7.890  17.911  0.00  0.00    +0.000 OA
ATOM     16  H   UNL     1       2.229   6.604  17.179  0.00  0.00    +0.000 HD
BRANCH  13  19
ATOM     17  C   UNL     1       1.164   9.234  20.313  0.00  0.00    +0.000 A 
ATOM     18  C   UNL     1       1.815   8.212  19.609  0.00  0.00    +0.000 A 
ATOM     19  C   UNL     1       2.227   8.383  18.281  0.00  0.00    +0.000 A 
ATOM     20  C   UNL     1       2.025   9.632  17.675  0.00  0.00    +0.000 A 
ATOM     21  C   UNL     1       1.392  10.666  18.380  0.00  0.00    +0.000 A 
ATOM     22  C   UNL     1       0.960  10.459  19.689  0.00  0.00    +0.000 A 
ATOM     23  F   UNL     1       0.351  11.469  20.328  0.00  0.00    +0.000 F 
BRANCH  17  25
ATOM     24  N   UNL     1      -0.440   8.241  21.848  0.00  0.00    +0.000 N 
ATOM     25  C   UNL     1       0.712   8.956  21.697  0.00  0.00    +0.000 C 
ATOM     26  O   UNL     1       1.356   9.324  22.670  0.00  0.00    +0.000 OA
ATOM     27  H   UNL     1      -0.759   8.053  22.788  0.00  0.00    +0.000 HD
ATOM     28  H   UNL     1      -1.014   7.949  21.068  0.00  0.00    +0.000 HD
ENDBRANCH  17  25
ENDBRANCH  13  19
ENDBRANCH   1  14
BRANCH   3  29
ATOM     29  C   UNL     1       6.639   4.197  14.202  0.00  0.00    +0.000 C 
BRANCH  29  30
ATOM     30  C   UNL     1       5.913   3.556  13.040  0.00  0.00    +0.000 A 
ATOM     31  C   UNL     1       6.474   2.464  12.355  0.00  0.00    +0.000 A 
ATOM     32  C   UNL     1       5.810   1.883  11.272  0.00  0.00    +0.000 A 
ATOM     33  C   UNL     1       4.571   2.375  10.870  0.00  0.00    +0.000 A 
ATOM     34  C   UNL     1       3.990   3.440  11.557  0.00  0.00    +0.000 A 
ATOM     35  C   UNL     1       4.655   4.026  12.637  0.00  0.00    +0.000 A 
ENDBRANCH  29  30
ENDBRANCH   3  29
TORSDOF 6
ENDMDL
MODEL 3
REMARK VINA RESULT:      -8.0      1.482      1.818
REMARK  Name = 
REMARK  6 active torsions:
REMARK  status: ('A' for Active; 'I' for Inactive)
REMARK    1  A    between atoms: C_2  and  C_4
REMARK    2  A    between atoms: C_6  and  N_7
REMARK    3  A    between atoms: C_8  and  C_10
REMARK    4  A    between atoms: N_12  and  C_13
REMARK    5  A    between atoms: C_13  and  C_14
REMARK    6  A    between atoms: C_21  and  C_22
REMARK                            x       y       z     vdW  Elec       q    Type
REMARK                         _______ _______ _______ _____ _____    ______ ____
ROOT
ATOM      1  C   UNL     1       4.033   6.604  17.216  0.00  0.00    +0.000 A 
ATOM      2  C   UNL     1       5.040   6.693  16.271  0.00  0.00    +0.000 A 
ATOM      3  N   UNL     1       5.807   5.572  16.442  0.00  0.00    +0.000 N 
ATOM      4  N   UNL     1       5.264   4.679  17.287  0.00  0.00    +0.000 NA
ATOM      5  C   UNL     1       4.192   5.302  17.804  0.00  0.00    +0.000 A 
ENDROOT
BRANCH   5   6
ATOM      6  C   UNL     1       3.363   4.633  18.816  0.00  0.00    +0.000 A 
ATOM      7  C   UNL     1       2.355   3.737  18.429  0.00  0.00    +0.000 A 
ATOM      8  C   UNL     1       1.558   3.102  19.390  0.00  0.00    +0.000 A 
ATOM      9  C   UNL     1       1.769   3.355  20.743  0.00  0.00    +0.000 A 
ATOM     10 CL   UNL     1       0.788   2.582  21.926  0.00  0.00    +0.000 Cl
ATOM     11  C   UNL     1       2.764   4.240  21.145  0.00  0.00    +0.000 A 
ATOM     12  C   UNL     1       3.544   4.888  20.185  0.00  0.00    +0.000 A 
ENDBRANCH   5   6
BRANCH   1  14
ATOM     13  N   UNL     1       2.578   7.520  18.918  0.00  0.00    +0.000 N 
ATOM     14  C   UNL     1       3.076   7.621  17.624  0.00  0.00    +0.000 C 
ATOM     15  O   UNL     1       2.800   8.533  16.851  0.00  0.00    +0.000 OA
ATOM     16  H   UNL     1       3.006   6.833  19.525  0.00  0.00    +0.000 HD
BRANCH  13  19
ATOM     17  C   UNL     1       0.513   9.428  21.413  0.00  0.00    +0.000 A 
ATOM     18  C   UNL     1       1.471   8.556  20.878  0.00  0.00    +0.000 A 
ATOM     19  C   UNL     1       1.668   8.442  19.495  0.00  0.00    +0.000 A 
ATOM     20  C   UNL     1       0.917   9.267  18.644  0.00  0.00    +0.000 A 
ATOM     21  C   UNL     1      -0.028  10.156  19.173  0.00  0.00    +0.000 A 
ATOM     22  C   UNL     1      -0.230  10.226  20.550  0.00  0.00    +0.000 A 
ATOM     23  F   UNL     1      -1.149  11.082  21.019  0.00  0.00    +0.000 F 
BRANCH  17  25
ATOM     24  N   UNL     1      -0.944   9.324  23.358  0.00  0.00    +0.000 N 
ATOM     25  C   UNL     1       0.329   9.452  22.883  0.00  0.00    +0.000 C 
ATOM     26  O   UNL     1       1.278   9.552  23.649  0.00  0.00    +0.000 OA
ATOM     27  H   UNL     1      -1.079   9.346  24.359  0.00  0.00    +0.000 HD
ATOM     28  H   UNL     1      -1.754   9.272  22.754  0.00  0.00    +0.000 HD
ENDBRANCH  17  25
ENDBRANCH  13  19
ENDBRANCH   1  14
BRANCH   3  29
ATOM     29  C   UNL     1       7.094   5.276  15.818  0.00  0.00    +0.000 C 
BRANCH  29  30
ATOM     30  C   UNL     1       6.936   4.786  14.395  0.00  0.00    +0.000 A 
ATOM     31  C   UNL     1       5.939   3.854  14.061  0.00  0.00    +0.000 A 
ATOM     32  C   UNL     1       5.804   3.391  12.751  0.00  0.00    +0.000 A 
ATOM     33  C   UNL     1       6.653   3.865  11.753  0.00  0.00    +0.000 A 
ATOM     34  C   UNL     1       7.629   4.811  12.065  0.00  0.00    +0.000 A 
ATOM     35  C   UNL     1       7.769   5.271  13.377  0.00  0.00    +0.000 A 
ENDBRANCH  29  30
ENDBRANCH   3  29
TORSDOF 6
ENDMDL
MODEL 4
REMARK VINA RESULT:      -7.9      1.808      2.459
REMARK  Name = 
REMARK  6 active torsions:
REMARK  status: ('A' for Active; 'I' for Inactive)
REMARK    1  A    between atoms: C_2  and  C_4
REMARK    2  A    between atoms: C_6  and  N_7
REMARK    3  A    between atoms: C_8  and  C_10
REMARK    4  A    between atoms: N_12  and  C_13
REMARK    5  A    between atoms: C_13  and  C_14
REMARK    6  A    between atoms: C_21  and  C_22
REMARK                            x       y       z     vdW  Elec       q    Type
REMARK                         _______ _______ _______ _____ _____    ______ ____
ROOT
ATOM      1  C   UNL     1       3.943   6.640  17.373  0.00  0.00    +0.000 A 
ATOM      2  C   UNL     1       4.939   6.786  16.423  0.00  0.00    +0.000 A 
ATOM      3  N   UNL     1       5.730   5.674  16.541  0.00  0.00    +0.000 N 
ATOM      4  N   UNL     1       5.213   4.738  17.356  0.00  0.00    +0.000 NA
ATOM      5  C   UNL     1       4.134   5.319  17.907  0.00  0.00    +0.000 A 
ENDROOT
BRANCH   5   6
ATOM      6  C   UNL     1       3.328   4.594  18.899  0.00  0.00    +0.000 A 
ATOM      7  C   UNL     1       2.013   4.208  18.601  0.00  0.00    +0.000 A 
ATOM      8  C   UNL     1       1.239   3.522  19.545  0.00  0.00    +0.000 A 
ATOM      9  C   UNL     1       1.780   3.213  20.791  0.00  0.00    +0.000 A 
ATOM     10 CL   UNL     1       0.830   2.376  21.957  0.00  0.00    +0.000 Cl
ATOM     11  C   UNL     1       3.081   3.588  21.105  0.00  0.00    +0.000 A 
ATOM     12  C   UNL     1       3.845   4.289  20.169  0.00  0.00    +0.000 A 
ENDBRANCH   5   6
BRANCH   1  14
ATOM     13  N   UNL     1       2.508   7.474  19.132  0.00  0.00    +0.000 N 
ATOM     14  C   UNL     1       2.971   7.620  17.830  0.00  0.00    +0.000 C 
ATOM     15  O   UNL     1       2.653   8.543  17.087  0.00  0.00    +0.000 OA
ATOM     16  H   UNL     1       2.969   6.784  19.711  0.00  0.00    +0.000 HD
BRANCH  13  19
ATOM     17  C   UNL     1       0.106  10.301  19.733  0.00  0.00    +0.000 A 
ATOM     18  C   UNL     1       0.956   9.405  19.073  0.00  0.00    +0.000 A 
ATOM     19  C   UNL     1       1.589   8.356  19.754  0.00  0.00    +0.000 A 
ATOM     20  C   UNL     1       1.309   8.182  21.118  0.00  0.00    +0.000 A 
ATOM     21  C   UNL     1       0.443   9.063  21.781  0.00  0.00    +0.000 A 
ATOM     22  C   UNL     1      -0.146  10.119  21.088  0.00  0.00    +0.000 A 
ATOM     23  F   UNL     1      -0.961  10.946  21.759  0.00  0.00    +0.000 F 
BRANCH  17  25
ATOM     24  N   UNL     1       0.378  12.325  18.411  0.00  0.00    +0.000 N 
ATOM     25  C   UNL     1      -0.483  11.415  18.954  0.00  0.00    +0.000 C 
ATOM     26  O   UNL     1      -1.690  11.507  18.772  0.00  0.00    +0.000 OA
ATOM     27  H   UNL     1      -0.016  13.091  17.884  0.00  0.00    +0.000 HD
ATOM     28  H   UNL     1       1.376  12.298  18.568  0.00  0.00    +0.000 HD
ENDBRANCH  17  25
ENDBRANCH  13  19
ENDBRANCH   1  14
BRANCH   3  29
ATOM     29  C   UNL     1       7.016   5.429  15.895  0.00  0.00    +0.000 C 
BRANCH  29  30
ATOM     30  C   UNL     1       6.852   4.859  14.503  0.00  0.00    +0.000 A 
ATOM     31  C   UNL     1       7.695   5.267  13.454  0.00  0.00    +0.000 A 
ATOM     32  C   UNL     1       7.533   4.752  12.167  0.00  0.00    +0.000 A 
ATOM     33  C   UNL     1       6.539   3.810  11.913  0.00  0.00    +0.000 A 
ATOM     34  C   UNL     1       5.714   3.375  12.950  0.00  0.00    +0.000 A 
ATOM     35  C   UNL     1       5.871   3.894  14.238  0.00  0.00    +0.000 A 
ENDBRANCH  29  30
ENDBRANCH   3  29
TORSDOF 6
ENDMDL
MODEL 5
REMARK VINA RESULT:      -7.9      1.872      2.594
REMARK  Name = 
REMARK  6 active torsions:
REMARK  status: ('A' for Active; 'I' for Inactive)
REMARK    1  A    between atoms: C_2  and  C_4
REMARK    2  A    between atoms: C_6  and  N_7
REMARK    3  A    between atoms: C_8  and  C_10
REMARK    4  A    between atoms: N_12  and  C_13
REMARK    5  A    between atoms: C_13  and  C_14
REMARK    6  A    between atoms: C_21  and  C_22
REMARK                            x       y       z     vdW  Elec       q    Type
REMARK                         _______ _______ _______ _____ _____    ______ ____
ROOT
ATOM      1  C   UNL     1       3.951   6.609  17.382  0.00  0.00    +0.000 A 
ATOM      2  C   UNL     1       4.945   6.739  16.430  0.00  0.00    +0.000 A 
ATOM      3  N   UNL     1       5.720   5.617  16.546  0.00  0.00    +0.000 N 
ATOM      4  N   UNL     1       5.192   4.689  17.362  0.00  0.00    +0.000 NA
ATOM      5  C   UNL     1       4.124   5.285  17.917  0.00  0.00    +0.000 A 
ENDROOT
BRANCH   5   6
ATOM      6  C   UNL     1       3.310   4.572  18.911  0.00  0.00    +0.000 A 
ATOM      7  C   UNL     1       3.780   4.401  20.222  0.00  0.00    +0.000 A 
ATOM      8  C   UNL     1       3.010   3.717  21.171  0.00  0.00    +0.000 A 
ATOM      9  C   UNL     1       1.764   3.206  20.816  0.00  0.00    +0.000 A 
ATOM     10 CL   UNL     1       0.818   2.359  21.977  0.00  0.00    +0.000 Cl
ATOM     11  C   UNL     1       1.282   3.367  19.521  0.00  0.00    +0.000 A 
ATOM     12  C   UNL     1       2.060   4.032  18.571  0.00  0.00    +0.000 A 
ENDBRANCH   5   6
BRANCH   1  14
ATOM     13  N   UNL     1       2.503   7.442  19.132  0.00  0.00    +0.000 N 
ATOM     14  C   UNL     1       2.994   7.603  17.842  0.00  0.00    +0.000 C 
ATOM     15  O   UNL     1       2.712   8.548  17.113  0.00  0.00    +0.000 OA
ATOM     16  H   UNL     1       2.936   6.729  19.705  0.00  0.00    +0.000 HD
BRANCH  13  19
ATOM     17  C   UNL     1       0.226  10.361  19.779  0.00  0.00    +0.000 A 
ATOM     18  C   UNL     1       1.068   9.462  19.112  0.00  0.00    +0.000 A 
ATOM     19  C   UNL     1       1.594   8.334  19.756  0.00  0.00    +0.000 A 
ATOM     20  C   UNL     1       1.213   8.085  21.083  0.00  0.00    +0.000 A 
ATOM     21  C   UNL     1       0.355   8.970  21.750  0.00  0.00    +0.000 A 
ATOM     22  C   UNL     1      -0.127  10.103  21.099  0.00  0.00    +0.000 A 
ATOM     23  F   UNL     1      -0.939  10.931  21.773  0.00  0.00    +0.000 F 
BRANCH  17  25
ATOM     24  N   UNL     1      -1.489  11.501  18.484  0.00  0.00    +0.000 N 
ATOM     25  C   UNL     1      -0.246  11.559  19.045  0.00  0.00    +0.000 C 
ATOM     26  O   UNL     1       0.432  12.574  18.966  0.00  0.00    +0.000 OA
ATOM     27  H   UNL     1      -1.815  12.311  17.976  0.00  0.00    +0.000 HD
ATOM     28  H   UNL     1      -2.062  10.669  18.502  0.00  0.00    +0.000 HD
ENDBRANCH  17  25
ENDBRANCH  13  19
ENDBRANCH   1  14
BRANCH   3  29
ATOM     29  C   UNL     1       7.001   5.353  15.896  0.00  0.00    +0.000 C 
BRANCH  29  30
ATOM     30  C   UNL     1       6.825   4.819  14.492  0.00  0.00    +0.000 A 
ATOM     31  C   UNL     1       5.799   3.906  14.192  0.00  0.00    +0.000 A 
ATOM     32  C   UNL     1       5.648   3.401  12.899  0.00  0.00    +0.000 A 
ATOM     33  C   UNL     1       6.508   3.815  11.884  0.00  0.00    +0.000 A 
ATOM     34  C   UNL     1       7.512   4.742  12.160  0.00  0.00    +0.000 A 
ATOM     35  C   UNL     1       7.670   5.243  13.456  0.00  0.00    +0.000 A 
ENDBRANCH  29  30
ENDBRANCH   3  29
TORSDOF 6
ENDMDL
MODEL 6
REMARK VINA RESULT:      -7.8      2.151      2.741
REMARK  Name = 
REMARK  6 active torsions:
REMARK  status: ('A' for Active; 'I' for Inactive)
REMARK    1  A    between atoms: C_2  and  C_4
REMARK    2  A    between atoms: C_6  and  N_7
REMARK    3  A    between atoms: C_8  and  C_10
REMARK    4  A    between atoms: N_12  and  C_13
REMARK    5  A    between atoms: C_13  and  C_14
REMARK    6  A    between atoms: C_21  and  C_22
REMARK                            x       y       z     vdW  Elec       q    Type
REMARK                         _______ _______ _______ _____ _____    ______ ____
ROOT
ATOM      1  C   UNL     1       3.771   6.595  17.805  0.00  0.00    +0.000 A 
ATOM      2  C   UNL     1       4.717   6.816  16.820  0.00  0.00    +0.000 A 
ATOM      3  N   UNL     1       5.512   5.701  16.813  0.00  0.00    +0.000 N 
ATOM      4  N   UNL     1       5.036   4.704  17.577  0.00  0.00    +0.000 NA
ATOM      5  C   UNL     1       3.987   5.237  18.225  0.00  0.00    +0.000 A 
ENDROOT
BRANCH   5   6
ATOM      6  C   UNL     1       3.232   4.435  19.198  0.00  0.00    +0.000 A 
ATOM      7  C   UNL     1       1.830   4.396  19.149  0.00  0.00    +0.000 A 
ATOM      8  C   UNL     1       1.106   3.638  20.078  0.00  0.00    +0.000 A 
ATOM      9  C   UNL     1       1.780   2.910  21.056  0.00  0.00    +0.000 A 
ATOM     10 CL   UNL     1       0.893   1.982  22.202  0.00  0.00    +0.000 Cl
ATOM     11  C   UNL     1       3.168   2.937  21.119  0.00  0.00    +0.000 A 
ATOM     12  C   UNL     1       3.888   3.709  20.204  0.00  0.00    +0.000 A 
ENDBRANCH   5   6
BRANCH   1  14
ATOM     13  N   UNL     1       2.344   8.530  17.544  0.00  0.00    +0.000 N 
ATOM     14  C   UNL     1       2.824   7.534  18.385  0.00  0.00    +0.000 C 
ATOM     15  O   UNL     1       2.456   7.378  19.545  0.00  0.00    +0.000 OA
ATOM     16  H   UNL     1       2.580   8.459  16.562  0.00  0.00    +0.000 HD
BRANCH  13  19
ATOM     17  C   UNL     1      -0.845  10.497  17.846  0.00  0.00    +0.000 A 
ATOM     18  C   UNL     1       0.055   9.479  17.504  0.00  0.00    +0.000 A 
ATOM     19  C   UNL     1       1.390   9.507  17.929  0.00  0.00    +0.000 A 
ATOM     20  C   UNL     1       1.804  10.558  18.760  0.00  0.00    +0.000 A 
ATOM     21  C   UNL     1       0.904  11.569  19.122  0.00  0.00    +0.000 A 
ATOM     22  C   UNL     1      -0.410  11.537  18.659  0.00  0.00    +0.000 A 
ATOM     23  F   UNL     1      -1.239  12.527  19.020  0.00  0.00    +0.000 F 
BRANCH  17  25
ATOM     24  N   UNL     1      -2.540  11.238  16.267  0.00  0.00    +0.000 N 
ATOM     25  C   UNL     1      -2.226  10.421  17.314  0.00  0.00    +0.000 C 
ATOM     26  O   UNL     1      -3.050   9.639  17.770  0.00  0.00    +0.000 OA
ATOM     27  H   UNL     1      -3.482  11.198  15.903  0.00  0.00    +0.000 HD
ATOM     28  H   UNL     1      -1.896  11.919  15.887  0.00  0.00    +0.000 HD
ENDBRANCH  17  25
ENDBRANCH  13  19
ENDBRANCH   1  14
BRANCH   3  29
ATOM     29  C   UNL     1       6.764   5.511  16.085  0.00  0.00    +0.000 C 
BRANCH  29  30
ATOM     30  C   UNL     1       6.542   4.876  14.730  0.00  0.00    +0.000 A 
ATOM     31  C   UNL     1       5.374   4.142  14.462  0.00  0.00    +0.000 A 
ATOM     32  C   UNL     1       5.178   3.542  13.216  0.00  0.00    +0.000 A 
ATOM     33  C   UNL     1       6.137   3.684  12.216  0.00  0.00    +0.000 A 
ATOM     34  C   UNL     1       7.287   4.433  12.458  0.00  0.00    +0.000 A 
ATOM     35  C   UNL     1       7.489   5.027  13.707  0.00  0.00    +0.000 A 
ENDBRANCH  29  30
ENDBRANCH   3  29
TORSDOF 6
ENDMDL
MODEL 7
REMARK VINA RESULT:      -7.8      1.453      1.855
REMARK  Name = 
REMARK  6 active torsions:
REMARK  status: ('A' for Active; 'I' for Inactive)
REMARK    1  A    between atoms: C_2  and  C_4
REMARK    2  A    between atoms: C_6  and  N_7
REMARK    3  A    between atoms: C_8  and  C_10
REMARK    4  A    between atoms: N_12  and  C_13
REMARK    5  A    between atoms: C_13  and  C_14
REMARK    6  A    between atoms: C_21  and  C_22
REMARK                            x       y       z     vdW  Elec       q    Type
REMARK                         _______ _______ _______ _____ _____    ______ ____
ROOT
ATOM      1  C   UNL     1       4.661   5.983  16.540  0.00  0.00    +0.000 A 
ATOM      2  C   UNL     1       5.357   6.064  15.347  0.00  0.00    +0.000 A 
ATOM      3  N   UNL     1       5.809   4.797  15.094  0.00  0.00    +0.000 N 
ATOM      4  N   UNL     1       5.296   3.874  15.925  0.00  0.00    +0.000 NA
ATOM      5  C   UNL     1       4.616   4.579  16.845  0.00  0.00    +0.000 A 
ENDROOT
BRANCH   5   6
ATOM      6  C   UNL     1       3.945   3.892  17.958  0.00  0.00    +0.000 A 
ATOM      7  C   UNL     1       2.608   3.484  17.838  0.00  0.00    +0.000 A 
ATOM      8  C   UNL     1       1.963   2.835  18.898  0.00  0.00    +0.000 A 
ATOM      9  C   UNL     1       2.654   2.585  20.081  0.00  0.00    +0.000 A 
ATOM     10 CL   UNL     1       1.863   1.793  21.388  0.00  0.00    +0.000 Cl
ATOM     11  C   UNL     1       3.979   2.982  20.218  0.00  0.00    +0.000 A 
ATOM     12  C   UNL     1       4.615   3.647  19.167  0.00  0.00    +0.000 A 
ENDBRANCH   5   6
BRANCH   1  14
ATOM     13  N   UNL     1       2.831   6.988  17.761  0.00  0.00    +0.000 N 
ATOM     14  C   UNL     1       4.165   7.062  17.380  0.00  0.00    +0.000 C 
ATOM     15  O   UNL     1       4.938   7.938  17.753  0.00  0.00    +0.000 OA
ATOM     16  H   UNL     1       2.335   6.134  17.541  0.00  0.00    +0.000 HD
BRANCH  13  19
ATOM     17  C   UNL     1       1.208  10.128  19.038  0.00  0.00    +0.000 A 
ATOM     18  C   UNL     1       1.776   9.194  18.162  0.00  0.00    +0.000 A 
ATOM     19  C   UNL     1       2.190   7.930  18.605  0.00  0.00    +0.000 A 
ATOM     20  C   UNL     1       1.973   7.590  19.948  0.00  0.00    +0.000 A 
ATOM     21  C   UNL     1       1.387   8.512  20.826  0.00  0.00    +0.000 A 
ATOM     22  C   UNL     1       1.016   9.775  20.369  0.00  0.00    +0.000 A 
ATOM     23  F   UNL     1       0.466  10.634  21.241  0.00  0.00    +0.000 F 
BRANCH  17  25
ATOM     24  N   UNL     1      -0.436  11.633  18.064  0.00  0.00    +0.000 N 
ATOM     25  C   UNL     1       0.844  11.462  18.504  0.00  0.00    +0.000 C 
ATOM     26  O   UNL     1       1.644  12.387  18.484  0.00  0.00    +0.000 OA
ATOM     27  H   UNL     1      -0.691  12.537  17.692  0.00  0.00    +0.000 HD
ATOM     28  H   UNL     1      -1.114  10.882  18.036  0.00  0.00    +0.000 HD
ENDBRANCH  17  25
ENDBRANCH  13  19
ENDBRANCH   1  14
BRANCH   3  29
ATOM     29  C   UNL     1       6.746   4.382  14.054  0.00  0.00    +0.000 C 
BRANCH  29  30
ATOM     30  C   UNL     1       6.059   3.628  12.937  0.00  0.00    +0.000 A 
ATOM     31  C   UNL     1       4.765   3.983  12.519  0.00  0.00    +0.000 A 
ATOM     32  C   UNL     1       4.125   3.276  11.499  0.00  0.00    +0.000 A 
ATOM     33  C   UNL     1       4.777   2.217  10.870  0.00  0.00    +0.000 A 
ATOM     34  C   UNL     1       6.072   1.872  11.255  0.00  0.00    +0.000 A 
ATOM     35  C   UNL     1       6.711   2.574  12.281  0.00  0.00    +0.000 A 
ENDBRANCH  29  30
ENDBRANCH   3  29
TORSDOF 6
ENDMDL
MODEL 8
REMARK VINA RESULT:      -7.6      2.276      3.082
REMARK  Name = 
REMARK  6 active torsions:
REMARK  status: ('A' for Active; 'I' for Inactive)
REMARK    1  A    between atoms: C_2  and  C_4
REMARK    2  A    between atoms: C_6  and  N_7
REMARK    3  A    between atoms: C_8  and  C_10
REMARK    4  A    between atoms: N_12  and  C_13
REMARK    5  A    between atoms: C_13  and  C_14
REMARK    6  A    between atoms: C_21  and  C_22
REMARK                            x       y       z     vdW  Elec       q    Type
REMARK                         _______ _______ _______ _____ _____    ______ ____
ROOT
ATOM      1  C   UNL     1       3.572   6.747  17.875  0.00  0.00    +0.000 A 
ATOM      2  C   UNL     1       4.528   6.993  16.906  0.00  0.00    +0.000 A 
ATOM      3  N   UNL     1       5.346   5.895  16.906  0.00  0.00    +0.000 N 
ATOM      4  N   UNL     1       4.880   4.884  17.658  0.00  0.00    +0.000 NA
ATOM      5  C   UNL     1       3.810   5.392  18.293  0.00  0.00    +0.000 A 
ENDROOT
BRANCH   5   6
ATOM      6  C   UNL     1       3.057   4.570  19.250  0.00  0.00    +0.000 A 
ATOM      7  C   UNL     1       3.357   4.619  20.620  0.00  0.00    +0.000 A 
ATOM      8  C   UNL     1       2.645   3.832  21.534  0.00  0.00    +0.000 A 
ATOM      9  C   UNL     1       1.625   2.998  21.084  0.00  0.00    +0.000 A 
ATOM     10 CL   UNL     1       0.752   2.025  22.204  0.00  0.00    +0.000 Cl
ATOM     11  C   UNL     1       1.313   2.937  19.731  0.00  0.00    +0.000 A 
ATOM     12  C   UNL     1       2.037   3.707  18.818  0.00  0.00    +0.000 A 
ENDBRANCH   5   6
BRANCH   1  14
ATOM     13  N   UNL     1       2.118   8.661  17.605  0.00  0.00    +0.000 N 
ATOM     14  C   UNL     1       2.597   7.663  18.445  0.00  0.00    +0.000 C 
ATOM     15  O   UNL     1       2.206   7.488  19.595  0.00  0.00    +0.000 OA
ATOM     16  H   UNL     1       2.376   8.605  16.628  0.00  0.00    +0.000 HD
BRANCH  13  19
ATOM     17  C   UNL     1      -1.087  10.614  17.808  0.00  0.00    +0.000 A 
ATOM     18  C   UNL     1      -0.166   9.614  17.470  0.00  0.00    +0.000 A 
ATOM     19  C   UNL     1       1.140   9.617  17.980  0.00  0.00    +0.000 A 
ATOM     20  C   UNL     1       1.498  10.622  18.891  0.00  0.00    +0.000 A 
ATOM     21  C   UNL     1       0.575  11.613  19.249  0.00  0.00    +0.000 A 
ATOM     22  C   UNL     1      -0.707  11.608  18.702  0.00  0.00    +0.000 A 
ATOM     23  F   UNL     1      -1.559  12.579  19.061  0.00  0.00    +0.000 F 
BRANCH  17  25
ATOM     24  N   UNL     1      -2.611  11.275  16.032  0.00  0.00    +0.000 N 
ATOM     25  C   UNL     1      -2.431  10.569  17.186  0.00  0.00    +0.000 C 
ATOM     26  O   UNL     1      -3.341   9.904  17.664  0.00  0.00    +0.000 OA
ATOM     27  H   UNL     1      -3.527  11.256  15.604  0.00  0.00    +0.000 HD
ATOM     28  H   UNL     1      -1.893  11.861  15.627  0.00  0.00    +0.000 HD
ENDBRANCH  17  25
ENDBRANCH  13  19
ENDBRANCH   1  14
BRANCH   3  29
ATOM     29  C   UNL     1       6.613   5.734  16.196  0.00  0.00    +0.000 C 
BRANCH  29  30
ATOM     30  C   UNL     1       6.437   5.017  14.876  0.00  0.00    +0.000 A 
ATOM     31  C   UNL     1       7.431   5.081  13.884  0.00  0.00    +0.000 A 
ATOM     32  C   UNL     1       7.261   4.431  12.660  0.00  0.00    +0.000 A 
ATOM     33  C   UNL     1       6.104   3.695  12.417  0.00  0.00    +0.000 A 
ATOM     34  C   UNL     1       5.122   3.599  13.402  0.00  0.00    +0.000 A 
ATOM     35  C   UNL     1       5.287   4.254  14.626  0.00  0.00    +0.000 A 
ENDBRANCH  29  30
ENDBRANCH   3  29
TORSDOF 6
ENDMDL
MODEL 9
REMARK VINA RESULT:      -7.6      2.029      2.576
REMARK  Name = 
REMARK  6 active torsions:
REMARK  status: ('A' for Active; 'I' for Inactive)
REMARK    1  A    between atoms: C_2  and  C_4
REMARK    2  A    between atoms: C_6  and  N_7
REMARK    3  A    between atoms: C_8  and  C_10
REMARK    4  A    between atoms: N_12  and  C_13
REMARK    5  A    between atoms: C_13  and  C_14
REMARK    6  A    between atoms: C_21  and  C_22
REMARK                            x       y       z     vdW  Elec       q    Type
REMARK                         _______ _______ _______ _____ _____    ______ ____
ROOT
ATOM      1  C   UNL     1       3.930   6.567  17.666  0.00  0.00    +0.000 A 
ATOM      2  C   UNL     1       4.861   6.749  16.660  0.00  0.00    +0.000 A 
ATOM      3  N   UNL     1       5.606   5.600  16.632  0.00  0.00    +0.000 N 
ATOM      4  N   UNL     1       5.105   4.623  17.407  0.00  0.00    +0.000 NA
ATOM      5  C   UNL     1       4.096   5.201  18.081  0.00  0.00    +0.000 A 
ENDROOT
BRANCH   5   6
ATOM      6  C   UNL     1       3.329   4.431  19.070  0.00  0.00    +0.000 A 
ATOM      7  C   UNL     1       1.927   4.477  19.074  0.00  0.00    +0.000 A 
ATOM      8  C   UNL     1       1.193   3.749  20.019  0.00  0.00    +0.000 A 
ATOM      9  C   UNL     1       1.857   2.968  20.961  0.00  0.00    +0.000 A 
ATOM     10 CL   UNL     1       0.958   2.077  22.127  0.00  0.00    +0.000 Cl
ATOM     11  C   UNL     1       3.246   2.910  20.972  0.00  0.00    +0.000 A 
ATOM     12  C   UNL     1       3.977   3.652  20.041  0.00  0.00    +0.000 A 
ENDBRANCH   5   6
BRANCH   1  14
ATOM     13  N   UNL     1       2.601   8.576  17.447  0.00  0.00    +0.000 N 
ATOM     14  C   UNL     1       3.039   7.546  18.270  0.00  0.00    +0.000 C 
ATOM     15  O   UNL     1       2.676   7.394  19.432  0.00  0.00    +0.000 OA
ATOM     16  H   UNL     1       2.821   8.506  16.462  0.00  0.00    +0.000 HD
BRANCH  13  19
ATOM     17  C   UNL     1       1.220  11.822  18.744  0.00  0.00    +0.000 A 
ATOM     18  C   UNL     1       2.128  10.862  18.281  0.00  0.00    +0.000 A 
ATOM     19  C   UNL     1       1.703   9.595  17.855  0.00  0.00    +0.000 A 
ATOM     20  C   UNL     1       0.327   9.321  17.848  0.00  0.00    +0.000 A 
ATOM     21  C   UNL     1      -0.589  10.285  18.291  0.00  0.00    +0.000 A 
ATOM     22  C   UNL     1      -0.138  11.524  18.742  0.00  0.00    +0.000 A 
ATOM     23  F   UNL     1      -1.044  12.417  19.167  0.00  0.00    +0.000 F 
BRANCH  17  25
ATOM     24  N   UNL     1       2.041  13.222  20.556  0.00  0.00    +0.000 N 
ATOM     25  C   UNL     1       1.753  13.118  19.226  0.00  0.00    +0.000 C 
ATOM     26  O   UNL     1       1.959  14.053  18.464  0.00  0.00    +0.000 OA
ATOM     27  H   UNL     1       2.398  14.104  20.894  0.00  0.00    +0.000 HD
ATOM     28  H   UNL     1       1.853  12.482  21.219  0.00  0.00    +0.000 HD
ENDBRANCH  17  25
ENDBRANCH  13  19
ENDBRANCH   1  14
BRANCH   3  29
ATOM     29  C   UNL     1       6.831   5.357  15.875  0.00  0.00    +0.000 C 
BRANCH  29  30
ATOM     30  C   UNL     1       6.548   4.758  14.515  0.00  0.00    +0.000 A 
ATOM     31  C   UNL     1       7.470   4.892  13.463  0.00  0.00    +0.000 A 
ATOM     32  C   UNL     1       7.200   4.352  12.204  0.00  0.00    +0.000 A 
ATOM     33  C   UNL     1       6.014   3.656  11.983  0.00  0.00    +0.000 A 
ATOM     34  C   UNL     1       5.103   3.491  13.025  0.00  0.00    +0.000 A 
ATOM     35  C   UNL     1       5.368   4.036  14.284  0.00  0.00    +0.000 A 
ENDBRANCH  29  30
ENDBRANCH   3  29
TORSDOF 6
ENDMDL
