MODEL 1
REMARK VINA RESULT:      -8.5      0.000      0.000
REMARK  Name = 
REMARK  6 active torsions:
REMARK  status: ('A' for Active; 'I' for Inactive)
REMARK    1  A    between atoms: C_2  and  C_15
REMARK    2  A    between atoms: N_3  and  C_4
REMARK    3  A    between atoms: C_4  and  C_5
REMARK    4  A    between atoms: C_19  and  O_20
REMARK    5  A    between atoms: O_20  and  C_21
REMARK    6  A    between atoms: C_21  and  C_22
REMARK                            x       y       z     vdW  Elec       q    Type
REMARK                         _______ _______ _______ _____ _____    ______ ____
ROOT
ATOM      1  O   UNL     1       2.664   8.525  17.895  0.00  0.00    +0.000 OA
ATOM      2  C   UNL     1       2.105   8.131  18.914  0.00  0.00    +0.000 C 
ATOM      3  N   UNL     1       1.243   8.908  19.657  0.00  0.00    +0.000 N 
ATOM      4  H   UNL     1       1.012   8.622  20.599  0.00  0.00    +0.000 HD
ENDROOT
BRANCH   2   5
ATOM      5  C   UNL     1       2.383   6.763  19.435  0.00  0.00    +0.000 A 
ATOM      6  C   UNL     1       1.628   6.300  20.518  0.00  0.00    +0.000 A 
ATOM      7  C   UNL     1       1.837   5.015  21.018  0.00  0.00    +0.000 A 
ATOM      8  C   UNL     1       2.814   4.193  20.450  0.00  0.00    +0.000 A 
ATOM      9  C   UNL     1       3.597   4.659  19.390  0.00  0.00    +0.000 A 
ATOM     10  C   UNL     1       3.375   5.943  18.882  0.00  0.00    +0.000 A 
BRANCH   9  11
ATOM     11  O   UNL     1       4.562   3.935  18.743  0.00  0.00    +0.000 OA
BRANCH  11  12
ATOM     12  C   UNL     1       5.779   4.625  18.447  0.00  0.00    +0.000 C 
BRANCH  12  13
ATOM     13  C   UNL     1       6.060   4.595  16.968  0.00  0.00    +0.000 A 
ATOM     14  C   UNL     1       5.071   4.205  16.057  0.00  0.00    +0.000 A 
ATOM     15  C   UNL     1       5.331   4.245  14.689  0.00  0.00    +0.000 A 
ATOM     16  C   UNL     1       6.574   4.688  14.271  0.00  0.00    +0.000 A 
ATOM     17  N   UNL     1       7.547   5.091  15.115  0.00  0.00    +0.000 NA
ATOM     18  C   UNL     1       7.267   5.040  16.439  0.00  0.00    +0.000 A 
ENDBRANCH  12  13
ENDBRANCH  11  12
ENDBRANCH   9  11
ENDBRANCH   2   5
BRANCH   3  19
ATOM     19  C   UNL     1       1.005  10.295  19.312  0.00  0.00    +0.000 C 
BRANCH  19  20
ATOM     20  C   UNL     1      -0.395  10.504  18.793  0.00  0.00    +0.000 A 
ATOM     21  C   UNL     1      -0.810   9.869  17.617  0.00  0.00    +0.000 A 
ATOM     22  C   UNL     1      -2.100  10.062  17.118  0.00  0.00    +0.000 A 
ATOM     23  C   UNL     1      -3.013  10.891  17.787  0.00  0.00    +0.000 A 
ATOM     24  C   UNL     1      -4.321  11.077  17.310  0.00  0.00    +0.000 A 
ATOM     25  C   UNL     1      -5.222  11.897  17.992  0.00  0.00    +0.000 A 
ATOM     26  C   UNL     1      -4.821  12.549  19.153  0.00  0.00    +0.000 A 
ATOM     27  C   UNL     1      -3.520  12.383  19.635  0.00  0.00    +0.000 A 
ATOM     28  C   UNL     1      -2.605  11.551  18.968  0.00  0.00    +0.000 A 
ATOM     29  C   UNL     1      -1.296  11.356  19.451  0.00  0.00    +0.000 A 
ENDBRANCH  19  20
ENDBRANCH   3  19
TORSDOF 6
ENDMDL
MODEL 2
REMARK VINA RESULT:      -8.5      3.512     10.291
REMARK  Name = 
REMARK  6 active torsions:
REMARK  status: ('A' for Active; 'I' for Inactive)
REMARK    1  A    between atoms: C_2  and  C_15
REMARK    2  A    between atoms: N_3  and  C_4
REMARK    3  A    between atoms: C_4  and  C_5
REMARK    4  A    between atoms: C_19  and  O_20
REMARK    5  A    between atoms: O_20  and  C_21
REMARK    6  A    between atoms: C_21  and  C_22
REMARK                            x       y       z     vdW  Elec       q    Type
REMARK                         _______ _______ _______ _____ _____    ______ ____
ROOT
ATOM      1  O   UNL     1       1.454  11.025  18.749  0.00  0.00    +0.000 OA
ATOM      2  C   UNL     1       1.287  10.051  19.477  0.00  0.00    +0.000 C 
ATOM      3  N   UNL     1       1.754   8.790  19.177  0.00  0.00    +0.000 N 
ATOM      4  H   UNL     1       1.381   7.995  19.679  0.00  0.00    +0.000 HD
ENDROOT
BRANCH   2   5
ATOM      5  C   UNL     1       0.503  10.187  20.736  0.00  0.00    +0.000 A 
ATOM      6  C   UNL     1       0.401   9.074  21.578  0.00  0.00    +0.000 A 
ATOM      7  C   UNL     1      -0.300   9.168  22.779  0.00  0.00    +0.000 A 
ATOM      8  C   UNL     1      -0.919  10.369  23.138  0.00  0.00    +0.000 A 
ATOM      9  C   UNL     1      -0.852  11.475  22.288  0.00  0.00    +0.000 A 
ATOM     10  C   UNL     1      -0.136  11.383  21.090  0.00  0.00    +0.000 A 
BRANCH   9  11
ATOM     11  O   UNL     1      -1.397  12.704  22.547  0.00  0.00    +0.000 OA
BRANCH  11  12
ATOM     12  C   UNL     1      -2.588  13.033  21.827  0.00  0.00    +0.000 C 
BRANCH  12  13
ATOM     13  C   UNL     1      -3.808  12.771  22.672  0.00  0.00    +0.000 A 
ATOM     14  C   UNL     1      -3.697  12.577  24.053  0.00  0.00    +0.000 A 
ATOM     15  C   UNL     1      -4.843  12.399  24.825  0.00  0.00    +0.000 A 
ATOM     16  C   UNL     1      -6.072  12.434  24.190  0.00  0.00    +0.000 A 
ATOM     17  N   UNL     1      -6.224  12.638  22.864  0.00  0.00    +0.000 NA
ATOM     18  C   UNL     1      -5.093  12.806  22.139  0.00  0.00    +0.000 A 
ENDBRANCH  12  13
ENDBRANCH  11  12
ENDBRANCH   9  11
ENDBRANCH   2   5
BRANCH   3  19
ATOM     19  C   UNL     1       2.415   8.520  17.916  0.00  0.00    +0.000 C 
BRANCH  19  20
ATOM     20  C   UNL     1       2.843   7.078  17.814  0.00  0.00    +0.000 A 
ATOM     21  C   UNL     1       4.138   6.758  17.392  0.00  0.00    +0.000 A 
ATOM     22  C   UNL     1       4.545   5.426  17.281  0.00  0.00    +0.000 A 
ATOM     23  C   UNL     1       3.668   4.378  17.597  0.00  0.00    +0.000 A 
ATOM     24  C   UNL     1       4.070   3.034  17.513  0.00  0.00    +0.000 A 
ATOM     25  C   UNL     1       3.189   2.002  17.841  0.00  0.00    +0.000 A 
ATOM     26  C   UNL     1       1.893   2.301  18.246  0.00  0.00    +0.000 A 
ATOM     27  C   UNL     1       1.474   3.632  18.325  0.00  0.00    +0.000 A 
ATOM     28  C   UNL     1       2.351   4.684  18.011  0.00  0.00    +0.000 A 
ATOM     29  C   UNL     1       1.953   6.032  18.105  0.00  0.00    +0.000 A 
ENDBRANCH  19  20
ENDBRANCH   3  19
TORSDOF 6
ENDMDL
MODEL 3
REMARK VINA RESULT:      -8.4      3.398     10.168
REMARK  Name = 
REMARK  6 active torsions:
REMARK  status: ('A' for Active; 'I' for Inactive)
REMARK    1  A    between atoms: C_2  and  C_15
REMARK    2  A    between atoms: N_3  and  C_4
REMARK    3  A    between atoms: C_4  and  C_5
REMARK    4  A    between atoms: C_19  and  O_20
REMARK    5  A    between atoms: O_20  and  C_21
REMARK    6  A    between atoms: C_21  and  C_22
REMARK                            x       y       z     vdW  Elec       q    Type
REMARK                         _______ _______ _______ _____ _____    ______ ____
ROOT
ATOM      1  O   UNL     1       0.282   9.752  17.974  0.00  0.00    +0.000 OA
ATOM      2  C   UNL     1       0.919   9.495  18.990  0.00  0.00    +0.000 C 
ATOM      3  N   UNL     1       2.173   8.924  18.977  0.00  0.00    +0.000 N 
ATOM      4  H   UNL     1       2.536   8.516  19.828  0.00  0.00    +0.000 HD
ENDROOT
BRANCH   2   5
ATOM      5  C   UNL     1       0.322   9.756  20.330  0.00  0.00    +0.000 A 
ATOM      6  C   UNL     1       0.443   8.768  21.314  0.00  0.00    +0.000 A 
ATOM      7  C   UNL     1      -0.077   8.985  22.589  0.00  0.00    +0.000 A 
ATOM      8  C   UNL     1      -0.737  10.182  22.884  0.00  0.00    +0.000 A 
ATOM      9  C   UNL     1      -0.892  11.159  21.899  0.00  0.00    +0.000 A 
ATOM     10  C   UNL     1      -0.358  10.946  20.624  0.00  0.00    +0.000 A 
BRANCH   9  11
ATOM     11  O   UNL     1      -1.497  12.375  22.080  0.00  0.00    +0.000 OA
BRANCH  11  12
ATOM     12  C   UNL     1      -2.060  12.614  23.373  0.00  0.00    +0.000 C 
BRANCH  12  13
ATOM     13  C   UNL     1      -3.562  12.690  23.292  0.00  0.00    +0.000 A 
ATOM     14  C   UNL     1      -4.207  12.855  22.061  0.00  0.00    +0.000 A 
ATOM     15  C   UNL     1      -5.600  12.859  22.001  0.00  0.00    +0.000 A 
ATOM     16  C   UNL     1      -6.307  12.685  23.178  0.00  0.00    +0.000 A 
ATOM     17  N   UNL     1      -5.723  12.502  24.381  0.00  0.00    +0.000 NA
ATOM     18  C   UNL     1      -4.369  12.505  24.410  0.00  0.00    +0.000 A 
ENDBRANCH  12  13
ENDBRANCH  11  12
ENDBRANCH   9  11
ENDBRANCH   2   5
BRANCH   3  19
ATOM     19  C   UNL     1       2.789   8.509  17.733  0.00  0.00    +0.000 C 
BRANCH  19  20
ATOM     20  C   UNL     1       3.060   7.026  17.718  0.00  0.00    +0.000 A 
ATOM     21  C   UNL     1       4.300   6.542  17.283  0.00  0.00    +0.000 A 
ATOM     22  C   UNL     1       4.561   5.171  17.253  0.00  0.00    +0.000 A 
ATOM     23  C   UNL     1       3.591   4.245  17.665  0.00  0.00    +0.000 A 
ATOM     24  C   UNL     1       3.847   2.863  17.662  0.00  0.00    +0.000 A 
ATOM     25  C   UNL     1       2.875   1.955  18.085  0.00  0.00    +0.000 A 
ATOM     26  C   UNL     1       1.633   2.416  18.505  0.00  0.00    +0.000 A 
ATOM     27  C   UNL     1       1.358   3.786  18.504  0.00  0.00    +0.000 A 
ATOM     28  C   UNL     1       2.329   4.716  18.094  0.00  0.00    +0.000 A 
ATOM     29  C   UNL     1       2.077   6.102  18.106  0.00  0.00    +0.000 A 
ENDBRANCH  19  20
ENDBRANCH   3  19
TORSDOF 6
ENDMDL
MODEL 4
REMARK VINA RESULT:      -8.4      1.097      1.182
REMARK  Name = 
REMARK  6 active torsions:
REMARK  status: ('A' for Active; 'I' for Inactive)
REMARK    1  A    between atoms: C_2  and  C_15
REMARK    2  A    between atoms: N_3  and  C_4
REMARK    3  A    between atoms: C_4  and  C_5
REMARK    4  A    between atoms: C_19  and  O_20
REMARK    5  A    between atoms: O_20  and  C_21
REMARK    6  A    between atoms: C_21  and  C_22
REMARK                            x       y       z     vdW  Elec       q    Type
REMARK                         _______ _______ _______ _____ _____    ______ ____
ROOT
ATOM      1  O   UNL     1       0.664   8.484  21.504  0.00  0.00    +0.000 OA
ATOM      2  C   UNL     1       1.290   8.358  20.456  0.00  0.00    +0.000 C 
ATOM      3  N   UNL     1       1.435   9.369  19.532  0.00  0.00    +0.000 N 
ATOM      4  H   UNL     1       1.742   9.140  18.596  0.00  0.00    +0.000 HD
ENDROOT
BRANCH   2   5
ATOM      5  C   UNL     1       1.900   7.045  20.106  0.00  0.00    +0.000 A 
ATOM      6  C   UNL     1       1.587   5.936  20.901  0.00  0.00    +0.000 A 
ATOM      7  C   UNL     1       2.115   4.683  20.590  0.00  0.00    +0.000 A 
ATOM      8  C   UNL     1       2.972   4.535  19.496  0.00  0.00    +0.000 A 
ATOM      9  C   UNL     1       3.316   5.642  18.718  0.00  0.00    +0.000 A 
ATOM     10  C   UNL     1       2.775   6.895  19.022  0.00  0.00    +0.000 A 
BRANCH   9  11
ATOM     11  O   UNL     1       4.125   5.610  17.613  0.00  0.00    +0.000 OA
BRANCH  11  12
ATOM     12  C   UNL     1       4.832   4.388  17.381  0.00  0.00    +0.000 C 
BRANCH  12  13
ATOM     13  C   UNL     1       5.707   4.506  16.161  0.00  0.00    +0.000 A 
ATOM     14  C   UNL     1       5.362   3.866  14.965  0.00  0.00    +0.000 A 
ATOM     15  C   UNL     1       6.152   4.040  13.830  0.00  0.00    +0.000 A 
ATOM     16  C   UNL     1       7.261   4.861  13.924  0.00  0.00    +0.000 A 
ATOM     17  N   UNL     1       7.618   5.512  15.052  0.00  0.00    +0.000 NA
ATOM     18  C   UNL     1       6.833   5.323  16.140  0.00  0.00    +0.000 A 
ENDBRANCH  12  13
ENDBRANCH  11  12
ENDBRANCH   9  11
ENDBRANCH   2   5
BRANCH   3  19
ATOM     19  C   UNL     1       0.772  10.645  19.713  0.00  0.00    +0.000 C 
BRANCH  19  20
ATOM     20  C   UNL     1      -0.546  10.690  18.982  0.00  0.00    +0.000 A 
ATOM     21  C   UNL     1      -0.706   9.997  17.777  0.00  0.00    +0.000 A 
ATOM     22  C   UNL     1      -1.917  10.039  17.084  0.00  0.00    +0.000 A 
ATOM     23  C   UNL     1      -3.005  10.772  17.581  0.00  0.00    +0.000 A 
ATOM     24  C   UNL     1      -4.237  10.805  16.906  0.00  0.00    +0.000 A 
ATOM     25  C   UNL     1      -5.315  11.530  17.419  0.00  0.00    +0.000 A 
ATOM     26  C   UNL     1      -5.169  12.239  18.607  0.00  0.00    +0.000 A 
ATOM     27  C   UNL     1      -3.947  12.225  19.284  0.00  0.00    +0.000 A 
ATOM     28  C   UNL     1      -2.856  11.490  18.789  0.00  0.00    +0.000 A 
ATOM     29  C   UNL     1      -1.623  11.447  19.470  0.00  0.00    +0.000 A 
ENDBRANCH  19  20
ENDBRANCH   3  19
TORSDOF 6
ENDMDL
MODEL 5
REMARK VINA RESULT:      -8.3      2.828      4.854
REMARK  Name = 
REMARK  6 active torsions:
REMARK  status: ('A' for Active; 'I' for Inactive)
REMARK    1  A    between atoms: C_2  and  C_15
REMARK    2  A    between atoms: N_3  and  C_4
REMARK    3  A    between atoms: C_4  and  C_5
REMARK    4  A    between atoms: C_19  and  O_20
REMARK    5  A    between atoms: O_20  and  C_21
REMARK    6  A    between atoms: C_21  and  C_22
REMARK                            x       y       z     vdW  Elec       q    Type
REMARK                         _______ _______ _______ _____ _____    ______ ____
ROOT
ATOM      1  O   UNL     1       3.713   7.878  16.118  0.00  0.00    +0.000 OA
ATOM      2  C   UNL     1       3.823   7.439  17.258  0.00  0.00    +0.000 C 
ATOM      3  N   UNL     1       2.964   7.767  18.285  0.00  0.00    +0.000 N 
ATOM      4  H   UNL     1       3.243   7.577  19.238  0.00  0.00    +0.000 HD
ENDROOT
BRANCH   2   5
ATOM      5  C   UNL     1       4.958   6.538  17.604  0.00  0.00    +0.000 A 
ATOM      6  C   UNL     1       6.247   6.916  17.213  0.00  0.00    +0.000 A 
ATOM      7  C   UNL     1       7.340   6.115  17.541  0.00  0.00    +0.000 A 
ATOM      8  C   UNL     1       7.149   4.922  18.244  0.00  0.00    +0.000 A 
ATOM      9  C   UNL     1       5.862   4.519  18.608  0.00  0.00    +0.000 A 
ATOM     10  C   UNL     1       4.768   5.331  18.291  0.00  0.00    +0.000 A 
BRANCH   9  11
ATOM     11  O   UNL     1       5.560   3.387  19.317  0.00  0.00    +0.000 OA
BRANCH  11  12
ATOM     12  C   UNL     1       4.439   2.630  18.853  0.00  0.00    +0.000 C 
BRANCH  12  13
ATOM     13  C   UNL     1       3.280   2.761  19.805  0.00  0.00    +0.000 A 
ATOM     14  C   UNL     1       1.989   3.027  19.334  0.00  0.00    +0.000 A 
ATOM     15  C   UNL     1       0.920   3.082  20.226  0.00  0.00    +0.000 A 
ATOM     16  C   UNL     1       1.174   2.855  21.567  0.00  0.00    +0.000 A 
ATOM     17  N   UNL     1       2.399   2.576  22.060  0.00  0.00    +0.000 NA
ATOM     18  C   UNL     1       3.420   2.531  21.171  0.00  0.00    +0.000 A 
ENDBRANCH  12  13
ENDBRANCH  11  12
ENDBRANCH   9  11
ENDBRANCH   2   5
BRANCH   3  19
ATOM     19  C   UNL     1       1.906   8.737  18.090  0.00  0.00    +0.000 C 
BRANCH  19  20
ATOM     20  C   UNL     1       1.243   9.102  19.394  0.00  0.00    +0.000 A 
ATOM     21  C   UNL     1       1.479   8.335  20.541  0.00  0.00    +0.000 A 
ATOM     22  C   UNL     1       0.864   8.654  21.753  0.00  0.00    +0.000 A 
ATOM     23  C   UNL     1      -0.001   9.755  21.853  0.00  0.00    +0.000 A 
ATOM     24  C   UNL     1      -0.609  10.102  23.071  0.00  0.00    +0.000 A 
ATOM     25  C   UNL     1      -1.458  11.206  23.157  0.00  0.00    +0.000 A 
ATOM     26  C   UNL     1      -1.718  11.970  22.024  0.00  0.00    +0.000 A 
ATOM     27  C   UNL     1      -1.129  11.632  20.802  0.00  0.00    +0.000 A 
ATOM     28  C   UNL     1      -0.261  10.531  20.701  0.00  0.00    +0.000 A 
ATOM     29  C   UNL     1       0.358  10.188  19.482  0.00  0.00    +0.000 A 
ENDBRANCH  19  20
ENDBRANCH   3  19
TORSDOF 6
ENDMDL
MODEL 6
REMARK VINA RESULT:      -8.3      3.095     10.500
REMARK  Name = 
REMARK  6 active torsions:
REMARK  status: ('A' for Active; 'I' for Inactive)
REMARK    1  A    between atoms: C_2  and  C_15
REMARK    2  A    between atoms: N_3  and  C_4
REMARK    3  A    between atoms: C_4  and  C_5
REMARK    4  A    between atoms: C_19  and  O_20
REMARK    5  A    between atoms: O_20  and  C_21
REMARK    6  A    between atoms: C_21  and  C_22
REMARK                            x       y       z     vdW  Elec       q    Type
REMARK                         _______ _______ _______ _____ _____    ______ ____
ROOT
ATOM      1  O   UNL     1       0.847  11.308  19.175  0.00  0.00    +0.000 OA
ATOM      2  C   UNL     1       0.286  10.472  18.474  0.00  0.00    +0.000 C 
ATOM      3  N   UNL     1       0.938   9.409  17.890  0.00  0.00    +0.000 N 
ATOM      4  H   UNL     1       0.484   8.906  17.139  0.00  0.00    +0.000 HD
ENDROOT
BRANCH   2   5
ATOM      5  C   UNL     1      -1.169  10.604  18.177  0.00  0.00    +0.000 A 
ATOM      6  C   UNL     1      -1.723   9.775  17.195  0.00  0.00    +0.000 A 
ATOM      7  C   UNL     1      -3.085   9.847  16.907  0.00  0.00    +0.000 A 
ATOM      8  C   UNL     1      -3.897  10.761  17.584  0.00  0.00    +0.000 A 
ATOM      9  C   UNL     1      -3.347  11.617  18.540  0.00  0.00    +0.000 A 
ATOM     10  C   UNL     1      -1.983  11.534  18.838  0.00  0.00    +0.000 A 
BRANCH   9  11
ATOM     11  O   UNL     1      -4.049  12.532  19.279  0.00  0.00    +0.000 OA
BRANCH  11  12
ATOM     12  C   UNL     1      -3.683  12.647  20.657  0.00  0.00    +0.000 C 
BRANCH  12  13
ATOM     13  C   UNL     1      -4.908  12.631  21.534  0.00  0.00    +0.000 A 
ATOM     14  C   UNL     1      -6.167  12.327  21.004  0.00  0.00    +0.000 A 
ATOM     15  C   UNL     1      -7.276  12.254  21.844  0.00  0.00    +0.000 A 
ATOM     16  C   UNL     1      -7.088  12.477  23.197  0.00  0.00    +0.000 A 
ATOM     17  N   UNL     1      -5.889  12.753  23.751  0.00  0.00    +0.000 NA
ATOM     18  C   UNL     1      -4.829  12.819  22.910  0.00  0.00    +0.000 A 
ENDBRANCH  12  13
ENDBRANCH  11  12
ENDBRANCH   9  11
ENDBRANCH   2   5
BRANCH   3  19
ATOM     19  C   UNL     1       2.375   9.261  18.006  0.00  0.00    +0.000 C 
BRANCH  19  20
ATOM     20  C   UNL     1       2.798   7.825  17.834  0.00  0.00    +0.000 A 
ATOM     21  C   UNL     1       4.066   7.522  17.325  0.00  0.00    +0.000 A 
ATOM     22  C   UNL     1       4.468   6.196  17.149  0.00  0.00    +0.000 A 
ATOM     23  C   UNL     1       3.613   5.135  17.485  0.00  0.00    +0.000 A 
ATOM     24  C   UNL     1       4.011   3.796  17.335  0.00  0.00    +0.000 A 
ATOM     25  C   UNL     1       3.154   2.751  17.684  0.00  0.00    +0.000 A 
ATOM     26  C   UNL     1       1.884   3.033  18.175  0.00  0.00    +0.000 A 
ATOM     27  C   UNL     1       1.468   4.360  18.320  0.00  0.00    +0.000 A 
ATOM     28  C   UNL     1       2.324   5.424  17.987  0.00  0.00    +0.000 A 
ATOM     29  C   UNL     1       1.929   6.767  18.146  0.00  0.00    +0.000 A 
ENDBRANCH  19  20
ENDBRANCH   3  19
TORSDOF 6
ENDMDL
MODEL 7
REMARK VINA RESULT:      -8.2      1.623      2.124
REMARK  Name = 
REMARK  6 active torsions:
REMARK  status: ('A' for Active; 'I' for Inactive)
REMARK    1  A    between atoms: C_2  and  C_15
REMARK    2  A    between atoms: N_3  and  C_4
REMARK    3  A    between atoms: C_4  and  C_5
REMARK    4  A    between atoms: C_19  and  O_20
REMARK    5  A    between atoms: O_20  and  C_21
REMARK    6  A    between atoms: C_21  and  C_22
REMARK                            x       y       z     vdW  Elec       q    Type
REMARK                         _______ _______ _______ _____ _____    ______ ____
ROOT
ATOM      1  O   UNL     1       1.445   8.647  21.712  0.00  0.00    +0.000 OA
ATOM      2  C   UNL     1       1.484   8.399  20.511  0.00  0.00    +0.000 C 
ATOM      3  N   UNL     1       1.143   9.309  19.535  0.00  0.00    +0.000 N 
ATOM      4  H   UNL     1       0.959   8.979  18.597  0.00  0.00    +0.000 HD
ENDROOT
BRANCH   2   5
ATOM      5  C   UNL     1       1.868   7.037  20.044  0.00  0.00    +0.000 A 
ATOM      6  C   UNL     1       1.526   5.941  20.844  0.00  0.00    +0.000 A 
ATOM      7  C   UNL     1       1.842   4.648  20.430  0.00  0.00    +0.000 A 
ATOM      8  C   UNL     1       2.519   4.443  19.224  0.00  0.00    +0.000 A 
ATOM      9  C   UNL     1       2.895   5.533  18.436  0.00  0.00    +0.000 A 
ATOM     10  C   UNL     1       2.564   6.829  18.846  0.00  0.00    +0.000 A 
BRANCH   9  11
ATOM     11  O   UNL     1       3.537   5.451  17.229  0.00  0.00    +0.000 OA
BRANCH  11  12
ATOM     12  C   UNL     1       4.662   4.570  17.170  0.00  0.00    +0.000 C 
BRANCH  12  13
ATOM     13  C   UNL     1       5.873   5.214  17.795  0.00  0.00    +0.000 A 
ATOM     14  C   UNL     1       6.547   6.255  17.148  0.00  0.00    +0.000 A 
ATOM     15  C   UNL     1       7.625   6.879  17.773  0.00  0.00    +0.000 A 
ATOM     16  C   UNL     1       7.990   6.448  19.036  0.00  0.00    +0.000 A 
ATOM     17  N   UNL     1       7.354   5.461  19.702  0.00  0.00    +0.000 NA
ATOM     18  C   UNL     1       6.311   4.871  19.071  0.00  0.00    +0.000 A 
ENDBRANCH  12  13
ENDBRANCH  11  12
ENDBRANCH   9  11
ENDBRANCH   2   5
BRANCH   3  19
ATOM     19  C   UNL     1       0.630  10.619  19.884  0.00  0.00    +0.000 C 
BRANCH  19  20
ATOM     20  C   UNL     1      -0.739  10.850  19.297  0.00  0.00    +0.000 A 
ATOM     21  C   UNL     1      -1.089  10.261  18.077  0.00  0.00    +0.000 A 
ATOM     22  C   UNL     1      -2.350  10.475  17.515  0.00  0.00    +0.000 A 
ATOM     23  C   UNL     1      -3.298  11.281  18.163  0.00  0.00    +0.000 A 
ATOM     24  C   UNL     1      -4.578  11.488  17.622  0.00  0.00    +0.000 A 
ATOM     25  C   UNL     1      -5.514  12.284  18.284  0.00  0.00    +0.000 A 
ATOM     26  C   UNL     1      -5.178  12.891  19.489  0.00  0.00    +0.000 A 
ATOM     27  C   UNL     1      -3.905  12.704  20.035  0.00  0.00    +0.000 A 
ATOM     28  C   UNL     1      -2.955  11.896  19.389  0.00  0.00    +0.000 A 
ATOM     29  C   UNL     1      -1.674  11.679  19.936  0.00  0.00    +0.000 A 
ENDBRANCH  19  20
ENDBRANCH   3  19
TORSDOF 6
ENDMDL
MODEL 8
REMARK VINA RESULT:      -8.2      3.082     10.595
REMARK  Name = 
REMARK  6 active torsions:
REMARK  status: ('A' for Active; 'I' for Inactive)
REMARK    1  A    between atoms: C_2  and  C_15
REMARK    2  A    between atoms: N_3  and  C_4
REMARK    3  A    between atoms: C_4  and  C_5
REMARK    4  A    between atoms: C_19  and  O_20
REMARK    5  A    between atoms: O_20  and  C_21
REMARK    6  A    between atoms: C_21  and  C_22
REMARK                            x       y       z     vdW  Elec       q    Type
REMARK                         _______ _______ _______ _____ _____    ______ ____
ROOT
ATOM      1  O   UNL     1       1.186  10.342  19.794  0.00  0.00    +0.000 OA
ATOM      2  C   UNL     1       0.525   9.915  18.852  0.00  0.00    +0.000 C 
ATOM      3  N   UNL     1       0.975   8.941  17.988  0.00  0.00    +0.000 N 
ATOM      4  H   UNL     1       0.499   8.810  17.105  0.00  0.00    +0.000 HD
ENDROOT
BRANCH   2   5
ATOM      5  C   UNL     1      -0.820  10.488  18.567  0.00  0.00    +0.000 A 
ATOM      6  C   UNL     1      -1.503  10.042  17.429  0.00  0.00    +0.000 A 
ATOM      7  C   UNL     1      -2.776  10.532  17.141  0.00  0.00    +0.000 A 
ATOM      8  C   UNL     1      -3.367  11.483  17.978  0.00  0.00    +0.000 A 
ATOM      9  C   UNL     1      -2.679  11.959  19.096  0.00  0.00    +0.000 A 
ATOM     10  C   UNL     1      -1.408  11.456  19.391  0.00  0.00    +0.000 A 
BRANCH   9  11
ATOM     11  O   UNL     1      -3.168  12.869  19.995  0.00  0.00    +0.000 OA
BRANCH  11  12
ATOM     12  C   UNL     1      -4.591  12.935  20.119  0.00  0.00    +0.000 C 
BRANCH  12  13
ATOM     13  C   UNL     1      -5.008  12.759  21.556  0.00  0.00    +0.000 A 
ATOM     14  C   UNL     1      -4.092  12.946  22.597  0.00  0.00    +0.000 A 
ATOM     15  C   UNL     1      -4.513  12.841  23.921  0.00  0.00    +0.000 A 
ATOM     16  C   UNL     1      -5.847  12.563  24.164  0.00  0.00    +0.000 A 
ATOM     17  N   UNL     1      -6.766  12.395  23.190  0.00  0.00    +0.000 NA
ATOM     18  C   UNL     1      -6.328  12.501  21.913  0.00  0.00    +0.000 A 
ENDBRANCH  12  13
ENDBRANCH  11  12
ENDBRANCH   9  11
ENDBRANCH   2   5
BRANCH   3  19
ATOM     19  C   UNL     1       2.319   8.411  18.096  0.00  0.00    +0.000 C 
BRANCH  19  20
ATOM     20  C   UNL     1       2.314   6.992  18.605  0.00  0.00    +0.000 A 
ATOM     21  C   UNL     1       2.195   6.737  19.976  0.00  0.00    +0.000 A 
ATOM     22  C   UNL     1       2.200   5.428  20.462  0.00  0.00    +0.000 A 
ATOM     23  C   UNL     1       2.319   4.337  19.589  0.00  0.00    +0.000 A 
ATOM     24  C   UNL     1       2.302   3.014  20.062  0.00  0.00    +0.000 A 
ATOM     25  C   UNL     1       2.410   1.937  19.179  0.00  0.00    +0.000 A 
ATOM     26  C   UNL     1       2.546   2.172  17.815  0.00  0.00    +0.000 A 
ATOM     27  C   UNL     1       2.575   3.482  17.330  0.00  0.00    +0.000 A 
ATOM     28  C   UNL     1       2.454   4.577  18.203  0.00  0.00    +0.000 A 
ATOM     29  C   UNL     1       2.460   5.904  17.729  0.00  0.00    +0.000 A 
ENDBRANCH  19  20
ENDBRANCH   3  19
TORSDOF 6
ENDMDL
MODEL 9
REMARK VINA RESULT:      -8.1      1.163      1.864
REMARK  Name = 
REMARK  6 active torsions:
REMARK  status: ('A' for Active; 'I' for Inactive)
REMARK    1  A    between atoms: C_2  and  C_15
REMARK    2  A    between atoms: N_3  and  C_4
REMARK    3  A    between atoms: C_4  and  C_5
REMARK    4  A    between atoms: C_19  and  O_20
REMARK    5  A    between atoms: O_20  and  C_21
REMARK    6  A    between atoms: C_21  and  C_22
REMARK                            x       y       z     vdW  Elec       q    Type
REMARK                         _______ _______ _______ _____ _____    ______ ____
ROOT
ATOM      1  O   UNL     1       2.947   8.677  17.843  0.00  0.00    +0.000 OA
ATOM      2  C   UNL     1       2.309   7.900  18.545  0.00  0.00    +0.000 C 
ATOM      3  N   UNL     1       1.422   8.307  19.518  0.00  0.00    +0.000 N 
ATOM      4  H   UNL     1       1.120   7.642  20.217  0.00  0.00    +0.000 HD
ENDROOT
BRANCH   2   5
ATOM      5  C   UNL     1       2.509   6.430  18.402  0.00  0.00    +0.000 A 
ATOM      6  C   UNL     1       1.439   5.658  17.935  0.00  0.00    +0.000 A 
ATOM      7  C   UNL     1       1.594   4.283  17.760  0.00  0.00    +0.000 A 
ATOM      8  C   UNL     1       2.812   3.670  18.067  0.00  0.00    +0.000 A 
ATOM      9  C   UNL     1       3.874   4.427  18.566  0.00  0.00    +0.000 A 
ATOM     10  C   UNL     1       3.722   5.808  18.728  0.00  0.00    +0.000 A 
BRANCH   9  11
ATOM     11  O   UNL     1       5.115   3.938  18.877  0.00  0.00    +0.000 OA
BRANCH  11  12
ATOM     12  C   UNL     1       6.228   4.761  18.517  0.00  0.00    +0.000 C 
BRANCH  12  13
ATOM     13  C   UNL     1       6.477   4.697  17.033  0.00  0.00    +0.000 A 
ATOM     14  C   UNL     1       5.810   3.763  16.232  0.00  0.00    +0.000 A 
ATOM     15  C   UNL     1       6.007   3.763  14.853  0.00  0.00    +0.000 A 
ATOM     16  C   UNL     1       6.859   4.711  14.313  0.00  0.00    +0.000 A 
ATOM     17  N   UNL     1       7.504   5.641  15.046  0.00  0.00    +0.000 NA
ATOM     18  C   UNL     1       7.296   5.617  16.385  0.00  0.00    +0.000 A 
ENDBRANCH  12  13
ENDBRANCH  11  12
ENDBRANCH   9  11
ENDBRANCH   2   5
BRANCH   3  19
ATOM     19  C   UNL     1       1.251   9.712  19.829  0.00  0.00    +0.000 C 
BRANCH  19  20
ATOM     20  C   UNL     1      -0.058  10.239  19.300  0.00  0.00    +0.000 A 
ATOM     21  C   UNL     1      -0.798  11.162  20.048  0.00  0.00    +0.000 A 
ATOM     22  C   UNL     1      -2.018  11.651  19.576  0.00  0.00    +0.000 A 
ATOM     23  C   UNL     1      -2.528  11.234  18.337  0.00  0.00    +0.000 A 
ATOM     24  C   UNL     1      -3.743  11.734  17.838  0.00  0.00    +0.000 A 
ATOM     25  C   UNL     1      -4.232  11.318  16.599  0.00  0.00    +0.000 A 
ATOM     26  C   UNL     1      -3.519  10.389  15.850  0.00  0.00    +0.000 A 
ATOM     27  C   UNL     1      -2.315   9.874  16.336  0.00  0.00    +0.000 A 
ATOM     28  C   UNL     1      -1.800  10.292  17.576  0.00  0.00    +0.000 A 
ATOM     29  C   UNL     1      -0.577   9.799  18.072  0.00  0.00    +0.000 A 
ENDBRANCH  19  20
ENDBRANCH   3  19
TORSDOF 6
ENDMDL
