MODEL 1
REMARK VINA RESULT:      -9.0      0.000      0.000
REMARK  Name = 
REMARK  7 active torsions:
REMARK  status: ('A' for Active; 'I' for Inactive)
REMARK    1  A    between atoms: C_1  and  C_2
REMARK    2  A    between atoms: C_2  and  C_3
REMARK    3  A    between atoms: N_5  and  C_6
REMARK    4  A    between atoms: C_6  and  C_7
REMARK    5  A    between atoms: C_11  and  C_12
REMARK    6  A    between atoms: N_18  and  C_19
REMARK    7  A    between atoms: C_23  and  C_24
REMARK                            x       y       z     vdW  Elec       q    Type
REMARK                         _______ _______ _______ _____ _____    ______ ____
ROOT
ATOM      1  C   UNL     1       5.112   4.449  16.574  0.00  0.00    +0.000 A 
ATOM      2  C   UNL     1       4.699   5.776  16.602  0.00  0.00    +0.000 A 
ATOM      3  C   UNL     1       3.725   6.116  17.520  0.00  0.00    +0.000 A 
ATOM      4  C   UNL     1       3.070   5.201  18.335  0.00  0.00    +0.000 A 
ATOM      5  C   UNL     1       3.364   3.850  18.231  0.00  0.00    +0.000 A 
ATOM      6  C   UNL     1       4.427   3.491  17.368  0.00  0.00    +0.000 A 
ATOM      7  C   UNL     1       2.124   5.936  19.233  0.00  0.00    +0.000 C 
ATOM      8  N   UNL     1       2.326   7.331  18.858  0.00  0.00    +0.000 N 
ATOM      9  C   UNL     1       3.266   7.454  17.846  0.00  0.00    +0.000 C 
ATOM     10  O   UNL     1       3.713   8.431  17.266  0.00  0.00    +0.000 OA
ENDROOT
BRANCH   8  11
ATOM     11  C   UNL     1       1.549   8.392  19.390  0.00  0.00    +0.000 A 
ATOM     12  C   UNL     1       1.204   9.494  18.609  0.00  0.00    +0.000 A 
ATOM     13  C   UNL     1       0.363  10.490  19.097  0.00  0.00    +0.000 A 
ATOM     14  C   UNL     1      -0.135  10.399  20.390  0.00  0.00    +0.000 A 
ATOM     15  C   UNL     1       0.204   9.319  21.224  0.00  0.00    +0.000 A 
ATOM     16  C   UNL     1       1.067   8.335  20.705  0.00  0.00    +0.000 A 
BRANCH  15  17
ATOM     17  C   UNL     1      -0.368   9.218  22.609  0.00  0.00    +0.000 C 
ATOM     18  C   UNL     1      -0.991  10.443  23.231  0.00  0.00    +0.000 C 
ATOM     19  O   UNL     1       0.273   9.941  23.676  0.00  0.00    +0.000 OA
ENDBRANCH  15  17
ENDBRANCH   8  11
BRANCH   5  20
ATOM     20  C   UNL     1       2.603   2.790  18.984  0.00  0.00    +0.000 C 
ATOM     21  F   UNL     1       2.988   1.520  18.678  0.00  0.00    +0.000 F 
ATOM     22  F   UNL     1       2.755   2.906  20.332  0.00  0.00    +0.000 F 
ATOM     23  F   UNL     1       1.263   2.841  18.751  0.00  0.00    +0.000 F 
ENDBRANCH   5  20
BRANCH   1  24
ATOM     24  C   UNL     1       6.325   4.073  15.745  0.00  0.00    +0.000 C 
BRANCH  24  29
ATOM     25  C   UNL     1       4.685   3.817  11.591  0.00  0.00    +0.000 C 
ATOM     26  C   UNL     1       5.965   3.105  12.056  0.00  0.00    +0.000 C 
ATOM     27  C   UNL     1       5.997   1.699  11.444  0.00  0.00    +0.000 C 
ATOM     28  C   UNL     1       6.014   2.963  13.597  0.00  0.00    +0.000 C 
ATOM     29  N   UNL     1       6.167   4.254  14.296  0.00  0.00    +0.000 NA
ATOM     30  C   UNL     1       7.372   4.927  13.754  0.00  0.00    +0.000 C 
ATOM     31  C   UNL     1       7.338   5.056  12.224  0.00  0.00    +0.000 C 
ATOM     32  O   UNL     1       7.139   3.791  11.579  0.00  0.00    +0.000 OA
ENDBRANCH  24  29
ENDBRANCH   1  24
TORSDOF 5
ENDMDL
MODEL 2
REMARK VINA RESULT:      -8.9      4.275      9.822
REMARK  Name = 
REMARK  7 active torsions:
REMARK  status: ('A' for Active; 'I' for Inactive)
REMARK    1  A    between atoms: C_1  and  C_2
REMARK    2  A    between atoms: C_2  and  C_3
REMARK    3  A    between atoms: N_5  and  C_6
REMARK    4  A    between atoms: C_6  and  C_7
REMARK    5  A    between atoms: C_11  and  C_12
REMARK    6  A    between atoms: N_18  and  C_19
REMARK    7  A    between atoms: C_23  and  C_24
REMARK                            x       y       z     vdW  Elec       q    Type
REMARK                         _______ _______ _______ _____ _____    ______ ____
ROOT
ATOM      1  C   UNL     1       0.161  11.669  19.356  0.00  0.00    +0.000 A 
ATOM      2  C   UNL     1       1.008  10.897  18.569  0.00  0.00    +0.000 A 
ATOM      3  C   UNL     1       1.346   9.645  19.042  0.00  0.00    +0.000 A 
ATOM      4  C   UNL     1       0.977   9.159  20.291  0.00  0.00    +0.000 A 
ATOM      5  C   UNL     1       0.247   9.961  21.155  0.00  0.00    +0.000 A 
ATOM      6  C   UNL     1      -0.194  11.208  20.653  0.00  0.00    +0.000 A 
ATOM      7  C   UNL     1       1.475   7.754  20.435  0.00  0.00    +0.000 C 
ATOM      8  N   UNL     1       2.132   7.502  19.157  0.00  0.00    +0.000 N 
ATOM      9  C   UNL     1       2.067   8.609  18.325  0.00  0.00    +0.000 C 
ATOM     10  O   UNL     1       2.483   8.801  17.193  0.00  0.00    +0.000 OA
ENDROOT
BRANCH   8  11
ATOM     11  C   UNL     1       2.848   6.309  18.882  0.00  0.00    +0.000 A 
ATOM     12  C   UNL     1       2.240   5.237  18.230  0.00  0.00    +0.000 A 
ATOM     13  C   UNL     1       2.966   4.103  17.874  0.00  0.00    +0.000 A 
ATOM     14  C   UNL     1       4.318   4.025  18.182  0.00  0.00    +0.000 A 
ATOM     15  C   UNL     1       4.969   5.070  18.861  0.00  0.00    +0.000 A 
ATOM     16  C   UNL     1       4.205   6.197  19.218  0.00  0.00    +0.000 A 
BRANCH  15  17
ATOM     17  C   UNL     1       6.438   4.984  19.159  0.00  0.00    +0.000 C 
ATOM     18  C   UNL     1       7.401   5.781  18.314  0.00  0.00    +0.000 C 
ATOM     19  O   UNL     1       7.304   4.358  18.194  0.00  0.00    +0.000 OA
ENDBRANCH  15  17
ENDBRANCH   8  11
BRANCH   5  20
ATOM     20  C   UNL     1      -0.074   9.553  22.569  0.00  0.00    +0.000 C 
ATOM     21  F   UNL     1      -0.719  10.517  23.283  0.00  0.00    +0.000 F 
ATOM     22  F   UNL     1      -0.880   8.457  22.618  0.00  0.00    +0.000 F 
ATOM     23  F   UNL     1       1.036   9.236  23.288  0.00  0.00    +0.000 F 
ENDBRANCH   5  20
BRANCH   1  24
ATOM     24  C   UNL     1      -0.413  12.950  18.783  0.00  0.00    +0.000 C 
BRANCH  24  29
ATOM     25  C   UNL     1       0.370  16.999  20.515  0.00  0.00    +0.000 C 
ATOM     26  C   UNL     1       0.356  16.696  19.008  0.00  0.00    +0.000 C 
ATOM     27  C   UNL     1      -0.349  17.847  18.280  0.00  0.00    +0.000 C 
ATOM     28  C   UNL     1      -0.408  15.386  18.695  0.00  0.00    +0.000 C 
ATOM     29  N   UNL     1       0.278  14.179  19.196  0.00  0.00    +0.000 NA
ATOM     30  C   UNL     1       1.654  14.173  18.645  0.00  0.00    +0.000 C 
ATOM     31  C   UNL     1       2.412  15.476  18.937  0.00  0.00    +0.000 C 
ATOM     32  O   UNL     1       1.696  16.632  18.482  0.00  0.00    +0.000 OA
ENDBRANCH  24  29
ENDBRANCH   1  24
TORSDOF 5
ENDMDL
MODEL 3
REMARK VINA RESULT:      -8.8      4.280      9.690
REMARK  Name = 
REMARK  7 active torsions:
REMARK  status: ('A' for Active; 'I' for Inactive)
REMARK    1  A    between atoms: C_1  and  C_2
REMARK    2  A    between atoms: C_2  and  C_3
REMARK    3  A    between atoms: N_5  and  C_6
REMARK    4  A    between atoms: C_6  and  C_7
REMARK    5  A    between atoms: C_11  and  C_12
REMARK    6  A    between atoms: N_18  and  C_19
REMARK    7  A    between atoms: C_23  and  C_24
REMARK                            x       y       z     vdW  Elec       q    Type
REMARK                         _______ _______ _______ _____ _____    ______ ____
ROOT
ATOM      1  C   UNL     1       0.113  11.792  19.519  0.00  0.00    +0.000 A 
ATOM      2  C   UNL     1       0.938  11.037  18.692  0.00  0.00    +0.000 A 
ATOM      3  C   UNL     1       1.276   9.770  19.121  0.00  0.00    +0.000 A 
ATOM      4  C   UNL     1       0.930   9.250  20.363  0.00  0.00    +0.000 A 
ATOM      5  C   UNL     1       0.224  10.032  21.266  0.00  0.00    +0.000 A 
ATOM      6  C   UNL     1      -0.217  11.296  20.809  0.00  0.00    +0.000 A 
ATOM      7  C   UNL     1       1.420   7.839  20.456  0.00  0.00    +0.000 C 
ATOM      8  N   UNL     1       2.047   7.618  19.158  0.00  0.00    +0.000 N 
ATOM      9  C   UNL     1       1.974   8.750  18.359  0.00  0.00    +0.000 C 
ATOM     10  O   UNL     1       2.367   8.971  17.225  0.00  0.00    +0.000 OA
ENDROOT
BRANCH   8  11
ATOM     11  C   UNL     1       2.749   6.430  18.834  0.00  0.00    +0.000 A 
ATOM     12  C   UNL     1       2.155   5.429  18.065  0.00  0.00    +0.000 A 
ATOM     13  C   UNL     1       2.873   4.305  17.665  0.00  0.00    +0.000 A 
ATOM     14  C   UNL     1       4.200   4.163  18.045  0.00  0.00    +0.000 A 
ATOM     15  C   UNL     1       4.835   5.133  18.841  0.00  0.00    +0.000 A 
ATOM     16  C   UNL     1       4.079   6.251  19.240  0.00  0.00    +0.000 A 
BRANCH  15  17
ATOM     17  C   UNL     1       6.281   4.980  19.218  0.00  0.00    +0.000 C 
ATOM     18  C   UNL     1       7.314   5.803  18.491  0.00  0.00    +0.000 C 
ATOM     19  O   UNL     1       7.186   4.396  18.263  0.00  0.00    +0.000 OA
ENDBRANCH  15  17
ENDBRANCH   8  11
BRANCH   5  20
ATOM     20  C   UNL     1      -0.070   9.585  22.674  0.00  0.00    +0.000 C 
ATOM     21  F   UNL     1       1.044   9.266  23.390  0.00  0.00    +0.000 F 
ATOM     22  F   UNL     1      -0.710  10.545  23.396  0.00  0.00    +0.000 F 
ATOM     23  F   UNL     1      -0.870   8.485  22.718  0.00  0.00    +0.000 F 
ENDBRANCH   5  20
BRANCH   1  24
ATOM     24  C   UNL     1      -0.463  13.093  18.995  0.00  0.00    +0.000 C 
BRANCH  24  29
ATOM     25  C   UNL     1       3.380  15.383  18.944  0.00  0.00    +0.000 C 
ATOM     26  C   UNL     1       2.306  15.528  20.033  0.00  0.00    +0.000 C 
ATOM     27  C   UNL     1       3.000  15.639  21.397  0.00  0.00    +0.000 C 
ATOM     28  C   UNL     1       1.359  14.304  20.071  0.00  0.00    +0.000 C 
ATOM     29  N   UNL     1       0.501  14.195  18.875  0.00  0.00    +0.000 NA
ATOM     30  C   UNL     1      -0.236  15.473  18.723  0.00  0.00    +0.000 C 
ATOM     31  C   UNL     1       0.696  16.693  18.702  0.00  0.00    +0.000 C 
ATOM     32  O   UNL     1       1.549  16.741  19.854  0.00  0.00    +0.000 OA
ENDBRANCH  24  29
ENDBRANCH   1  24
TORSDOF 5
ENDMDL
MODEL 4
REMARK VINA RESULT:      -8.8      2.275      3.635
REMARK  Name = 
REMARK  7 active torsions:
REMARK  status: ('A' for Active; 'I' for Inactive)
REMARK    1  A    between atoms: C_1  and  C_2
REMARK    2  A    between atoms: C_2  and  C_3
REMARK    3  A    between atoms: N_5  and  C_6
REMARK    4  A    between atoms: C_6  and  C_7
REMARK    5  A    between atoms: C_11  and  C_12
REMARK    6  A    between atoms: N_18  and  C_19
REMARK    7  A    between atoms: C_23  and  C_24
REMARK                            x       y       z     vdW  Elec       q    Type
REMARK                         _______ _______ _______ _____ _____    ______ ____
ROOT
ATOM      1  C   UNL     1       3.161   4.290  17.748  0.00  0.00    +0.000 A 
ATOM      2  C   UNL     1       2.680   5.591  17.646  0.00  0.00    +0.000 A 
ATOM      3  C   UNL     1       2.191   6.178  18.796  0.00  0.00    +0.000 A 
ATOM      4  C   UNL     1       2.059   5.516  20.011  0.00  0.00    +0.000 A 
ATOM      5  C   UNL     1       2.402   4.176  20.109  0.00  0.00    +0.000 A 
ATOM      6  C   UNL     1       2.996   3.583  18.970  0.00  0.00    +0.000 A 
ATOM      7  C   UNL     1       1.548   6.479  21.038  0.00  0.00    +0.000 C 
ATOM      8  N   UNL     1       1.429   7.727  20.293  0.00  0.00    +0.000 N 
ATOM      9  C   UNL     1       1.802   7.565  18.967  0.00  0.00    +0.000 C 
ATOM     10  O   UNL     1       1.848   8.351  18.034  0.00  0.00    +0.000 OA
ENDROOT
BRANCH   8  11
ATOM     11  C   UNL     1       0.875   8.907  20.852  0.00  0.00    +0.000 A 
ATOM     12  C   UNL     1       0.272   8.894  22.109  0.00  0.00    +0.000 A 
ATOM     13  C   UNL     1      -0.187  10.068  22.702  0.00  0.00    +0.000 A 
ATOM     14  C   UNL     1      -0.059  11.276  22.028  0.00  0.00    +0.000 A 
ATOM     15  C   UNL     1       0.519  11.335  20.748  0.00  0.00    +0.000 A 
ATOM     16  C   UNL     1       0.962  10.129  20.172  0.00  0.00    +0.000 A 
BRANCH  15  17
ATOM     17  C   UNL     1       0.679  12.653  20.046  0.00  0.00    +0.000 C 
ATOM     18  C   UNL     1      -0.419  13.129  19.129  0.00  0.00    +0.000 C 
ATOM     19  O   UNL     1       0.832  12.661  18.615  0.00  0.00    +0.000 OA
ENDBRANCH  15  17
ENDBRANCH   8  11
BRANCH   5  20
ATOM     20  C   UNL     1       2.162   3.362  21.354  0.00  0.00    +0.000 C 
ATOM     21  F   UNL     1       0.876   2.933  21.486  0.00  0.00    +0.000 F 
ATOM     22  F   UNL     1       2.931   2.240  21.392  0.00  0.00    +0.000 F 
ATOM     23  F   UNL     1       2.445   4.051  22.492  0.00  0.00    +0.000 F 
ENDBRANCH   5  20
BRANCH   1  24
ATOM     24  C   UNL     1       3.905   3.686  16.573  0.00  0.00    +0.000 C 
BRANCH  24  29
ATOM     25  C   UNL     1       8.099   4.569  17.855  0.00  0.00    +0.000 C 
ATOM     26  C   UNL     1       7.161   5.601  17.209  0.00  0.00    +0.000 C 
ATOM     27  C   UNL     1       7.338   6.945  17.927  0.00  0.00    +0.000 C 
ATOM     28  C   UNL     1       5.676   5.180  17.330  0.00  0.00    +0.000 C 
ATOM     29  N   UNL     1       5.342   3.988  16.527  0.00  0.00    +0.000 NA
ATOM     30  C   UNL     1       5.738   4.257  15.124  0.00  0.00    +0.000 C 
ATOM     31  C   UNL     1       7.206   4.691  14.998  0.00  0.00    +0.000 C 
ATOM     32  O   UNL     1       7.508   5.820  15.828  0.00  0.00    +0.000 OA
ENDBRANCH  24  29
ENDBRANCH   1  24
TORSDOF 5
ENDMDL
MODEL 5
REMARK VINA RESULT:      -8.8      4.124      9.726
REMARK  Name = 
REMARK  7 active torsions:
REMARK  status: ('A' for Active; 'I' for Inactive)
REMARK    1  A    between atoms: C_1  and  C_2
REMARK    2  A    between atoms: C_2  and  C_3
REMARK    3  A    between atoms: N_5  and  C_6
REMARK    4  A    between atoms: C_6  and  C_7
REMARK    5  A    between atoms: C_11  and  C_12
REMARK    6  A    between atoms: N_18  and  C_19
REMARK    7  A    between atoms: C_23  and  C_24
REMARK                            x       y       z     vdW  Elec       q    Type
REMARK                         _______ _______ _______ _____ _____    ______ ____
ROOT
ATOM      1  C   UNL     1      -0.002  12.097  19.746  0.00  0.00    +0.000 A 
ATOM      2  C   UNL     1       0.812  11.429  18.838  0.00  0.00    +0.000 A 
ATOM      3  C   UNL     1       1.169  10.131  19.145  0.00  0.00    +0.000 A 
ATOM      4  C   UNL     1       0.853   9.498  20.341  0.00  0.00    +0.000 A 
ATOM      5  C   UNL     1       0.159  10.188  21.324  0.00  0.00    +0.000 A 
ATOM      6  C   UNL     1      -0.302  11.484  20.992  0.00  0.00    +0.000 A 
ATOM      7  C   UNL     1       1.356   8.089  20.296  0.00  0.00    +0.000 C 
ATOM      8  N   UNL     1       1.959   7.993  18.972  0.00  0.00    +0.000 N 
ATOM      9  C   UNL     1       1.860   9.191  18.280  0.00  0.00    +0.000 C 
ATOM     10  O   UNL     1       2.228   9.518  17.163  0.00  0.00    +0.000 OA
ENDROOT
BRANCH   8  11
ATOM     11  C   UNL     1       2.664   6.846  18.528  0.00  0.00    +0.000 A 
ATOM     12  C   UNL     1       2.142   5.565  18.707  0.00  0.00    +0.000 A 
ATOM     13  C   UNL     1       2.785   4.444  18.188  0.00  0.00    +0.000 A 
ATOM     14  C   UNL     1       3.975   4.594  17.490  0.00  0.00    +0.000 A 
ATOM     15  C   UNL     1       4.554   5.862  17.305  0.00  0.00    +0.000 A 
ATOM     16  C   UNL     1       3.886   6.974  17.853  0.00  0.00    +0.000 A 
BRANCH  15  17
ATOM     17  C   UNL     1       5.826   6.011  16.521  0.00  0.00    +0.000 C 
ATOM     18  C   UNL     1       7.136   6.086  17.264  0.00  0.00    +0.000 C 
ATOM     19  O   UNL     1       6.569   7.239  16.634  0.00  0.00    +0.000 OA
ENDBRANCH  15  17
ENDBRANCH   8  11
BRANCH   5  20
ATOM     20  C   UNL     1      -0.103   9.613  22.692  0.00  0.00    +0.000 C 
ATOM     21  F   UNL     1      -0.769  10.462  23.523  0.00  0.00    +0.000 F 
ATOM     22  F   UNL     1      -0.858   8.482  22.639  0.00  0.00    +0.000 F 
ATOM     23  F   UNL     1       1.041   9.272  23.345  0.00  0.00    +0.000 F 
ENDBRANCH   5  20
BRANCH   1  24
ATOM     24  C   UNL     1      -0.600  13.434  19.353  0.00  0.00    +0.000 C 
BRANCH  24  29
ATOM     25  C   UNL     1       3.222  15.334  18.013  0.00  0.00    +0.000 C 
ATOM     26  C   UNL     1       2.528  15.645  19.349  0.00  0.00    +0.000 C 
ATOM     27  C   UNL     1       3.597  15.767  20.443  0.00  0.00    +0.000 C 
ATOM     28  C   UNL     1       1.543  14.523  19.758  0.00  0.00    +0.000 C 
ATOM     29  N   UNL     1       0.368  14.429  18.871  0.00  0.00    +0.000 NA
ATOM     30  C   UNL     1      -0.282  15.761  18.830  0.00  0.00    +0.000 C 
ATOM     31  C   UNL     1       0.693  16.882  18.442  0.00  0.00    +0.000 C 
ATOM     32  O   UNL     1       1.847  16.914  19.293  0.00  0.00    +0.000 OA
ENDBRANCH  24  29
ENDBRANCH   1  24
TORSDOF 5
ENDMDL
MODEL 6
REMARK VINA RESULT:      -8.8      4.586      9.653
REMARK  Name = 
REMARK  7 active torsions:
REMARK  status: ('A' for Active; 'I' for Inactive)
REMARK    1  A    between atoms: C_1  and  C_2
REMARK    2  A    between atoms: C_2  and  C_3
REMARK    3  A    between atoms: N_5  and  C_6
REMARK    4  A    between atoms: C_6  and  C_7
REMARK    5  A    between atoms: C_11  and  C_12
REMARK    6  A    between atoms: N_18  and  C_19
REMARK    7  A    between atoms: C_23  and  C_24
REMARK                            x       y       z     vdW  Elec       q    Type
REMARK                         _______ _______ _______ _____ _____    ______ ____
ROOT
ATOM      1  C   UNL     1       0.265  11.694  19.316  0.00  0.00    +0.000 A 
ATOM      2  C   UNL     1       1.094  10.832  18.605  0.00  0.00    +0.000 A 
ATOM      3  C   UNL     1       1.364   9.602  19.171  0.00  0.00    +0.000 A 
ATOM      4  C   UNL     1       0.946   9.221  20.441  0.00  0.00    +0.000 A 
ATOM      5  C   UNL     1       0.234  10.113  21.230  0.00  0.00    +0.000 A 
ATOM      6  C   UNL     1      -0.138  11.340  20.632  0.00  0.00    +0.000 A 
ATOM      7  C   UNL     1       1.376   7.809  20.693  0.00  0.00    +0.000 C 
ATOM      8  N   UNL     1       2.049   7.440  19.453  0.00  0.00    +0.000 N 
ATOM      9  C   UNL     1       2.053   8.489  18.545  0.00  0.00    +0.000 C 
ATOM     10  O   UNL     1       2.501   8.583  17.414  0.00  0.00    +0.000 OA
ENDROOT
BRANCH   8  11
ATOM     11  C   UNL     1       2.717   6.202  19.279  0.00  0.00    +0.000 A 
ATOM     12  C   UNL     1       3.885   6.113  18.523  0.00  0.00    +0.000 A 
ATOM     13  C   UNL     1       4.596   4.919  18.429  0.00  0.00    +0.000 A 
ATOM     14  C   UNL     1       4.132   3.788  19.085  0.00  0.00    +0.000 A 
ATOM     15  C   UNL     1       2.945   3.821  19.839  0.00  0.00    +0.000 A 
ATOM     16  C   UNL     1       2.244   5.040  19.904  0.00  0.00    +0.000 A 
BRANCH  15  17
ATOM     17  C   UNL     1       2.473   2.596  20.569  0.00  0.00    +0.000 C 
ATOM     18  C   UNL     1       1.483   2.756  21.695  0.00  0.00    +0.000 C 
ATOM     19  O   UNL     1       2.852   2.423  21.947  0.00  0.00    +0.000 OA
ENDBRANCH  15  17
ENDBRANCH   8  11
BRANCH   5  20
ATOM     20  C   UNL     1      -0.137   9.818  22.660  0.00  0.00    +0.000 C 
ATOM     21  F   UNL     1      -0.989   8.765  22.797  0.00  0.00    +0.000 F 
ATOM     22  F   UNL     1       0.950   9.514  23.422  0.00  0.00    +0.000 F 
ATOM     23  F   UNL     1      -0.743  10.871  23.272  0.00  0.00    +0.000 F 
ENDBRANCH   5  20
BRANCH   1  24
ATOM     24  C   UNL     1      -0.237  12.955  18.642  0.00  0.00    +0.000 C 
BRANCH  24  29
ATOM     25  C   UNL     1       0.299  16.959  20.565  0.00  0.00    +0.000 C 
ATOM     26  C   UNL     1       0.315  16.724  19.046  0.00  0.00    +0.000 C 
ATOM     27  C   UNL     1      -0.447  17.866  18.363  0.00  0.00    +0.000 C 
ATOM     28  C   UNL     1      -0.370  15.389  18.665  0.00  0.00    +0.000 C 
ATOM     29  N   UNL     1       0.378  14.201  19.119  0.00  0.00    +0.000 NA
ATOM     30  C   UNL     1       1.758  14.298  18.585  0.00  0.00    +0.000 C 
ATOM     31  C   UNL     1       2.438  15.627  18.944  0.00  0.00    +0.000 C 
ATOM     32  O   UNL     1       1.661  16.760  18.533  0.00  0.00    +0.000 OA
ENDBRANCH  24  29
ENDBRANCH   1  24
TORSDOF 5
ENDMDL
MODEL 7
REMARK VINA RESULT:      -8.8      3.998      9.455
REMARK  Name = 
REMARK  7 active torsions:
REMARK  status: ('A' for Active; 'I' for Inactive)
REMARK    1  A    between atoms: C_1  and  C_2
REMARK    2  A    between atoms: C_2  and  C_3
REMARK    3  A    between atoms: N_5  and  C_6
REMARK    4  A    between atoms: C_6  and  C_7
REMARK    5  A    between atoms: C_11  and  C_12
REMARK    6  A    between atoms: N_18  and  C_19
REMARK    7  A    between atoms: C_23  and  C_24
REMARK                            x       y       z     vdW  Elec       q    Type
REMARK                         _______ _______ _______ _____ _____    ______ ____
ROOT
ATOM      1  C   UNL     1      -0.200  11.113  19.067  0.00  0.00    +0.000 A 
ATOM      2  C   UNL     1       0.745  10.352  18.388  0.00  0.00    +0.000 A 
ATOM      3  C   UNL     1       1.261   9.252  19.042  0.00  0.00    +0.000 A 
ATOM      4  C   UNL     1       0.973   8.925  20.362  0.00  0.00    +0.000 A 
ATOM      5  C   UNL     1       0.141   9.745  21.110  0.00  0.00    +0.000 A 
ATOM      6  C   UNL     1      -0.477  10.821  20.430  0.00  0.00    +0.000 A 
ATOM      7  C   UNL     1       1.668   7.646  20.712  0.00  0.00    +0.000 C 
ATOM      8  N   UNL     1       2.346   7.286  19.472  0.00  0.00    +0.000 N 
ATOM      9  C   UNL     1       2.119   8.226  18.477  0.00  0.00    +0.000 C 
ATOM     10  O   UNL     1       2.496   8.290  17.318  0.00  0.00    +0.000 OA
ENDROOT
BRANCH   8  11
ATOM     11  C   UNL     1       3.225   6.178  19.368  0.00  0.00    +0.000 A 
ATOM     12  C   UNL     1       2.792   4.886  19.662  0.00  0.00    +0.000 A 
ATOM     13  C   UNL     1       3.623   3.784  19.469  0.00  0.00    +0.000 A 
ATOM     14  C   UNL     1       4.912   3.970  18.989  0.00  0.00    +0.000 A 
ATOM     15  C   UNL     1       5.402   5.256  18.703  0.00  0.00    +0.000 A 
ATOM     16  C   UNL     1       4.542   6.349  18.920  0.00  0.00    +0.000 A 
BRANCH  15  17
ATOM     17  C   UNL     1       6.789   5.438  18.155  0.00  0.00    +0.000 C 
ATOM     18  C   UNL     1       7.198   4.652  16.934  0.00  0.00    +0.000 C 
ATOM     19  O   UNL     1       7.712   4.336  18.232  0.00  0.00    +0.000 OA
ENDBRANCH  15  17
ENDBRANCH   8  11
BRANCH   5  20
ATOM     20  C   UNL     1      -0.110   9.527  22.580  0.00  0.00    +0.000 C 
ATOM     21  F   UNL     1      -0.754  10.565  23.183  0.00  0.00    +0.000 F 
ATOM     22  F   UNL     1      -0.881   8.430  22.814  0.00  0.00    +0.000 F 
ATOM     23  F   UNL     1       1.038   9.339  23.285  0.00  0.00    +0.000 F 
ENDBRANCH   5  20
BRANCH   1  24
ATOM     24  C   UNL     1      -0.954  12.192  18.316  0.00  0.00    +0.000 C 
BRANCH  24  29
ATOM     25  C   UNL     1      -5.242  12.242  17.041  0.00  0.00    +0.000 C 
ATOM     26  C   UNL     1      -4.704  11.419  18.222  0.00  0.00    +0.000 C 
ATOM     27  C   UNL     1      -5.712  11.498  19.377  0.00  0.00    +0.000 C 
ATOM     28  C   UNL     1      -3.346  11.961  18.728  0.00  0.00    +0.000 C 
ATOM     29  N   UNL     1      -2.248  11.773  17.760  0.00  0.00    +0.000 NA
ATOM     30  C   UNL     1      -2.185  10.333  17.414  0.00  0.00    +0.000 C 
ATOM     31  C   UNL     1      -3.534   9.783  16.928  0.00  0.00    +0.000 C 
ATOM     32  O   UNL     1      -4.588  10.026  17.869  0.00  0.00    +0.000 OA
ENDBRANCH  24  29
ENDBRANCH   1  24
TORSDOF 5
ENDMDL
MODEL 8
REMARK VINA RESULT:      -8.8      1.069      1.905
REMARK  Name = 
REMARK  7 active torsions:
REMARK  status: ('A' for Active; 'I' for Inactive)
REMARK    1  A    between atoms: C_1  and  C_2
REMARK    2  A    between atoms: C_2  and  C_3
REMARK    3  A    between atoms: N_5  and  C_6
REMARK    4  A    between atoms: C_6  and  C_7
REMARK    5  A    between atoms: C_11  and  C_12
REMARK    6  A    between atoms: N_18  and  C_19
REMARK    7  A    between atoms: C_23  and  C_24
REMARK                            x       y       z     vdW  Elec       q    Type
REMARK                         _______ _______ _______ _____ _____    ______ ____
ROOT
ATOM      1  C   UNL     1       5.108   4.361  16.580  0.00  0.00    +0.000 A 
ATOM      2  C   UNL     1       4.732   5.690  16.738  0.00  0.00    +0.000 A 
ATOM      3  C   UNL     1       3.751   5.964  17.671  0.00  0.00    +0.000 A 
ATOM      4  C   UNL     1       3.055   4.991  18.377  0.00  0.00    +0.000 A 
ATOM      5  C   UNL     1       3.312   3.649  18.139  0.00  0.00    +0.000 A 
ATOM      6  C   UNL     1       4.380   3.348  17.261  0.00  0.00    +0.000 A 
ATOM      7  C   UNL     1       2.113   5.659  19.330  0.00  0.00    +0.000 C 
ATOM      8  N   UNL     1       2.362   7.078  19.104  0.00  0.00    +0.000 N 
ATOM      9  C   UNL     1       3.324   7.275  18.125  0.00  0.00    +0.000 C 
ATOM     10  O   UNL     1       3.810   8.292  17.655  0.00  0.00    +0.000 OA
ENDROOT
BRANCH   8  11
ATOM     11  C   UNL     1       1.606   8.101  19.729  0.00  0.00    +0.000 A 
ATOM     12  C   UNL     1       1.252   8.016  21.076  0.00  0.00    +0.000 A 
ATOM     13  C   UNL     1       0.593   9.061  21.717  0.00  0.00    +0.000 A 
ATOM     14  C   UNL     1       0.266  10.209  21.007  0.00  0.00    +0.000 A 
ATOM     15  C   UNL     1       0.579  10.331  19.642  0.00  0.00    +0.000 A 
ATOM     16  C   UNL     1       1.234   9.251  19.020  0.00  0.00    +0.000 A 
BRANCH  15  17
ATOM     17  C   UNL     1       0.247  11.591  18.895  0.00  0.00    +0.000 C 
ATOM     18  C   UNL     1       1.305  12.657  18.758  0.00  0.00    +0.000 C 
ATOM     19  O   UNL     1       0.180  12.830  19.625  0.00  0.00    +0.000 OA
ENDBRANCH  15  17
ENDBRANCH   8  11
BRANCH   5  20
ATOM     20  C   UNL     1       2.507   2.541  18.768  0.00  0.00    +0.000 C 
ATOM     21  F   UNL     1       2.501   2.576  20.129  0.00  0.00    +0.000 F 
ATOM     22  F   UNL     1       1.199   2.578  18.393  0.00  0.00    +0.000 F 
ATOM     23  F   UNL     1       2.962   1.305  18.428  0.00  0.00    +0.000 F 
ENDBRANCH   5  20
BRANCH   1  24
ATOM     24  C   UNL     1       6.325   4.036  15.736  0.00  0.00    +0.000 C 
BRANCH  24  29
ATOM     25  C   UNL     1       4.623   3.787  11.607  0.00  0.00    +0.000 C 
ATOM     26  C   UNL     1       5.910   3.075  12.052  0.00  0.00    +0.000 C 
ATOM     27  C   UNL     1       5.933   1.670  11.437  0.00  0.00    +0.000 C 
ATOM     28  C   UNL     1       5.981   2.929  13.592  0.00  0.00    +0.000 C 
ATOM     29  N   UNL     1       6.145   4.219  14.290  0.00  0.00    +0.000 NA
ATOM     30  C   UNL     1       7.341   4.893  13.732  0.00  0.00    +0.000 C 
ATOM     31  C   UNL     1       7.285   5.026  12.203  0.00  0.00    +0.000 C 
ATOM     32  O   UNL     1       7.076   3.762  11.559  0.00  0.00    +0.000 OA
ENDBRANCH  24  29
ENDBRANCH   1  24
TORSDOF 5
ENDMDL
MODEL 9
REMARK VINA RESULT:      -8.7      4.427      9.411
REMARK  Name = 
REMARK  7 active torsions:
REMARK  status: ('A' for Active; 'I' for Inactive)
REMARK    1  A    between atoms: C_1  and  C_2
REMARK    2  A    between atoms: C_2  and  C_3
REMARK    3  A    between atoms: N_5  and  C_6
REMARK    4  A    between atoms: C_6  and  C_7
REMARK    5  A    between atoms: C_11  and  C_12
REMARK    6  A    between atoms: N_18  and  C_19
REMARK    7  A    between atoms: C_23  and  C_24
REMARK                            x       y       z     vdW  Elec       q    Type
REMARK                         _______ _______ _______ _____ _____    ______ ____
ROOT
ATOM      1  C   UNL     1       0.045  11.938  19.552  0.00  0.00    +0.000 A 
ATOM      2  C   UNL     1       0.853  11.191  18.702  0.00  0.00    +0.000 A 
ATOM      3  C   UNL     1       1.200   9.919  19.114  0.00  0.00    +0.000 A 
ATOM      4  C   UNL     1       0.877   9.389  20.357  0.00  0.00    +0.000 A 
ATOM      5  C   UNL     1       0.189  10.162  21.280  0.00  0.00    +0.000 A 
ATOM      6  C   UNL     1      -0.261  11.431  20.844  0.00  0.00    +0.000 A 
ATOM      7  C   UNL     1       1.369   7.976  20.428  0.00  0.00    +0.000 C 
ATOM      8  N   UNL     1       1.972   7.768  19.116  0.00  0.00    +0.000 N 
ATOM      9  C   UNL     1       1.882   8.907  18.329  0.00  0.00    +0.000 C 
ATOM     10  O   UNL     1       2.254   9.139  17.190  0.00  0.00    +0.000 OA
ENDROOT
BRANCH   8  11
ATOM     11  C   UNL     1       2.667   6.583  18.768  0.00  0.00    +0.000 A 
ATOM     12  C   UNL     1       3.885   6.634  18.092  0.00  0.00    +0.000 A 
ATOM     13  C   UNL     1       4.618   5.478  17.833  0.00  0.00    +0.000 A 
ATOM     14  C   UNL     1       4.125   4.245  18.240  0.00  0.00    +0.000 A 
ATOM     15  C   UNL     1       2.889   4.140  18.903  0.00  0.00    +0.000 A 
ATOM     16  C   UNL     1       2.168   5.326  19.138  0.00  0.00    +0.000 A 
BRANCH  15  17
ATOM     17  C   UNL     1       2.386   2.803  19.364  0.00  0.00    +0.000 C 
ATOM     18  C   UNL     1       1.122   2.250  18.755  0.00  0.00    +0.000 C 
ATOM     19  O   UNL     1       1.148   2.745  20.097  0.00  0.00    +0.000 OA
ENDBRANCH  15  17
ENDBRANCH   8  11
BRANCH   5  20
ATOM     20  C   UNL     1      -0.078   9.703  22.690  0.00  0.00    +0.000 C 
ATOM     21  F   UNL     1       1.052   9.409  23.392  0.00  0.00    +0.000 F 
ATOM     22  F   UNL     1      -0.733  10.643  23.423  0.00  0.00    +0.000 F 
ATOM     23  F   UNL     1      -0.850   8.583  22.738  0.00  0.00    +0.000 F 
ENDBRANCH   5  20
BRANCH   1  24
ATOM     24  C   UNL     1      -0.541  13.244  19.051  0.00  0.00    +0.000 C 
BRANCH  24  29
ATOM     25  C   UNL     1       3.304  15.175  17.828  0.00  0.00    +0.000 C 
ATOM     26  C   UNL     1       2.665  15.332  19.217  0.00  0.00    +0.000 C 
ATOM     27  C   UNL     1       3.772  15.276  20.277  0.00  0.00    +0.000 C 
ATOM     28  C   UNL     1       1.653  14.199  19.514  0.00  0.00    +0.000 C 
ATOM     29  N   UNL     1       0.447  14.260  18.666  0.00  0.00    +0.000 NA
ATOM     30  C   UNL     1      -0.154  15.607  18.821  0.00  0.00    +0.000 C 
ATOM     31  C   UNL     1       0.849  16.736  18.544  0.00  0.00    +0.000 C 
ATOM     32  O   UNL     1       2.030  16.619  19.350  0.00  0.00    +0.000 OA
ENDBRANCH  24  29
ENDBRANCH   1  24
TORSDOF 5
ENDMDL
