MODEL 1
REMARK VINA RESULT:      -8.7      0.000      0.000
REMARK  Name = 
REMARK  7 active torsions:
REMARK  status: ('A' for Active; 'I' for Inactive)
REMARK    1  A    between atoms: C_2  and  C_15
REMARK    2  A    between atoms: N_3  and  C_4
REMARK    3  A    between atoms: C_4  and  C_5
REMARK    4  A    between atoms: C_5  and  C_6
REMARK    5  A    between atoms: C_20  and  N_21
REMARK    6  A    between atoms: N_21  and  C_22
REMARK    7  A    between atoms: C_22  and  C_23
REMARK                            x       y       z     vdW  Elec       q    Type
REMARK                         _______ _______ _______ _____ _____    ______ ____
ROOT
ATOM      1  O   UNL     1       7.931   6.020  19.147  0.00  0.00    +0.000 OA
ATOM      2  C   UNL     1       7.543   6.434  18.060  0.00  0.00    +0.000 C 
ATOM      3  N   UNL     1       7.849   7.742  17.719  0.00  0.00    +0.000 N 
ATOM      4  H   UNL     1       7.887   8.037  16.755  0.00  0.00    +0.000 HD
ENDROOT
BRANCH   2   5
ATOM      5  C   UNL     1       6.789   5.573  17.064  0.00  0.00    +0.000 A 
ATOM      6  C   UNL     1       6.972   5.858  15.685  0.00  0.00    +0.000 A 
ATOM      7  C   UNL     1       6.449   5.048  14.678  0.00  0.00    +0.000 A 
ATOM      8  C   UNL     1       5.732   3.918  15.015  0.00  0.00    +0.000 A 
ATOM      9  C   UNL     1       5.492   3.642  16.364  0.00  0.00    +0.000 A 
ATOM     10  C   UNL     1       5.948   4.480  17.416  0.00  0.00    +0.000 A 
BRANCH  10  11
ATOM     11  N   UNL     1       5.551   4.045  18.702  0.00  0.00    +0.000 N 
ATOM     12  H   UNL     1       5.268   3.065  18.689  0.00  0.00    +0.000 HD
BRANCH  11  13
ATOM     13  C   UNL     1       4.617   4.841  19.497  0.00  0.00    +0.000 C 
BRANCH  13  14
ATOM     14  C   UNL     1       3.316   4.114  19.692  0.00  0.00    +0.000 A 
ATOM     15  C   UNL     1       2.211   4.753  20.263  0.00  0.00    +0.000 A 
ATOM     16  C   UNL     1       1.008   4.068  20.388  0.00  0.00    +0.000 A 
ATOM     17  C   UNL     1       0.952   2.763  19.930  0.00  0.00    +0.000 A 
ATOM     18  N   UNL     1       1.991   2.115  19.362  0.00  0.00    +0.000 NA
ATOM     19  C   UNL     1       3.147   2.808  19.249  0.00  0.00    +0.000 A 
ENDBRANCH  13  14
ENDBRANCH  11  13
ENDBRANCH  10  11
ENDBRANCH   2   5
BRANCH   3  20
ATOM     20  C   UNL     1       8.579   8.603  18.638  0.00  0.00    +0.000 C 
BRANCH  20  21
ATOM     21  C   UNL     1       8.661  10.057  18.155  0.00  0.00    +0.000 C 
BRANCH  21  22
ATOM     22  C   UNL     1       9.508  10.885  19.061  0.00  0.00    +0.000 A 
ATOM     23  N   UNL     1       9.480  10.860  20.380  0.00  0.00    +0.000 NA
ATOM     24  N   UNL     1      10.353  11.812  20.852  0.00  0.00    +0.000 NA
ATOM     25  C   UNL     1      10.906  12.395  19.814  0.00  0.00    +0.000 A 
ATOM     26  N   UNL     1      10.420  11.825  18.667  0.00  0.00    +0.000 N 
ATOM     27  C   UNL     1      10.786  12.247  17.331  0.00  0.00    +0.000 C 
ATOM     28  C   UNL     1      12.047  13.116  17.320  0.00  0.00    +0.000 C 
ATOM     29  C   UNL     1      12.013  14.156  18.444  0.00  0.00    +0.000 C 
ATOM     30  C   UNL     1      11.927  13.471  19.810  0.00  0.00    +0.000 C 
ENDBRANCH  21  22
ENDBRANCH  20  21
ENDBRANCH   3  20
TORSDOF 7
ENDMDL
MODEL 2
REMARK VINA RESULT:      -8.6      1.045      1.177
REMARK  Name = 
REMARK  7 active torsions:
REMARK  status: ('A' for Active; 'I' for Inactive)
REMARK    1  A    between atoms: C_2  and  C_15
REMARK    2  A    between atoms: N_3  and  C_4
REMARK    3  A    between atoms: C_4  and  C_5
REMARK    4  A    between atoms: C_5  and  C_6
REMARK    5  A    between atoms: C_20  and  N_21
REMARK    6  A    between atoms: N_21  and  C_22
REMARK    7  A    between atoms: C_22  and  C_23
REMARK                            x       y       z     vdW  Elec       q    Type
REMARK                         _______ _______ _______ _____ _____    ______ ____
ROOT
ATOM      1  O   UNL     1       7.946   6.139  19.013  0.00  0.00    +0.000 OA
ATOM      2  C   UNL     1       7.474   6.595  17.977  0.00  0.00    +0.000 C 
ATOM      3  N   UNL     1       7.761   7.912  17.659  0.00  0.00    +0.000 N 
ATOM      4  H   UNL     1       7.723   8.243  16.707  0.00  0.00    +0.000 HD
ENDROOT
BRANCH   2   5
ATOM      5  C   UNL     1       6.633   5.775  17.016  0.00  0.00    +0.000 A 
ATOM      6  C   UNL     1       7.263   5.313  15.830  0.00  0.00    +0.000 A 
ATOM      7  C   UNL     1       6.639   4.435  14.945  0.00  0.00    +0.000 A 
ATOM      8  C   UNL     1       5.367   3.978  15.222  0.00  0.00    +0.000 A 
ATOM      9  C   UNL     1       4.704   4.455  16.355  0.00  0.00    +0.000 A 
ATOM     10  C   UNL     1       5.279   5.404  17.242  0.00  0.00    +0.000 A 
BRANCH  10  11
ATOM     11  N   UNL     1       4.417   5.792  18.295  0.00  0.00    +0.000 N 
ATOM     12  H   UNL     1       4.681   5.344  19.172  0.00  0.00    +0.000 HD
BRANCH  11  13
ATOM     13  C   UNL     1       2.967   5.758  18.115  0.00  0.00    +0.000 C 
BRANCH  13  14
ATOM     14  C   UNL     1       2.318   4.836  19.111  0.00  0.00    +0.000 A 
ATOM     15  C   UNL     1       1.484   3.795  18.693  0.00  0.00    +0.000 A 
ATOM     16  C   UNL     1       0.937   2.931  19.634  0.00  0.00    +0.000 A 
ATOM     17  C   UNL     1       1.251   3.138  20.967  0.00  0.00    +0.000 A 
ATOM     18  N   UNL     1       2.061   4.123  21.410  0.00  0.00    +0.000 NA
ATOM     19  C   UNL     1       2.583   4.944  20.470  0.00  0.00    +0.000 A 
ENDBRANCH  13  14
ENDBRANCH  11  13
ENDBRANCH  10  11
ENDBRANCH   2   5
BRANCH   3  20
ATOM     20  C   UNL     1       8.572   8.735  18.546  0.00  0.00    +0.000 C 
BRANCH  20  21
ATOM     21  C   UNL     1       8.683  10.191  18.072  0.00  0.00    +0.000 C 
BRANCH  21  22
ATOM     22  C   UNL     1       9.522  11.003  19.000  0.00  0.00    +0.000 A 
ATOM     23  N   UNL     1       9.619  10.829  20.304  0.00  0.00    +0.000 NA
ATOM     24  N   UNL     1      10.431  11.814  20.814  0.00  0.00    +0.000 NA
ATOM     25  C   UNL     1      10.824  12.566  19.812  0.00  0.00    +0.000 A 
ATOM     26  N   UNL     1      10.293  12.076  18.648  0.00  0.00    +0.000 N 
ATOM     27  C   UNL     1      10.490  12.681  17.347  0.00  0.00    +0.000 C 
ATOM     28  C   UNL     1      11.650  13.681  17.339  0.00  0.00    +0.000 C 
ATOM     29  C   UNL     1      11.615  14.579  18.579  0.00  0.00    +0.000 C 
ATOM     30  C   UNL     1      11.727  13.743  19.855  0.00  0.00    +0.000 C 
ENDBRANCH  21  22
ENDBRANCH  20  21
ENDBRANCH   3  20
TORSDOF 7
ENDMDL
MODEL 3
REMARK VINA RESULT:      -8.4      4.375      7.891
REMARK  Name = 
REMARK  7 active torsions:
REMARK  status: ('A' for Active; 'I' for Inactive)
REMARK    1  A    between atoms: C_2  and  C_15
REMARK    2  A    between atoms: N_3  and  C_4
REMARK    3  A    between atoms: C_4  and  C_5
REMARK    4  A    between atoms: C_5  and  C_6
REMARK    5  A    between atoms: C_20  and  N_21
REMARK    6  A    between atoms: N_21  and  C_22
REMARK    7  A    between atoms: C_22  and  C_23
REMARK                            x       y       z     vdW  Elec       q    Type
REMARK                         _______ _______ _______ _____ _____    ______ ____
ROOT
ATOM      1  O   UNL     1       3.999   6.242  19.537  0.00  0.00    +0.000 OA
ATOM      2  C   UNL     1       3.056   5.810  18.884  0.00  0.00    +0.000 C 
ATOM      3  N   UNL     1       2.348   6.705  18.099  0.00  0.00    +0.000 N 
ATOM      4  H   UNL     1       1.821   6.396  17.296  0.00  0.00    +0.000 HD
ENDROOT
BRANCH   2   5
ATOM      5  C   UNL     1       2.663   4.345  18.863  0.00  0.00    +0.000 A 
ATOM      6  C   UNL     1       1.324   4.024  19.214  0.00  0.00    +0.000 A 
ATOM      7  C   UNL     1       0.808   2.734  19.093  0.00  0.00    +0.000 A 
ATOM      8  C   UNL     1       1.610   1.721  18.607  0.00  0.00    +0.000 A 
ATOM      9  C   UNL     1       2.945   1.998  18.304  0.00  0.00    +0.000 A 
ATOM     10  C   UNL     1       3.527   3.282  18.480  0.00  0.00    +0.000 A 
BRANCH  10  11
ATOM     11  N   UNL     1       4.905   3.330  18.163  0.00  0.00    +0.000 N 
ATOM     12  H   UNL     1       5.462   3.586  18.977  0.00  0.00    +0.000 HD
BRANCH  11  13
ATOM     13  C   UNL     1       5.366   4.046  16.975  0.00  0.00    +0.000 C 
BRANCH  13  14
ATOM     14  C   UNL     1       6.211   5.232  17.351  0.00  0.00    +0.000 A 
ATOM     15  C   UNL     1       7.111   5.166  18.420  0.00  0.00    +0.000 A 
ATOM     16  C   UNL     1       7.912   6.263  18.714  0.00  0.00    +0.000 A 
ATOM     17  C   UNL     1       7.785   7.391  17.921  0.00  0.00    +0.000 A 
ATOM     18  N   UNL     1       6.939   7.491  16.875  0.00  0.00    +0.000 NA
ATOM     19  C   UNL     1       6.177   6.405  16.609  0.00  0.00    +0.000 A 
ENDBRANCH  13  14
ENDBRANCH  11  13
ENDBRANCH  10  11
ENDBRANCH   2   5
BRANCH   3  20
ATOM     20  C   UNL     1       2.696   8.119  18.079  0.00  0.00    +0.000 C 
BRANCH  20  21
ATOM     21  C   UNL     1       1.478   9.035  18.268  0.00  0.00    +0.000 C 
BRANCH  21  22
ATOM     22  C   UNL     1       1.134   9.190  19.711  0.00  0.00    +0.000 A 
ATOM     23  N   UNL     1       1.451   8.348  20.676  0.00  0.00    +0.000 NA
ATOM     24  N   UNL     1       0.898   8.802  21.849  0.00  0.00    +0.000 NA
ATOM     25  C   UNL     1       0.260   9.919  21.583  0.00  0.00    +0.000 A 
ATOM     26  N   UNL     1       0.403  10.212  20.253  0.00  0.00    +0.000 N 
ATOM     27  C   UNL     1      -0.200  11.356  19.603  0.00  0.00    +0.000 C 
ATOM     28  C   UNL     1      -0.684  12.408  20.606  0.00  0.00    +0.000 C 
ATOM     29  C   UNL     1      -1.410  11.754  21.786  0.00  0.00    +0.000 C 
ATOM     30  C   UNL     1      -0.480  10.793  22.527  0.00  0.00    +0.000 C 
ENDBRANCH  21  22
ENDBRANCH  20  21
ENDBRANCH   3  20
TORSDOF 7
ENDMDL
MODEL 4
REMARK VINA RESULT:      -8.3      4.549      6.992
REMARK  Name = 
REMARK  7 active torsions:
REMARK  status: ('A' for Active; 'I' for Inactive)
REMARK    1  A    between atoms: C_2  and  C_15
REMARK    2  A    between atoms: N_3  and  C_4
REMARK    3  A    between atoms: C_4  and  C_5
REMARK    4  A    between atoms: C_5  and  C_6
REMARK    5  A    between atoms: C_20  and  N_21
REMARK    6  A    between atoms: N_21  and  C_22
REMARK    7  A    between atoms: C_22  and  C_23
REMARK                            x       y       z     vdW  Elec       q    Type
REMARK                         _______ _______ _______ _____ _____    ______ ____
ROOT
ATOM      1  O   UNL     1       2.948   5.701  17.404  0.00  0.00    +0.000 OA
ATOM      2  C   UNL     1       3.781   6.583  17.581  0.00  0.00    +0.000 C 
ATOM      3  N   UNL     1       3.329   7.885  17.712  0.00  0.00    +0.000 N 
ATOM      4  H   UNL     1       3.873   8.584  18.195  0.00  0.00    +0.000 HD
ENDROOT
BRANCH   2   5
ATOM      5  C   UNL     1       5.268   6.306  17.705  0.00  0.00    +0.000 A 
ATOM      6  C   UNL     1       6.153   7.403  17.528  0.00  0.00    +0.000 A 
ATOM      7  C   UNL     1       7.524   7.303  17.759  0.00  0.00    +0.000 A 
ATOM      8  C   UNL     1       8.058   6.104  18.186  0.00  0.00    +0.000 A 
ATOM      9  C   UNL     1       7.219   4.995  18.319  0.00  0.00    +0.000 A 
ATOM     10  C   UNL     1       5.829   5.039  18.025  0.00  0.00    +0.000 A 
BRANCH  10  11
ATOM     11  N   UNL     1       5.178   3.792  18.176  0.00  0.00    +0.000 N 
ATOM     12  H   UNL     1       4.452   3.668  17.470  0.00  0.00    +0.000 HD
BRANCH  11  13
ATOM     13  C   UNL     1       4.700   3.361  19.489  0.00  0.00    +0.000 C 
BRANCH  13  14
ATOM     14  C   UNL     1       3.211   3.151  19.481  0.00  0.00    +0.000 A 
ATOM     15  C   UNL     1       2.409   3.628  20.523  0.00  0.00    +0.000 A 
ATOM     16  C   UNL     1       1.031   3.460  20.464  0.00  0.00    +0.000 A 
ATOM     17  C   UNL     1       0.501   2.820  19.356  0.00  0.00    +0.000 A 
ATOM     18  N   UNL     1       1.238   2.357  18.324  0.00  0.00    +0.000 NA
ATOM     19  C   UNL     1       2.575   2.540  18.407  0.00  0.00    +0.000 A 
ENDBRANCH  13  14
ENDBRANCH  11  13
ENDBRANCH  10  11
ENDBRANCH   2   5
BRANCH   3  20
ATOM     20  C   UNL     1       1.910   8.197  17.610  0.00  0.00    +0.000 C 
BRANCH  20  21
ATOM     21  C   UNL     1       1.511   9.434  18.428  0.00  0.00    +0.000 C 
BRANCH  21  22
ATOM     22  C   UNL     1       1.279   9.088  19.860  0.00  0.00    +0.000 A 
ATOM     23  N   UNL     1       1.649   7.968  20.453  0.00  0.00    +0.000 NA
ATOM     24  N   UNL     1       1.195   7.994  21.750  0.00  0.00    +0.000 NA
ATOM     25  C   UNL     1       0.565   9.132  21.930  0.00  0.00    +0.000 A 
ATOM     26  N   UNL     1       0.615   9.861  20.772  0.00  0.00    +0.000 N 
ATOM     27  C   UNL     1      -0.009  11.156  20.598  0.00  0.00    +0.000 C 
ATOM     28  C   UNL     1      -0.392  11.801  21.933  0.00  0.00    +0.000 C 
ATOM     29  C   UNL     1      -1.043  10.783  22.874  0.00  0.00    +0.000 C 
ATOM     30  C   UNL     1      -0.082   9.630  23.170  0.00  0.00    +0.000 C 
ENDBRANCH  21  22
ENDBRANCH  20  21
ENDBRANCH   3  20
TORSDOF 7
ENDMDL
MODEL 5
REMARK VINA RESULT:      -8.3      5.341      8.260
REMARK  Name = 
REMARK  7 active torsions:
REMARK  status: ('A' for Active; 'I' for Inactive)
REMARK    1  A    between atoms: C_2  and  C_15
REMARK    2  A    between atoms: N_3  and  C_4
REMARK    3  A    between atoms: C_4  and  C_5
REMARK    4  A    between atoms: C_5  and  C_6
REMARK    5  A    between atoms: C_20  and  N_21
REMARK    6  A    between atoms: N_21  and  C_22
REMARK    7  A    between atoms: C_22  and  C_23
REMARK                            x       y       z     vdW  Elec       q    Type
REMARK                         _______ _______ _______ _____ _____    ______ ____
ROOT
ATOM      1  O   UNL     1       2.308   7.724  19.135  0.00  0.00    +0.000 OA
ATOM      2  C   UNL     1       1.971   6.904  19.981  0.00  0.00    +0.000 C 
ATOM      3  N   UNL     1       1.506   7.382  21.196  0.00  0.00    +0.000 N 
ATOM      4  H   UNL     1       0.900   6.826  21.781  0.00  0.00    +0.000 HD
ENDROOT
BRANCH   2   5
ATOM      5  C   UNL     1       1.999   5.406  19.743  0.00  0.00    +0.000 A 
ATOM      6  C   UNL     1       1.220   4.593  20.610  0.00  0.00    +0.000 A 
ATOM      7  C   UNL     1       1.053   3.225  20.403  0.00  0.00    +0.000 A 
ATOM      8  C   UNL     1       1.650   2.623  19.314  0.00  0.00    +0.000 A 
ATOM      9  C   UNL     1       2.463   3.388  18.474  0.00  0.00    +0.000 A 
ATOM     10  C   UNL     1       2.715   4.769  18.692  0.00  0.00    +0.000 A 
BRANCH  10  11
ATOM     11  N   UNL     1       3.608   5.339  17.755  0.00  0.00    +0.000 N 
ATOM     12  H   UNL     1       3.342   5.098  16.800  0.00  0.00    +0.000 HD
BRANCH  11  13
ATOM     13  C   UNL     1       5.053   5.210  17.937  0.00  0.00    +0.000 C 
BRANCH  13  14
ATOM     14  C   UNL     1       5.750   5.019  16.618  0.00  0.00    +0.000 A 
ATOM     15  C   UNL     1       5.183   4.233  15.610  0.00  0.00    +0.000 A 
ATOM     16  C   UNL     1       5.828   4.114  14.385  0.00  0.00    +0.000 A 
ATOM     17  C   UNL     1       7.023   4.792  14.211  0.00  0.00    +0.000 A 
ATOM     18  N   UNL     1       7.597   5.569  15.153  0.00  0.00    +0.000 NA
ATOM     19  C   UNL     1       6.942   5.671  16.333  0.00  0.00    +0.000 A 
ENDBRANCH  13  14
ENDBRANCH  11  13
ENDBRANCH  10  11
ENDBRANCH   2   5
BRANCH   3  20
ATOM     20  C   UNL     1       1.451   8.811  21.465  0.00  0.00    +0.000 C 
BRANCH  20  21
ATOM     21  C   UNL     1       0.018   9.360  21.487  0.00  0.00    +0.000 C 
BRANCH  21  22
ATOM     22  C   UNL     1      -0.257  10.214  20.295  0.00  0.00    +0.000 A 
ATOM     23  N   UNL     1      -0.639   9.781  19.108  0.00  0.00    +0.000 NA
ATOM     24  N   UNL     1      -0.720  10.859  18.259  0.00  0.00    +0.000 NA
ATOM     25  C   UNL     1      -0.396  11.931  18.943  0.00  0.00    +0.000 A 
ATOM     26  N   UNL     1      -0.120  11.573  20.236  0.00  0.00    +0.000 N 
ATOM     27  C   UNL     1       0.308  12.499  21.263  0.00  0.00    +0.000 C 
ATOM     28  C   UNL     1       0.049  13.959  20.876  0.00  0.00    +0.000 C 
ATOM     29  C   UNL     1       0.450  14.224  19.421  0.00  0.00    +0.000 C 
ATOM     30  C   UNL     1      -0.354  13.337  18.469  0.00  0.00    +0.000 C 
ENDBRANCH  21  22
ENDBRANCH  20  21
ENDBRANCH   3  20
TORSDOF 7
ENDMDL
MODEL 6
REMARK VINA RESULT:      -8.3      5.553      8.596
REMARK  Name = 
REMARK  7 active torsions:
REMARK  status: ('A' for Active; 'I' for Inactive)
REMARK    1  A    between atoms: C_2  and  C_15
REMARK    2  A    between atoms: N_3  and  C_4
REMARK    3  A    between atoms: C_4  and  C_5
REMARK    4  A    between atoms: C_5  and  C_6
REMARK    5  A    between atoms: C_20  and  N_21
REMARK    6  A    between atoms: N_21  and  C_22
REMARK    7  A    between atoms: C_22  and  C_23
REMARK                            x       y       z     vdW  Elec       q    Type
REMARK                         _______ _______ _______ _____ _____    ______ ____
ROOT
ATOM      1  O   UNL     1       2.149   7.189  18.916  0.00  0.00    +0.000 OA
ATOM      2  C   UNL     1       2.133   6.580  19.980  0.00  0.00    +0.000 C 
ATOM      3  N   UNL     1       1.623   7.231  21.091  0.00  0.00    +0.000 N 
ATOM      4  H   UNL     1       1.255   6.717  21.877  0.00  0.00    +0.000 HD
ENDROOT
BRANCH   2   5
ATOM      5  C   UNL     1       2.602   5.144  20.121  0.00  0.00    +0.000 A 
ATOM      6  C   UNL     1       2.112   4.403  21.229  0.00  0.00    +0.000 A 
ATOM      7  C   UNL     1       2.356   3.039  21.385  0.00  0.00    +0.000 A 
ATOM      8  C   UNL     1       3.091   2.366  20.430  0.00  0.00    +0.000 A 
ATOM      9  C   UNL     1       3.629   3.080  19.357  0.00  0.00    +0.000 A 
ATOM     10  C   UNL     1       3.462   4.482  19.201  0.00  0.00    +0.000 A 
BRANCH  10  11
ATOM     11  N   UNL     1       4.133   5.012  18.075  0.00  0.00    +0.000 N 
ATOM     12  H   UNL     1       3.724   4.668  17.206  0.00  0.00    +0.000 HD
BRANCH  11  13
ATOM     13  C   UNL     1       5.593   4.987  18.004  0.00  0.00    +0.000 C 
BRANCH  13  14
ATOM     14  C   UNL     1       6.064   4.851  16.582  0.00  0.00    +0.000 A 
ATOM     15  C   UNL     1       5.305   4.157  15.634  0.00  0.00    +0.000 A 
ATOM     16  C   UNL     1       5.744   4.090  14.317  0.00  0.00    +0.000 A 
ATOM     17  C   UNL     1       6.931   4.725  13.993  0.00  0.00    +0.000 A 
ATOM     18  N   UNL     1       7.685   5.414  14.875  0.00  0.00    +0.000 NA
ATOM     19  C   UNL     1       7.230   5.468  16.148  0.00  0.00    +0.000 A 
ENDBRANCH  13  14
ENDBRANCH  11  13
ENDBRANCH  10  11
ENDBRANCH   2   5
BRANCH   3  20
ATOM     20  C   UNL     1       1.152   8.605  21.002  0.00  0.00    +0.000 C 
BRANCH  20  21
ATOM     21  C   UNL     1      -0.226   8.807  21.648  0.00  0.00    +0.000 C 
BRANCH  21  22
ATOM     22  C   UNL     1      -0.443  10.231  22.036  0.00  0.00    +0.000 A 
ATOM     23  N   UNL     1      -0.438  10.704  23.268  0.00  0.00    +0.000 NA
ATOM     24  N   UNL     1      -0.743  12.043  23.219  0.00  0.00    +0.000 NA
ATOM     25  C   UNL     1      -0.919  12.368  21.959  0.00  0.00    +0.000 A 
ATOM     26  N   UNL     1      -0.716  11.260  21.178  0.00  0.00    +0.000 N 
ATOM     27  C   UNL     1      -0.862  11.244  19.738  0.00  0.00    +0.000 C 
ATOM     28  C   UNL     1      -0.882  12.653  19.138  0.00  0.00    +0.000 C 
ATOM     29  C   UNL     1      -1.765  13.593  19.963  0.00  0.00    +0.000 C 
ATOM     30  C   UNL     1      -1.245  13.702  21.398  0.00  0.00    +0.000 C 
ENDBRANCH  21  22
ENDBRANCH  20  21
ENDBRANCH   3  20
TORSDOF 7
ENDMDL
MODEL 7
REMARK VINA RESULT:      -8.2      5.097      7.099
REMARK  Name = 
REMARK  7 active torsions:
REMARK  status: ('A' for Active; 'I' for Inactive)
REMARK    1  A    between atoms: C_2  and  C_15
REMARK    2  A    between atoms: N_3  and  C_4
REMARK    3  A    between atoms: C_4  and  C_5
REMARK    4  A    between atoms: C_5  and  C_6
REMARK    5  A    between atoms: C_20  and  N_21
REMARK    6  A    between atoms: N_21  and  C_22
REMARK    7  A    between atoms: C_22  and  C_23
REMARK                            x       y       z     vdW  Elec       q    Type
REMARK                         _______ _______ _______ _____ _____    ______ ____
ROOT
ATOM      1  O   UNL     1       2.761   6.508  19.108  0.00  0.00    +0.000 OA
ATOM      2  C   UNL     1       3.324   6.858  18.077  0.00  0.00    +0.000 C 
ATOM      3  N   UNL     1       2.852   7.991  17.435  0.00  0.00    +0.000 N 
ATOM      4  H   UNL     1       3.444   8.530  16.821  0.00  0.00    +0.000 HD
ENDROOT
BRANCH   2   5
ATOM      5  C   UNL     1       4.529   6.136  17.503  0.00  0.00    +0.000 A 
ATOM      6  C   UNL     1       5.729   6.883  17.362  0.00  0.00    +0.000 A 
ATOM      7  C   UNL     1       6.936   6.295  16.983  0.00  0.00    +0.000 A 
ATOM      8  C   UNL     1       6.986   4.937  16.744  0.00  0.00    +0.000 A 
ATOM      9  C   UNL     1       5.810   4.187  16.825  0.00  0.00    +0.000 A 
ATOM     10  C   UNL     1       4.549   4.762  17.138  0.00  0.00    +0.000 A 
BRANCH  10  11
ATOM     11  N   UNL     1       3.481   3.834  17.115  0.00  0.00    +0.000 N 
ATOM     12  H   UNL     1       2.584   4.302  17.243  0.00  0.00    +0.000 HD
BRANCH  11  13
ATOM     13  C   UNL     1       3.545   2.613  17.916  0.00  0.00    +0.000 C 
BRANCH  13  14
ATOM     14  C   UNL     1       2.854   2.795  19.239  0.00  0.00    +0.000 A 
ATOM     15  C   UNL     1       1.515   3.195  19.305  0.00  0.00    +0.000 A 
ATOM     16  C   UNL     1       0.891   3.310  20.541  0.00  0.00    +0.000 A 
ATOM     17  C   UNL     1       1.631   3.015  21.673  0.00  0.00    +0.000 A 
ATOM     18  N   UNL     1       2.920   2.614  21.652  0.00  0.00    +0.000 NA
ATOM     19  C   UNL     1       3.499   2.506  20.434  0.00  0.00    +0.000 A 
ENDBRANCH  13  14
ENDBRANCH  11  13
ENDBRANCH  10  11
ENDBRANCH   2   5
BRANCH   3  20
ATOM     20  C   UNL     1       1.705   8.721  17.954  0.00  0.00    +0.000 C 
BRANCH  20  21
ATOM     21  C   UNL     1       2.003  10.208  18.194  0.00  0.00    +0.000 C 
BRANCH  21  22
ATOM     22  C   UNL     1       0.957  10.842  19.047  0.00  0.00    +0.000 A 
ATOM     23  N   UNL     1       0.326  11.971  18.783  0.00  0.00    +0.000 NA
ATOM     24  N   UNL     1      -0.508  12.259  19.837  0.00  0.00    +0.000 NA
ATOM     25  C   UNL     1      -0.382  11.296  20.721  0.00  0.00    +0.000 A 
ATOM     26  N   UNL     1       0.514  10.372  20.252  0.00  0.00    +0.000 N 
ATOM     27  C   UNL     1       0.923   9.192  20.986  0.00  0.00    +0.000 C 
ATOM     28  C   UNL     1      -0.019   8.874  22.150  0.00  0.00    +0.000 C 
ATOM     29  C   UNL     1      -0.386  10.142  22.927  0.00  0.00    +0.000 C 
ATOM     30  C   UNL     1      -1.091  11.149  22.016  0.00  0.00    +0.000 C 
ENDBRANCH  21  22
ENDBRANCH  20  21
ENDBRANCH   3  20
TORSDOF 7
ENDMDL
MODEL 8
REMARK VINA RESULT:      -8.2      5.595      8.584
REMARK  Name = 
REMARK  7 active torsions:
REMARK  status: ('A' for Active; 'I' for Inactive)
REMARK    1  A    between atoms: C_2  and  C_15
REMARK    2  A    between atoms: N_3  and  C_4
REMARK    3  A    between atoms: C_4  and  C_5
REMARK    4  A    between atoms: C_5  and  C_6
REMARK    5  A    between atoms: C_20  and  N_21
REMARK    6  A    between atoms: N_21  and  C_22
REMARK    7  A    between atoms: C_22  and  C_23
REMARK                            x       y       z     vdW  Elec       q    Type
REMARK                         _______ _______ _______ _____ _____    ______ ____
ROOT
ATOM      1  O   UNL     1       2.526   7.340  18.840  0.00  0.00    +0.000 OA
ATOM      2  C   UNL     1       2.084   6.671  19.767  0.00  0.00    +0.000 C 
ATOM      3  N   UNL     1       1.530   7.343  20.844  0.00  0.00    +0.000 N 
ATOM      4  H   UNL     1       0.854   6.900  21.448  0.00  0.00    +0.000 HD
ENDROOT
BRANCH   2   5
ATOM      5  C   UNL     1       2.078   5.153  19.766  0.00  0.00    +0.000 A 
ATOM      6  C   UNL     1       1.576   4.503  20.925  0.00  0.00    +0.000 A 
ATOM      7  C   UNL     1       1.387   3.122  20.985  0.00  0.00    +0.000 A 
ATOM      8  C   UNL     1       1.683   2.345  19.883  0.00  0.00    +0.000 A 
ATOM      9  C   UNL     1       2.227   2.953  18.749  0.00  0.00    +0.000 A 
ATOM     10  C   UNL     1       2.500   4.345  18.674  0.00  0.00    +0.000 A 
BRANCH  10  11
ATOM     11  N   UNL     1       3.099   4.742  17.456  0.00  0.00    +0.000 N 
ATOM     12  H   UNL     1       2.416   4.759  16.698  0.00  0.00    +0.000 HD
BRANCH  11  13
ATOM     13  C   UNL     1       4.349   4.129  17.011  0.00  0.00    +0.000 C 
BRANCH  13  14
ATOM     14  C   UNL     1       5.539   4.874  17.549  0.00  0.00    +0.000 A 
ATOM     15  C   UNL     1       6.135   5.906  16.817  0.00  0.00    +0.000 A 
ATOM     16  C   UNL     1       7.204   6.608  17.361  0.00  0.00    +0.000 A 
ATOM     17  C   UNL     1       7.638   6.253  18.627  0.00  0.00    +0.000 A 
ATOM     18  N   UNL     1       7.082   5.273  19.371  0.00  0.00    +0.000 NA
ATOM     19  C   UNL     1       6.040   4.612  18.818  0.00  0.00    +0.000 A 
ENDBRANCH  13  14
ENDBRANCH  11  13
ENDBRANCH  10  11
ENDBRANCH   2   5
BRANCH   3  20
ATOM     20  C   UNL     1       1.505   8.798  20.884  0.00  0.00    +0.000 C 
BRANCH  20  21
ATOM     21  C   UNL     1       0.471   9.349  21.876  0.00  0.00    +0.000 C 
BRANCH  21  22
ATOM     22  C   UNL     1       0.363  10.834  21.781  0.00  0.00    +0.000 A 
ATOM     23  N   UNL     1       1.209  11.630  21.154  0.00  0.00    +0.000 NA
ATOM     24  N   UNL     1       0.809  12.930  21.352  0.00  0.00    +0.000 NA
ATOM     25  C   UNL     1      -0.279  12.906  22.087  0.00  0.00    +0.000 A 
ATOM     26  N   UNL     1      -0.607  11.604  22.360  0.00  0.00    +0.000 N 
ATOM     27  C   UNL     1      -1.733  11.204  23.178  0.00  0.00    +0.000 C 
ATOM     28  C   UNL     1      -2.736  12.342  23.386  0.00  0.00    +0.000 C 
ATOM     29  C   UNL     1      -2.021  13.660  23.698  0.00  0.00    +0.000 C 
ATOM     30  C   UNL     1      -1.094  14.057  22.549  0.00  0.00    +0.000 C 
ENDBRANCH  21  22
ENDBRANCH  20  21
ENDBRANCH   3  20
TORSDOF 7
ENDMDL
MODEL 9
REMARK VINA RESULT:      -8.2      5.673      6.363
REMARK  Name = 
REMARK  7 active torsions:
REMARK  status: ('A' for Active; 'I' for Inactive)
REMARK    1  A    between atoms: C_2  and  C_15
REMARK    2  A    between atoms: N_3  and  C_4
REMARK    3  A    between atoms: C_4  and  C_5
REMARK    4  A    between atoms: C_5  and  C_6
REMARK    5  A    between atoms: C_20  and  N_21
REMARK    6  A    between atoms: N_21  and  C_22
REMARK    7  A    between atoms: C_22  and  C_23
REMARK                            x       y       z     vdW  Elec       q    Type
REMARK                         _______ _______ _______ _____ _____    ______ ____
ROOT
ATOM      1  O   UNL     1       5.156   5.672  19.699  0.00  0.00    +0.000 OA
ATOM      2  C   UNL     1       4.342   5.627  18.784  0.00  0.00    +0.000 C 
ATOM      3  N   UNL     1       3.033   5.987  19.063  0.00  0.00    +0.000 N 
ATOM      4  H   UNL     1       2.412   6.312  18.337  0.00  0.00    +0.000 HD
ENDROOT
BRANCH   2   5
ATOM      5  C   UNL     1       4.710   5.241  17.363  0.00  0.00    +0.000 A 
ATOM      6  C   UNL     1       4.971   6.295  16.447  0.00  0.00    +0.000 A 
ATOM      7  C   UNL     1       5.456   6.065  15.160  0.00  0.00    +0.000 A 
ATOM      8  C   UNL     1       5.707   4.772  14.748  0.00  0.00    +0.000 A 
ATOM      9  C   UNL     1       5.411   3.714  15.610  0.00  0.00    +0.000 A 
ATOM     10  C   UNL     1       4.850   3.903  16.901  0.00  0.00    +0.000 A 
BRANCH  10  11
ATOM     11  N   UNL     1       4.579   2.695  17.586  0.00  0.00    +0.000 N 
ATOM     12  H   UNL     1       5.184   1.942  17.257  0.00  0.00    +0.000 HD
BRANCH  11  13
ATOM     13  C   UNL     1       3.204   2.224  17.740  0.00  0.00    +0.000 C 
BRANCH  13  14
ATOM     14  C   UNL     1       2.682   2.518  19.119  0.00  0.00    +0.000 A 
ATOM     15  C   UNL     1       1.333   2.815  19.332  0.00  0.00    +0.000 A 
ATOM     16  C   UNL     1       0.872   3.035  20.624  0.00  0.00    +0.000 A 
ATOM     17  C   UNL     1       1.782   2.946  21.663  0.00  0.00    +0.000 A 
ATOM     18  N   UNL     1       3.089   2.649  21.502  0.00  0.00    +0.000 NA
ATOM     19  C   UNL     1       3.507   2.433  20.234  0.00  0.00    +0.000 A 
ENDBRANCH  13  14
ENDBRANCH  11  13
ENDBRANCH  10  11
ENDBRANCH   2   5
BRANCH   3  20
ATOM     20  C   UNL     1       2.636   6.375  20.409  0.00  0.00    +0.000 C 
BRANCH  20  21
ATOM     21  C   UNL     1       1.197   6.906  20.476  0.00  0.00    +0.000 C 
BRANCH  21  22
ATOM     22  C   UNL     1       1.159   8.313  20.970  0.00  0.00    +0.000 A 
ATOM     23  N   UNL     1       1.068   8.684  22.233  0.00  0.00    +0.000 NA
ATOM     24  N   UNL     1       0.990  10.056  22.278  0.00  0.00    +0.000 NA
ATOM     25  C   UNL     1       1.045  10.499  21.043  0.00  0.00    +0.000 A 
ATOM     26  N   UNL     1       1.175   9.435  20.190  0.00  0.00    +0.000 N 
ATOM     27  C   UNL     1       1.229   9.552  18.747  0.00  0.00    +0.000 C 
ATOM     28  C   UNL     1       1.517  10.984  18.289  0.00  0.00    +0.000 C 
ATOM     29  C   UNL     1       0.690  11.997  19.086  0.00  0.00    +0.000 C 
ATOM     30  C   UNL     1       1.017  11.908  20.578  0.00  0.00    +0.000 C 
ENDBRANCH  21  22
ENDBRANCH  20  21
ENDBRANCH   3  20
TORSDOF 7
ENDMDL
