MODEL 1
REMARK VINA RESULT:      -8.6      0.000      0.000
REMARK  Name = 
REMARK  5 active torsions:
REMARK  status: ('A' for Active; 'I' for Inactive)
REMARK    1  A    between atoms: C_8  and  S_9
REMARK    2  A    between atoms: S_9  and  N_12
REMARK    3  A    between atoms: N_12  and  C_13
REMARK    4  A    between atoms: C_18  and  C_19
REMARK    5  A    between atoms: N_21  and  C_22
REMARK                            x       y       z     vdW  Elec       q    Type
REMARK                         _______ _______ _______ _____ _____    ______ ____
ROOT
ATOM      1  S   UNL     1       2.854   6.902  18.391  0.00  0.00    +0.000 S 
ATOM      2  O   UNL     1       1.963   6.021  17.671  0.00  0.00    +0.000 OA
ATOM      3  O   UNL     1       4.101   7.374  17.831  0.00  0.00    +0.000 OA
ENDROOT
BRANCH   1  11
ATOM      4  O   UNL     1      -0.899  10.941  23.430  0.00  0.00    +0.000 OA
ATOM      5  C   UNL     1      -0.433  10.852  22.297  0.00  0.00    +0.000 C 
ATOM      6  C   UNL     1      -0.407  12.009  21.303  0.00  0.00    +0.000 C 
ATOM      7  O   UNL     1      -0.242  11.737  19.919  0.00  0.00    +0.000 OA
ATOM      8  C   UNL     1       0.477  10.606  19.646  0.00  0.00    +0.000 A 
ATOM      9  C   UNL     1       0.944  10.479  18.338  0.00  0.00    +0.000 A 
ATOM     10  C   UNL     1       1.669   9.348  17.961  0.00  0.00    +0.000 A 
ATOM     11  C   UNL     1       1.915   8.337  18.897  0.00  0.00    +0.000 A 
ATOM     12  C   UNL     1       1.409   8.434  20.202  0.00  0.00    +0.000 A 
ATOM     13  C   UNL     1       0.701   9.582  20.572  0.00  0.00    +0.000 A 
ATOM     14  N   UNL     1       0.190   9.703  21.870  0.00  0.00    +0.000 N 
ATOM     15  H   UNL     1       0.247   8.944  22.533  0.00  0.00    +0.000 HD
ENDBRANCH   1  11
BRANCH   1  16
ATOM     16  N   UNL     1       3.207   6.219  19.924  0.00  0.00    +0.000 N 
ATOM     17  H   UNL     1       4.202   6.368  20.108  0.00  0.00    +0.000 HD
BRANCH  16  18
ATOM     18  C   UNL     1       2.871   4.813  20.070  0.00  0.00    +0.000 A 
ATOM     19  C   UNL     1       1.736   4.487  20.832  0.00  0.00    +0.000 A 
ATOM     20  C   UNL     1       1.294   3.163  20.928  0.00  0.00    +0.000 A 
ATOM     21  C   UNL     1       1.985   2.149  20.276  0.00  0.00    +0.000 A 
ATOM     22  C   UNL     1       3.146   2.455  19.564  0.00  0.00    +0.000 A 
ATOM     23  C   UNL     1       3.612   3.780  19.466  0.00  0.00    +0.000 A 
BRANCH  23  24
ATOM     24  C   UNL     1       4.858   3.972  18.669  0.00  0.00    +0.000 C 
ATOM     25  O   UNL     1       5.953   3.920  19.222  0.00  0.00    +0.000 OA
ATOM     26  N   UNL     1       4.703   4.168  17.313  0.00  0.00    +0.000 N 
ATOM     27  H   UNL     1       3.759   4.273  16.962  0.00  0.00    +0.000 HD
BRANCH  26  28
ATOM     28  C   UNL     1       5.805   4.435  16.452  0.00  0.00    +0.000 C 
ATOM     29  C   UNL     1       5.665   5.363  15.278  0.00  0.00    +0.000 C 
ATOM     30  C   UNL     1       5.817   3.889  15.052  0.00  0.00    +0.000 C 
ENDBRANCH  26  28
ENDBRANCH  23  24
ENDBRANCH  16  18
ENDBRANCH   1  16
TORSDOF 5
ENDMDL
MODEL 2
REMARK VINA RESULT:      -8.4      1.147      1.893
REMARK  Name = 
REMARK  5 active torsions:
REMARK  status: ('A' for Active; 'I' for Inactive)
REMARK    1  A    between atoms: C_8  and  S_9
REMARK    2  A    between atoms: S_9  and  N_12
REMARK    3  A    between atoms: N_12  and  C_13
REMARK    4  A    between atoms: C_18  and  C_19
REMARK    5  A    between atoms: N_21  and  C_22
REMARK                            x       y       z     vdW  Elec       q    Type
REMARK                         _______ _______ _______ _____ _____    ______ ____
ROOT
ATOM      1  S   UNL     1       2.835   6.815  18.439  0.00  0.00    +0.000 S 
ATOM      2  O   UNL     1       1.903   6.015  17.677  0.00  0.00    +0.000 OA
ATOM      3  O   UNL     1       4.042   7.363  17.861  0.00  0.00    +0.000 OA
ENDROOT
BRANCH   1  11
ATOM      4  O   UNL     1      -0.529  13.477  18.142  0.00  0.00    +0.000 OA
ATOM      5  C   UNL     1      -0.259  12.468  18.789  0.00  0.00    +0.000 C 
ATOM      6  C   UNL     1      -0.845  12.170  20.166  0.00  0.00    +0.000 C 
ATOM      7  O   UNL     1      -0.196  11.230  21.010  0.00  0.00    +0.000 OA
ATOM      8  C   UNL     1       0.484  10.247  20.347  0.00  0.00    +0.000 A 
ATOM      9  C   UNL     1       0.847   9.135  21.105  0.00  0.00    +0.000 A 
ATOM     10  C   UNL     1       1.564   8.091  20.518  0.00  0.00    +0.000 A 
ATOM     11  C   UNL     1       1.925   8.170  19.169  0.00  0.00    +0.000 A 
ATOM     12  C   UNL     1       1.606   9.306  18.410  0.00  0.00    +0.000 A 
ATOM     13  C   UNL     1       0.870  10.336  19.005  0.00  0.00    +0.000 A 
ATOM     14  N   UNL     1       0.536  11.476  18.266  0.00  0.00    +0.000 N 
ATOM     15  H   UNL     1       0.882  11.619  17.328  0.00  0.00    +0.000 HD
ENDBRANCH   1  11
BRANCH   1  16
ATOM     16  N   UNL     1       3.288   5.961  19.855  0.00  0.00    +0.000 N 
ATOM     17  H   UNL     1       4.293   6.095  19.990  0.00  0.00    +0.000 HD
BRANCH  16  18
ATOM     18  C   UNL     1       2.963   4.545  19.857  0.00  0.00    +0.000 A 
ATOM     19  C   UNL     1       1.818   4.137  20.564  0.00  0.00    +0.000 A 
ATOM     20  C   UNL     1       1.386   2.807  20.523  0.00  0.00    +0.000 A 
ATOM     21  C   UNL     1       2.097   1.867  19.787  0.00  0.00    +0.000 A 
ATOM     22  C   UNL     1       3.266   2.249  19.128  0.00  0.00    +0.000 A 
ATOM     23  C   UNL     1       3.723   3.581  19.168  0.00  0.00    +0.000 A 
BRANCH  23  24
ATOM     24  C   UNL     1       4.980   3.860  18.415  0.00  0.00    +0.000 C 
ATOM     25  O   UNL     1       5.991   4.206  19.019  0.00  0.00    +0.000 OA
ATOM     26  N   UNL     1       4.939   3.672  17.050  0.00  0.00    +0.000 N 
ATOM     27  H   UNL     1       4.041   3.460  16.635  0.00  0.00    +0.000 HD
BRANCH  26  28
ATOM     28  C   UNL     1       6.048   3.970  16.208  0.00  0.00    +0.000 C 
ATOM     29  C   UNL     1       6.112   5.259  15.437  0.00  0.00    +0.000 C 
ATOM     30  C   UNL     1       5.884   3.966  14.715  0.00  0.00    +0.000 C 
ENDBRANCH  26  28
ENDBRANCH  23  24
ENDBRANCH  16  18
ENDBRANCH   1  16
TORSDOF 5
ENDMDL
MODEL 3
REMARK VINA RESULT:      -8.4      1.619      1.869
REMARK  Name = 
REMARK  5 active torsions:
REMARK  status: ('A' for Active; 'I' for Inactive)
REMARK    1  A    between atoms: C_8  and  S_9
REMARK    2  A    between atoms: S_9  and  N_12
REMARK    3  A    between atoms: N_12  and  C_13
REMARK    4  A    between atoms: C_18  and  C_19
REMARK    5  A    between atoms: N_21  and  C_22
REMARK                            x       y       z     vdW  Elec       q    Type
REMARK                         _______ _______ _______ _____ _____    ______ ____
ROOT
ATOM      1  S   UNL     1       3.270   6.669  18.495  0.00  0.00    +0.000 S 
ATOM      2  O   UNL     1       4.229   7.230  17.570  0.00  0.00    +0.000 OA
ATOM      3  O   UNL     1       3.666   5.987  19.706  0.00  0.00    +0.000 OA
ENDROOT
BRANCH   1  11
ATOM      4  O   UNL     1      -0.782  10.484  23.476  0.00  0.00    +0.000 OA
ATOM      5  C   UNL     1      -0.387  10.365  22.319  0.00  0.00    +0.000 C 
ATOM      6  C   UNL     1      -0.636  11.406  21.232  0.00  0.00    +0.000 C 
ATOM      7  O   UNL     1      -0.522  11.031  19.867  0.00  0.00    +0.000 OA
ATOM      8  C   UNL     1       0.365  10.019  19.630  0.00  0.00    +0.000 A 
ATOM      9  C   UNL     1       0.756   9.845  18.303  0.00  0.00    +0.000 A 
ATOM     10  C   UNL     1       1.643   8.822  17.962  0.00  0.00    +0.000 A 
ATOM     11  C   UNL     1       2.129   7.966  18.956  0.00  0.00    +0.000 A 
ATOM     12  C   UNL     1       1.705   8.103  20.286  0.00  0.00    +0.000 A 
ATOM     13  C   UNL     1       0.832   9.144  20.617  0.00  0.00    +0.000 A 
ATOM     14  N   UNL     1       0.399   9.303  21.939  0.00  0.00    +0.000 N 
ATOM     15  H   UNL     1       0.636   8.633  22.657  0.00  0.00    +0.000 HD
ENDBRANCH   1  11
BRANCH   1  16
ATOM     16  N   UNL     1       2.209   5.625  17.643  0.00  0.00    +0.000 N 
ATOM     17  H   UNL     1       1.256   5.970  17.784  0.00  0.00    +0.000 HD
BRANCH  16  18
ATOM     18  C   UNL     1       2.296   4.220  18.005  0.00  0.00    +0.000 A 
ATOM     19  C   UNL     1       1.168   3.625  18.595  0.00  0.00    +0.000 A 
ATOM     20  C   UNL     1       1.144   2.254  18.872  0.00  0.00    +0.000 A 
ATOM     21  C   UNL     1       2.247   1.464  18.574  0.00  0.00    +0.000 A 
ATOM     22  C   UNL     1       3.393   2.055  18.041  0.00  0.00    +0.000 A 
ATOM     23  C   UNL     1       3.440   3.436  17.766  0.00  0.00    +0.000 A 
BRANCH  23  24
ATOM     24  C   UNL     1       4.720   3.940  17.189  0.00  0.00    +0.000 C 
ATOM     25  O   UNL     1       4.816   4.121  15.979  0.00  0.00    +0.000 OA
ATOM     26  N   UNL     1       5.736   4.214  18.080  0.00  0.00    +0.000 N 
ATOM     27  H   UNL     1       5.588   3.960  19.048  0.00  0.00    +0.000 HD
BRANCH  26  28
ATOM     28  C   UNL     1       7.028   4.632  17.653  0.00  0.00    +0.000 C 
ATOM     29  C   UNL     1       7.919   5.441  18.556  0.00  0.00    +0.000 C 
ATOM     30  C   UNL     1       7.292   6.081  17.354  0.00  0.00    +0.000 C 
ENDBRANCH  26  28
ENDBRANCH  23  24
ENDBRANCH  16  18
ENDBRANCH   1  16
TORSDOF 5
ENDMDL
MODEL 4
REMARK VINA RESULT:      -8.3      1.164      1.328
REMARK  Name = 
REMARK  5 active torsions:
REMARK  status: ('A' for Active; 'I' for Inactive)
REMARK    1  A    between atoms: C_8  and  S_9
REMARK    2  A    between atoms: S_9  and  N_12
REMARK    3  A    between atoms: N_12  and  C_13
REMARK    4  A    between atoms: C_18  and  C_19
REMARK    5  A    between atoms: N_21  and  C_22
REMARK                            x       y       z     vdW  Elec       q    Type
REMARK                         _______ _______ _______ _____ _____    ______ ____
ROOT
ATOM      1  S   UNL     1       2.803   6.905  18.394  0.00  0.00    +0.000 S 
ATOM      2  O   UNL     1       1.852   6.067  17.700  0.00  0.00    +0.000 OA
ATOM      3  O   UNL     1       4.056   7.314  17.800  0.00  0.00    +0.000 OA
ENDROOT
BRANCH   1  11
ATOM      4  O   UNL     1      -0.947  10.981  23.405  0.00  0.00    +0.000 OA
ATOM      5  C   UNL     1      -0.415  10.910  22.300  0.00  0.00    +0.000 C 
ATOM      6  C   UNL     1      -0.231  12.110  21.376  0.00  0.00    +0.000 C 
ATOM      7  O   UNL     1       0.004  11.895  19.992  0.00  0.00    +0.000 OA
ATOM      8  C   UNL     1       0.647  10.725  19.702  0.00  0.00    +0.000 A 
ATOM      9  C   UNL     1       1.190  10.626  18.421  0.00  0.00    +0.000 A 
ATOM     10  C   UNL     1       1.847   9.459  18.027  0.00  0.00    +0.000 A 
ATOM     11  C   UNL     1       1.949   8.385  18.919  0.00  0.00    +0.000 A 
ATOM     12  C   UNL     1       1.365   8.458  20.193  0.00  0.00    +0.000 A 
ATOM     13  C   UNL     1       0.728   9.640  20.582  0.00  0.00    +0.000 A 
ATOM     14  N   UNL     1       0.143   9.737  21.850  0.00  0.00    +0.000 N 
ATOM     15  H   UNL     1       0.095   8.943  22.472  0.00  0.00    +0.000 HD
ENDBRANCH   1  11
BRANCH   1  16
ATOM     16  N   UNL     1       3.162   6.209  19.919  0.00  0.00    +0.000 N 
ATOM     17  H   UNL     1       4.152   6.378  20.112  0.00  0.00    +0.000 HD
BRANCH  16  18
ATOM     18  C   UNL     1       2.858   4.794  20.044  0.00  0.00    +0.000 A 
ATOM     19  C   UNL     1       1.754   4.428  20.832  0.00  0.00    +0.000 A 
ATOM     20  C   UNL     1       1.340   3.094  20.911  0.00  0.00    +0.000 A 
ATOM     21  C   UNL     1       2.030   2.109  20.216  0.00  0.00    +0.000 A 
ATOM     22  C   UNL     1       3.162   2.453  19.476  0.00  0.00    +0.000 A 
ATOM     23  C   UNL     1       3.600   3.789  19.394  0.00  0.00    +0.000 A 
BRANCH  23  24
ATOM     24  C   UNL     1       4.817   4.024  18.564  0.00  0.00    +0.000 C 
ATOM     25  O   UNL     1       4.852   3.626  17.403  0.00  0.00    +0.000 OA
ATOM     26  N   UNL     1       5.846   4.724  19.157  0.00  0.00    +0.000 N 
ATOM     27  H   UNL     1       5.755   4.942  20.141  0.00  0.00    +0.000 HD
BRANCH  26  28
ATOM     28  C   UNL     1       7.088   4.953  18.499  0.00  0.00    +0.000 C 
ATOM     29  C   UNL     1       7.940   6.142  18.844  0.00  0.00    +0.000 C 
ATOM     30  C   UNL     1       7.228   6.089  17.526  0.00  0.00    +0.000 C 
ENDBRANCH  26  28
ENDBRANCH  23  24
ENDBRANCH  16  18
ENDBRANCH   1  16
TORSDOF 5
ENDMDL
MODEL 5
REMARK VINA RESULT:      -8.2      1.935      2.616
REMARK  Name = 
REMARK  5 active torsions:
REMARK  status: ('A' for Active; 'I' for Inactive)
REMARK    1  A    between atoms: C_8  and  S_9
REMARK    2  A    between atoms: S_9  and  N_12
REMARK    3  A    between atoms: N_12  and  C_13
REMARK    4  A    between atoms: C_18  and  C_19
REMARK    5  A    between atoms: N_21  and  C_22
REMARK                            x       y       z     vdW  Elec       q    Type
REMARK                         _______ _______ _______ _____ _____    ______ ____
ROOT
ATOM      1  S   UNL     1       3.248   6.682  18.582  0.00  0.00    +0.000 S 
ATOM      2  O   UNL     1       4.123   7.350  17.645  0.00  0.00    +0.000 OA
ATOM      3  O   UNL     1       3.748   5.925  19.708  0.00  0.00    +0.000 OA
ENDROOT
BRANCH   1  11
ATOM      4  O   UNL     1      -1.008  12.784  17.916  0.00  0.00    +0.000 OA
ATOM      5  C   UNL     1      -0.648  11.827  18.598  0.00  0.00    +0.000 C 
ATOM      6  C   UNL     1      -1.292  11.453  19.929  0.00  0.00    +0.000 C 
ATOM      7  O   UNL     1      -0.585  10.621  20.837  0.00  0.00    +0.000 OA
ATOM      8  C   UNL     1       0.281   9.745  20.245  0.00  0.00    +0.000 A 
ATOM      9  C   UNL     1       0.739   8.700  21.047  0.00  0.00    +0.000 A 
ATOM     10  C   UNL     1       1.644   7.769  20.535  0.00  0.00    +0.000 A 
ATOM     11  C   UNL     1       2.097   7.894  19.217  0.00  0.00    +0.000 A 
ATOM     12  C   UNL     1       1.678   8.968  18.418  0.00  0.00    +0.000 A 
ATOM     13  C   UNL     1       0.757   9.883  18.936  0.00  0.00    +0.000 A 
ATOM     14  N   UNL     1       0.322  10.959  18.156  0.00  0.00    +0.000 N 
ATOM     15  H   UNL     1       0.717  11.146  17.245  0.00  0.00    +0.000 HD
ENDBRANCH   1  11
BRANCH   1  16
ATOM     16  N   UNL     1       2.168   5.666  17.721  0.00  0.00    +0.000 N 
ATOM     17  H   UNL     1       1.220   6.017  17.878  0.00  0.00    +0.000 HD
BRANCH  16  18
ATOM     18  C   UNL     1       2.245   4.253  18.054  0.00  0.00    +0.000 A 
ATOM     19  C   UNL     1       1.123   3.662  18.660  0.00  0.00    +0.000 A 
ATOM     20  C   UNL     1       1.087   2.286  18.911  0.00  0.00    +0.000 A 
ATOM     21  C   UNL     1       2.172   1.488  18.573  0.00  0.00    +0.000 A 
ATOM     22  C   UNL     1       3.313   2.074  18.024  0.00  0.00    +0.000 A 
ATOM     23  C   UNL     1       3.373   3.459  17.774  0.00  0.00    +0.000 A 
BRANCH  23  24
ATOM     24  C   UNL     1       4.645   3.957  17.177  0.00  0.00    +0.000 C 
ATOM     25  O   UNL     1       4.706   4.190  15.973  0.00  0.00    +0.000 OA
ATOM     26  N   UNL     1       5.697   4.165  18.043  0.00  0.00    +0.000 N 
ATOM     27  H   UNL     1       5.575   3.871  19.004  0.00  0.00    +0.000 HD
BRANCH  26  28
ATOM     28  C   UNL     1       6.985   4.570  17.592  0.00  0.00    +0.000 C 
ATOM     29  C   UNL     1       7.890   5.392  18.467  0.00  0.00    +0.000 C 
ATOM     30  C   UNL     1       7.249   6.012  17.261  0.00  0.00    +0.000 C 
ENDBRANCH  26  28
ENDBRANCH  23  24
ENDBRANCH  16  18
ENDBRANCH   1  16
TORSDOF 5
ENDMDL
MODEL 6
REMARK VINA RESULT:      -8.1      1.603      2.308
REMARK  Name = 
REMARK  5 active torsions:
REMARK  status: ('A' for Active; 'I' for Inactive)
REMARK    1  A    between atoms: C_8  and  S_9
REMARK    2  A    between atoms: S_9  and  N_12
REMARK    3  A    between atoms: N_12  and  C_13
REMARK    4  A    between atoms: C_18  and  C_19
REMARK    5  A    between atoms: N_21  and  C_22
REMARK                            x       y       z     vdW  Elec       q    Type
REMARK                         _______ _______ _______ _____ _____    ______ ____
ROOT
ATOM      1  S   UNL     1       2.763   6.849  18.554  0.00  0.00    +0.000 S 
ATOM      2  O   UNL     1       1.825   6.052  17.795  0.00  0.00    +0.000 OA
ATOM      3  O   UNL     1       3.984   7.369  17.979  0.00  0.00    +0.000 OA
ENDROOT
BRANCH   1  11
ATOM      4  O   UNL     1      -0.525  13.541  18.119  0.00  0.00    +0.000 OA
ATOM      5  C   UNL     1      -0.267  12.543  18.786  0.00  0.00    +0.000 C 
ATOM      6  C   UNL     1      -0.855  12.280  20.170  0.00  0.00    +0.000 C 
ATOM      7  O   UNL     1      -0.217  11.350  21.033  0.00  0.00    +0.000 OA
ATOM      8  C   UNL     1       0.452  10.347  20.390  0.00  0.00    +0.000 A 
ATOM      9  C   UNL     1       0.803   9.246  21.172  0.00  0.00    +0.000 A 
ATOM     10  C   UNL     1       1.507   8.182  20.607  0.00  0.00    +0.000 A 
ATOM     11  C   UNL     1       1.869   8.229  19.256  0.00  0.00    +0.000 A 
ATOM     12  C   UNL     1       1.562   9.352  18.474  0.00  0.00    +0.000 A 
ATOM     13  C   UNL     1       0.839  10.403  19.047  0.00  0.00    +0.000 A 
ATOM     14  N   UNL     1       0.517  11.531  18.285  0.00  0.00    +0.000 N 
ATOM     15  H   UNL     1       0.864  11.650  17.343  0.00  0.00    +0.000 HD
ENDBRANCH   1  11
BRANCH   1  16
ATOM     16  N   UNL     1       3.189   6.009  19.986  0.00  0.00    +0.000 N 
ATOM     17  H   UNL     1       4.184   6.172  20.158  0.00  0.00    +0.000 HD
BRANCH  16  18
ATOM     18  C   UNL     1       2.905   4.583  19.979  0.00  0.00    +0.000 A 
ATOM     19  C   UNL     1       1.815   4.129  20.741  0.00  0.00    +0.000 A 
ATOM     20  C   UNL     1       1.420   2.787  20.697  0.00  0.00    +0.000 A 
ATOM     21  C   UNL     1       2.114   1.883  19.903  0.00  0.00    +0.000 A 
ATOM     22  C   UNL     1       3.233   2.312  19.188  0.00  0.00    +0.000 A 
ATOM     23  C   UNL     1       3.652   3.656  19.228  0.00  0.00    +0.000 A 
BRANCH  23  24
ATOM     24  C   UNL     1       4.856   3.985  18.411  0.00  0.00    +0.000 C 
ATOM     25  O   UNL     1       4.896   3.669  17.226  0.00  0.00    +0.000 OA
ATOM     26  N   UNL     1       5.865   4.677  19.046  0.00  0.00    +0.000 N 
ATOM     27  H   UNL     1       5.774   4.825  20.043  0.00  0.00    +0.000 HD
BRANCH  26  28
ATOM     28  C   UNL     1       7.095   4.991  18.400  0.00  0.00    +0.000 C 
ATOM     29  C   UNL     1       7.932   6.155  18.851  0.00  0.00    +0.000 C 
ATOM     30  C   UNL     1       7.204   6.219  17.542  0.00  0.00    +0.000 C 
ENDBRANCH  26  28
ENDBRANCH  23  24
ENDBRANCH  16  18
ENDBRANCH   1  16
TORSDOF 5
ENDMDL
MODEL 7
REMARK VINA RESULT:      -7.8      1.245      1.342
REMARK  Name = 
REMARK  5 active torsions:
REMARK  status: ('A' for Active; 'I' for Inactive)
REMARK    1  A    between atoms: C_8  and  S_9
REMARK    2  A    between atoms: S_9  and  N_12
REMARK    3  A    between atoms: N_12  and  C_13
REMARK    4  A    between atoms: C_18  and  C_19
REMARK    5  A    between atoms: N_21  and  C_22
REMARK                            x       y       z     vdW  Elec       q    Type
REMARK                         _______ _______ _______ _____ _____    ______ ____
ROOT
ATOM      1  S   UNL     1       3.385   6.602  18.588  0.00  0.00    +0.000 S 
ATOM      2  O   UNL     1       4.385   7.155  17.703  0.00  0.00    +0.000 OA
ATOM      3  O   UNL     1       3.725   5.935  19.825  0.00  0.00    +0.000 OA
ENDROOT
BRANCH   1  11
ATOM      4  O   UNL     1      -0.780  10.569  23.353  0.00  0.00    +0.000 OA
ATOM      5  C   UNL     1      -0.369  10.405  22.207  0.00  0.00    +0.000 C 
ATOM      6  C   UNL     1      -0.618  11.396  21.074  0.00  0.00    +0.000 C 
ATOM      7  O   UNL     1      -0.482  10.965  19.728  0.00  0.00    +0.000 OA
ATOM      8  C   UNL     1       0.422   9.956  19.545  0.00  0.00    +0.000 A 
ATOM      9  C   UNL     1       0.831   9.732  18.231  0.00  0.00    +0.000 A 
ATOM     10  C   UNL     1       1.736   8.708  17.945  0.00  0.00    +0.000 A 
ATOM     11  C   UNL     1       2.221   7.901  18.980  0.00  0.00    +0.000 A 
ATOM     12  C   UNL     1       1.778   8.088  20.298  0.00  0.00    +0.000 A 
ATOM     13  C   UNL     1       0.887   9.130  20.574  0.00  0.00    +0.000 A 
ATOM     14  N   UNL     1       0.436   9.339  21.882  0.00  0.00    +0.000 N 
ATOM     15  H   UNL     1       0.673   8.704  22.631  0.00  0.00    +0.000 HD
ENDBRANCH   1  11
BRANCH   1  16
ATOM     16  N   UNL     1       2.367   5.546  17.700  0.00  0.00    +0.000 N 
ATOM     17  H   UNL     1       1.435   5.966  17.670  0.00  0.00    +0.000 HD
BRANCH  16  18
ATOM     18  C   UNL     1       2.291   4.185  18.205  0.00  0.00    +0.000 A 
ATOM     19  C   UNL     1       1.075   3.764  18.771  0.00  0.00    +0.000 A 
ATOM     20  C   UNL     1       0.897   2.438  19.180  0.00  0.00    +0.000 A 
ATOM     21  C   UNL     1       1.932   1.522  19.042  0.00  0.00    +0.000 A 
ATOM     22  C   UNL     1       3.162   1.943  18.535  0.00  0.00    +0.000 A 
ATOM     23  C   UNL     1       3.364   3.276  18.128  0.00  0.00    +0.000 A 
BRANCH  23  24
ATOM     24  C   UNL     1       4.720   3.595  17.595  0.00  0.00    +0.000 C 
ATOM     25  O   UNL     1       5.648   3.803  18.371  0.00  0.00    +0.000 OA
ATOM     26  N   UNL     1       4.862   3.601  16.224  0.00  0.00    +0.000 N 
ATOM     27  H   UNL     1       4.023   3.494  15.668  0.00  0.00    +0.000 HD
BRANCH  26  28
ATOM     28  C   UNL     1       6.084   3.959  15.588  0.00  0.00    +0.000 C 
ATOM     29  C   UNL     1       6.223   5.263  14.853  0.00  0.00    +0.000 C 
ATOM     30  C   UNL     1       6.178   3.974  14.088  0.00  0.00    +0.000 C 
ENDBRANCH  26  28
ENDBRANCH  23  24
ENDBRANCH  16  18
ENDBRANCH   1  16
TORSDOF 5
ENDMDL
MODEL 8
REMARK VINA RESULT:      -7.8      1.157      1.231
REMARK  Name = 
REMARK  5 active torsions:
REMARK  status: ('A' for Active; 'I' for Inactive)
REMARK    1  A    between atoms: C_8  and  S_9
REMARK    2  A    between atoms: S_9  and  N_12
REMARK    3  A    between atoms: N_12  and  C_13
REMARK    4  A    between atoms: C_18  and  C_19
REMARK    5  A    between atoms: N_21  and  C_22
REMARK                            x       y       z     vdW  Elec       q    Type
REMARK                         _______ _______ _______ _____ _____    ______ ____
ROOT
ATOM      1  S   UNL     1       3.274   6.598  18.247  0.00  0.00    +0.000 S 
ATOM      2  O   UNL     1       3.788   6.939  16.940  0.00  0.00    +0.000 OA
ATOM      3  O   UNL     1       4.137   6.252  19.355  0.00  0.00    +0.000 OA
ENDROOT
BRANCH   1  11
ATOM      4  O   UNL     1      -0.406  10.454  23.479  0.00  0.00    +0.000 OA
ATOM      5  C   UNL     1      -0.058  10.350  22.305  0.00  0.00    +0.000 C 
ATOM      6  C   UNL     1      -0.294  11.435  21.258  0.00  0.00    +0.000 C 
ATOM      7  O   UNL     1      -0.247  11.095  19.880  0.00  0.00    +0.000 OA
ATOM      8  C   UNL     1       0.580  10.049  19.583  0.00  0.00    +0.000 A 
ATOM      9  C   UNL     1       0.915   9.896  18.237  0.00  0.00    +0.000 A 
ATOM     10  C   UNL     1       1.737   8.842  17.836  0.00  0.00    +0.000 A 
ATOM     11  C   UNL     1       2.215   7.934  18.787  0.00  0.00    +0.000 A 
ATOM     12  C   UNL     1       1.846   8.051  20.135  0.00  0.00    +0.000 A 
ATOM     13  C   UNL     1       1.038   9.123  20.527  0.00  0.00    +0.000 A 
ATOM     14  N   UNL     1       0.661   9.263  21.867  0.00  0.00    +0.000 N 
ATOM     15  H   UNL     1       0.889   8.562  22.557  0.00  0.00    +0.000 HD
ENDBRANCH   1  11
BRANCH   1  16
ATOM     16  N   UNL     1       2.116   5.343  18.089  0.00  0.00    +0.000 N 
ATOM     17  H   UNL     1       1.190   5.776  18.078  0.00  0.00    +0.000 HD
BRANCH  16  18
ATOM     18  C   UNL     1       2.177   4.308  19.108  0.00  0.00    +0.000 A 
ATOM     19  C   UNL     1       1.374   4.467  20.250  0.00  0.00    +0.000 A 
ATOM     20  C   UNL     1       1.303   3.461  21.220  0.00  0.00    +0.000 A 
ATOM     21  C   UNL     1       2.040   2.293  21.068  0.00  0.00    +0.000 A 
ATOM     22  C   UNL     1       2.884   2.151  19.966  0.00  0.00    +0.000 A 
ATOM     23  C   UNL     1       2.978   3.157  18.985  0.00  0.00    +0.000 A 
BRANCH  23  24
ATOM     24  C   UNL     1       3.909   2.877  17.854  0.00  0.00    +0.000 C 
ATOM     25  O   UNL     1       3.796   1.837  17.212  0.00  0.00    +0.000 OA
ATOM     26  N   UNL     1       4.845   3.848  17.567  0.00  0.00    +0.000 N 
ATOM     27  H   UNL     1       4.911   4.634  18.201  0.00  0.00    +0.000 HD
BRANCH  26  28
ATOM     28  C   UNL     1       5.837   3.673  16.561  0.00  0.00    +0.000 C 
ATOM     29  C   UNL     1       6.680   4.828  16.094  0.00  0.00    +0.000 C 
ATOM     30  C   UNL     1       5.630   4.254  15.190  0.00  0.00    +0.000 C 
ENDBRANCH  26  28
ENDBRANCH  23  24
ENDBRANCH  16  18
ENDBRANCH   1  16
TORSDOF 5
ENDMDL
MODEL 9
REMARK VINA RESULT:      -7.8      1.302      3.556
REMARK  Name = 
REMARK  5 active torsions:
REMARK  status: ('A' for Active; 'I' for Inactive)
REMARK    1  A    between atoms: C_8  and  S_9
REMARK    2  A    between atoms: S_9  and  N_12
REMARK    3  A    between atoms: N_12  and  C_13
REMARK    4  A    between atoms: C_18  and  C_19
REMARK    5  A    between atoms: N_21  and  C_22
REMARK                            x       y       z     vdW  Elec       q    Type
REMARK                         _______ _______ _______ _____ _____    ______ ____
ROOT
ATOM      1  S   UNL     1       2.459   6.410  19.007  0.00  0.00    +0.000 S 
ATOM      2  O   UNL     1       2.321   5.891  20.349  0.00  0.00    +0.000 OA
ATOM      3  O   UNL     1       1.815   5.797  17.867  0.00  0.00    +0.000 OA
ENDROOT
BRANCH   1  11
ATOM      4  O   UNL     1      -0.353  12.470  22.347  0.00  0.00    +0.000 OA
ATOM      5  C   UNL     1       0.190  11.973  21.363  0.00  0.00    +0.000 C 
ATOM      6  C   UNL     1       0.705  12.792  20.183  0.00  0.00    +0.000 C 
ATOM      7  O   UNL     1       0.935  12.151  18.937  0.00  0.00    +0.000 OA
ATOM      8  C   UNL     1       1.276  10.831  19.033  0.00  0.00    +0.000 A 
ATOM      9  C   UNL     1       1.829  10.256  17.889  0.00  0.00    +0.000 A 
ATOM     10  C   UNL     1       2.188   8.907  17.886  0.00  0.00    +0.000 A 
ATOM     11  C   UNL     1       1.982   8.132  19.033  0.00  0.00    +0.000 A 
ATOM     12  C   UNL     1       1.384   8.690  20.173  0.00  0.00    +0.000 A 
ATOM     13  C   UNL     1       1.047  10.047  20.169  0.00  0.00    +0.000 A 
ATOM     14  N   UNL     1       0.454  10.626  21.296  0.00  0.00    +0.000 N 
ATOM     15  H   UNL     1       0.183  10.070  22.096  0.00  0.00    +0.000 HD
ENDBRANCH   1  11
BRANCH   1  16
ATOM     16  N   UNL     1       4.125   6.566  18.631  0.00  0.00    +0.000 N 
ATOM     17  H   UNL     1       4.314   7.558  18.466  0.00  0.00    +0.000 HD
BRANCH  16  18
ATOM     18  C   UNL     1       4.586   5.771  17.506  0.00  0.00    +0.000 A 
ATOM     19  C   UNL     1       4.916   6.446  16.318  0.00  0.00    +0.000 A 
ATOM     20  C   UNL     1       5.465   5.757  15.231  0.00  0.00    +0.000 A 
ATOM     21  C   UNL     1       5.680   4.387  15.312  0.00  0.00    +0.000 A 
ATOM     22  C   UNL     1       5.302   3.698  16.465  0.00  0.00    +0.000 A 
ATOM     23  C   UNL     1       4.738   4.372  17.565  0.00  0.00    +0.000 A 
BRANCH  23  24
ATOM     24  C   UNL     1       4.387   3.521  18.738  0.00  0.00    +0.000 C 
ATOM     25  O   UNL     1       5.258   3.198  19.541  0.00  0.00    +0.000 OA
ATOM     26  N   UNL     1       3.062   3.169  18.875  0.00  0.00    +0.000 N 
ATOM     27  H   UNL     1       2.433   3.418  18.122  0.00  0.00    +0.000 HD
BRANCH  26  28
ATOM     28  C   UNL     1       2.608   2.302  19.909  0.00  0.00    +0.000 C 
ATOM     29  C   UNL     1       1.306   2.555  20.617  0.00  0.00    +0.000 C 
ATOM     30  C   UNL     1       2.603   2.770  21.337  0.00  0.00    +0.000 C 
ENDBRANCH  26  28
ENDBRANCH  23  24
ENDBRANCH  16  18
ENDBRANCH   1  16
TORSDOF 5
ENDMDL
