MODEL 1
REMARK VINA RESULT:      -9.3      0.000      0.000
REMARK  Name = 
REMARK  4 active torsions:
REMARK  status: ('A' for Active; 'I' for Inactive)
REMARK    1  A    between atoms: C_2  and  C_10
REMARK    2  A    between atoms: N_3  and  C_4
REMARK    3  A    between atoms: C_14  and  C_15
REMARK    4  A    between atoms: C_15  and  N_16
REMARK                            x       y       z     vdW  Elec       q    Type
REMARK                         _______ _______ _______ _____ _____    ______ ____
ROOT
ATOM      1  C   UNL     1       7.597   7.652  18.093  0.00  0.00    +0.000 A 
ATOM      2  C   UNL     1       8.238   6.663  18.851  0.00  0.00    +0.000 A 
ATOM      3  C   UNL     1       7.763   5.355  18.839  0.00  0.00    +0.000 A 
ATOM      4  C   UNL     1       6.638   5.035  18.080  0.00  0.00    +0.000 A 
ATOM      5  C   UNL     1       5.971   6.015  17.320  0.00  0.00    +0.000 A 
ATOM      6  C   UNL     1       6.475   7.326  17.314  0.00  0.00    +0.000 A 
ENDROOT
BRANCH   1   8
ATOM      7  O   UNL     1       7.786   9.822  17.279  0.00  0.00    +0.000 OA
ATOM      8  C   UNL     1       8.152   9.032  18.142  0.00  0.00    +0.000 C 
ATOM      9  N   UNL     1       9.088   9.266  19.140  0.00  0.00    +0.000 N 
ATOM     10  H   UNL     1       9.450   8.462  19.636  0.00  0.00    +0.000 HD
BRANCH   9  11
ATOM     11  C   UNL     1       9.708  10.502  19.424  0.00  0.00    +0.000 A 
ATOM     12  C   UNL     1      10.540  11.171  18.524  0.00  0.00    +0.000 A 
ATOM     13  C   UNL     1      11.133  12.390  18.866  0.00  0.00    +0.000 A 
ATOM     14  C   UNL     1      10.891  12.954  20.115  0.00  0.00    +0.000 A 
ATOM     15  C   UNL     1      10.049  12.306  21.015  0.00  0.00    +0.000 A 
ATOM     16  C   UNL     1       9.454  11.088  20.669  0.00  0.00    +0.000 A 
ENDBRANCH   9  11
ENDBRANCH   1   8
BRANCH   5  17
ATOM     17  C   UNL     1       4.642   5.676  16.702  0.00  0.00    +0.000 C 
BRANCH  17  18
ATOM     18  N   UNL     1       3.437   5.932  17.487  0.00  0.00    +0.000 N 
ATOM     19  C   UNL     1       3.203   7.174  18.034  0.00  0.00    +0.000 A 
ATOM     20  N   UNL     1       2.592   7.094  19.190  0.00  0.00    +0.000 NA
ATOM     21  C   UNL     1       2.366   5.758  19.385  0.00  0.00    +0.000 A 
ATOM     22  C   UNL     1       1.847   5.109  20.512  0.00  0.00    +0.000 A 
ATOM     23  C   UNL     1       1.707   3.724  20.461  0.00  0.00    +0.000 A 
ATOM     24  F   UNL     1       1.280   3.076  21.555  0.00  0.00    +0.000 F 
ATOM     25  C   UNL     1       2.020   3.008  19.310  0.00  0.00    +0.000 A 
ATOM     26  F   UNL     1       1.831   1.681  19.285  0.00  0.00    +0.000 F 
ATOM     27  C   UNL     1       2.562   3.633  18.183  0.00  0.00    +0.000 A 
ATOM     28  C   UNL     1       2.773   5.011  18.276  0.00  0.00    +0.000 A 
ENDBRANCH  17  18
ENDBRANCH   5  17
TORSDOF 4
ENDMDL
MODEL 2
REMARK VINA RESULT:      -8.6      5.167      7.215
REMARK  Name = 
REMARK  4 active torsions:
REMARK  status: ('A' for Active; 'I' for Inactive)
REMARK    1  A    between atoms: C_2  and  C_10
REMARK    2  A    between atoms: N_3  and  C_4
REMARK    3  A    between atoms: C_14  and  C_15
REMARK    4  A    between atoms: C_15  and  N_16
REMARK                            x       y       z     vdW  Elec       q    Type
REMARK                         _______ _______ _______ _____ _____    ______ ____
ROOT
ATOM      1  C   UNL     1       2.168   7.408  18.855  0.00  0.00    +0.000 A 
ATOM      2  C   UNL     1       1.785   7.088  20.165  0.00  0.00    +0.000 A 
ATOM      3  C   UNL     1       2.060   5.827  20.685  0.00  0.00    +0.000 A 
ATOM      4  C   UNL     1       2.708   4.879  19.894  0.00  0.00    +0.000 A 
ATOM      5  C   UNL     1       3.092   5.175  18.572  0.00  0.00    +0.000 A 
ATOM      6  C   UNL     1       2.837   6.460  18.065  0.00  0.00    +0.000 A 
ENDROOT
BRANCH   1   8
ATOM      7  O   UNL     1       2.338   9.112  17.281  0.00  0.00    +0.000 OA
ATOM      8  C   UNL     1       1.850   8.773  18.354  0.00  0.00    +0.000 C 
ATOM      9  N   UNL     1       1.070   9.554  19.195  0.00  0.00    +0.000 N 
ATOM     10  H   UNL     1       0.927   9.220  20.139  0.00  0.00    +0.000 HD
BRANCH   9  11
ATOM     11  C   UNL     1       0.591  10.852  18.916  0.00  0.00    +0.000 A 
ATOM     12  C   UNL     1      -0.736  11.129  18.585  0.00  0.00    +0.000 A 
ATOM     13  C   UNL     1      -1.149  12.437  18.311  0.00  0.00    +0.000 A 
ATOM     14  C   UNL     1      -0.232  13.482  18.374  0.00  0.00    +0.000 A 
ATOM     15  C   UNL     1       1.091  13.222  18.721  0.00  0.00    +0.000 A 
ATOM     16  C   UNL     1       1.501  11.914  18.998  0.00  0.00    +0.000 A 
ENDBRANCH   9  11
ENDBRANCH   1   8
BRANCH   5  17
ATOM     17  C   UNL     1       3.580   4.059  17.690  0.00  0.00    +0.000 C 
BRANCH  17  18
ATOM     18  N   UNL     1       5.014   3.974  17.423  0.00  0.00    +0.000 N 
ATOM     19  C   UNL     1       5.929   4.463  18.329  0.00  0.00    +0.000 A 
ATOM     20  N   UNL     1       6.981   4.972  17.738  0.00  0.00    +0.000 NA
ATOM     21  C   UNL     1       6.778   4.761  16.400  0.00  0.00    +0.000 A 
ATOM     22  C   UNL     1       7.540   5.207  15.314  0.00  0.00    +0.000 A 
ATOM     23  C   UNL     1       7.124   4.849  14.033  0.00  0.00    +0.000 A 
ATOM     24  F   UNL     1       7.798   5.327  12.977  0.00  0.00    +0.000 F 
ATOM     25  C   UNL     1       6.018   4.029  13.837  0.00  0.00    +0.000 A 
ATOM     26  F   UNL     1       5.674   3.671  12.591  0.00  0.00    +0.000 F 
ATOM     27  C   UNL     1       5.230   3.592  14.905  0.00  0.00    +0.000 A 
ATOM     28  C   UNL     1       5.611   4.025  16.178  0.00  0.00    +0.000 A 
ENDBRANCH  17  18
ENDBRANCH   5  17
TORSDOF 4
ENDMDL
MODEL 3
REMARK VINA RESULT:      -8.6      5.689      8.282
REMARK  Name = 
REMARK  4 active torsions:
REMARK  status: ('A' for Active; 'I' for Inactive)
REMARK    1  A    between atoms: C_2  and  C_10
REMARK    2  A    between atoms: N_3  and  C_4
REMARK    3  A    between atoms: C_14  and  C_15
REMARK    4  A    between atoms: C_15  and  N_16
REMARK                            x       y       z     vdW  Elec       q    Type
REMARK                         _______ _______ _______ _____ _____    ______ ____
ROOT
ATOM      1  C   UNL     1       0.833   9.813  20.483  0.00  0.00    +0.000 A 
ATOM      2  C   UNL     1       0.929  10.536  19.286  0.00  0.00    +0.000 A 
ATOM      3  C   UNL     1       1.484   9.944  18.156  0.00  0.00    +0.000 A 
ATOM      4  C   UNL     1       1.956   8.634  18.222  0.00  0.00    +0.000 A 
ATOM      5  C   UNL     1       1.880   7.894  19.417  0.00  0.00    +0.000 A 
ATOM      6  C   UNL     1       1.291   8.488  20.545  0.00  0.00    +0.000 A 
ENDROOT
BRANCH   1   8
ATOM      7  O   UNL     1       0.523  10.081  22.773  0.00  0.00    +0.000 OA
ATOM      8  C   UNL     1       0.226  10.497  21.658  0.00  0.00    +0.000 C 
ATOM      9  N   UNL     1      -0.674  11.511  21.363  0.00  0.00    +0.000 N 
ATOM     10  H   UNL     1      -0.983  11.594  20.403  0.00  0.00    +0.000 HD
BRANCH   9  11
ATOM     11  C   UNL     1      -1.329  12.339  22.300  0.00  0.00    +0.000 A 
ATOM     12  C   UNL     1      -2.569  12.033  22.863  0.00  0.00    +0.000 A 
ATOM     13  C   UNL     1      -3.172  12.899  23.781  0.00  0.00    +0.000 A 
ATOM     14  C   UNL     1      -2.532  14.079  24.148  0.00  0.00    +0.000 A 
ATOM     15  C   UNL     1      -1.286  14.387  23.607  0.00  0.00    +0.000 A 
ATOM     16  C   UNL     1      -0.683  13.518  22.692  0.00  0.00    +0.000 A 
ENDBRANCH   9  11
ENDBRANCH   1   8
BRANCH   5  17
ATOM     17  C   UNL     1       2.601   6.576  19.503  0.00  0.00    +0.000 C 
BRANCH  17  18
ATOM     18  N   UNL     1       2.862   5.856  18.259  0.00  0.00    +0.000 N 
ATOM     19  C   UNL     1       2.147   4.724  17.937  0.00  0.00    +0.000 A 
ATOM     20  N   UNL     1       2.877   3.849  17.291  0.00  0.00    +0.000 NA
ATOM     21  C   UNL     1       4.098   4.447  17.134  0.00  0.00    +0.000 A 
ATOM     22  C   UNL     1       5.282   3.910  16.612  0.00  0.00    +0.000 A 
ATOM     23  C   UNL     1       6.403   4.734  16.552  0.00  0.00    +0.000 A 
ATOM     24  F   UNL     1       7.564   4.217  16.124  0.00  0.00    +0.000 F 
ATOM     25  C   UNL     1       6.340   6.067  16.944  0.00  0.00    +0.000 A 
ATOM     26  F   UNL     1       7.430   6.841  16.830  0.00  0.00    +0.000 F 
ATOM     27  C   UNL     1       5.177   6.617  17.489  0.00  0.00    +0.000 A 
ATOM     28  C   UNL     1       4.083   5.758  17.620  0.00  0.00    +0.000 A 
ENDBRANCH  17  18
ENDBRANCH   5  17
TORSDOF 4
ENDMDL
MODEL 4
REMARK VINA RESULT:      -8.5      5.907      8.502
REMARK  Name = 
REMARK  4 active torsions:
REMARK  status: ('A' for Active; 'I' for Inactive)
REMARK    1  A    between atoms: C_2  and  C_10
REMARK    2  A    between atoms: N_3  and  C_4
REMARK    3  A    between atoms: C_14  and  C_15
REMARK    4  A    between atoms: C_15  and  N_16
REMARK                            x       y       z     vdW  Elec       q    Type
REMARK                         _______ _______ _______ _____ _____    ______ ____
ROOT
ATOM      1  C   UNL     1       0.458   9.888  21.073  0.00  0.00    +0.000 A 
ATOM      2  C   UNL     1       0.513  10.574  19.852  0.00  0.00    +0.000 A 
ATOM      3  C   UNL     1       1.113   9.982  18.745  0.00  0.00    +0.000 A 
ATOM      4  C   UNL     1       1.671   8.709  18.858  0.00  0.00    +0.000 A 
ATOM      5  C   UNL     1       1.636   8.007  20.078  0.00  0.00    +0.000 A 
ATOM      6  C   UNL     1       1.002   8.599  21.182  0.00  0.00    +0.000 A 
ENDROOT
BRANCH   1   8
ATOM      7  O   UNL     1       0.030  10.138  23.346  0.00  0.00    +0.000 OA
ATOM      8  C   UNL     1      -0.200  10.569  22.221  0.00  0.00    +0.000 C 
ATOM      9  N   UNL     1      -1.067  11.602  21.890  0.00  0.00    +0.000 N 
ATOM     10  H   UNL     1      -1.323  11.699  20.916  0.00  0.00    +0.000 HD
BRANCH   9  11
ATOM     11  C   UNL     1      -1.758  12.431  22.799  0.00  0.00    +0.000 A 
ATOM     12  C   UNL     1      -3.004  12.109  23.340  0.00  0.00    +0.000 A 
ATOM     13  C   UNL     1      -3.643  12.977  24.232  0.00  0.00    +0.000 A 
ATOM     14  C   UNL     1      -3.035  14.174  24.593  0.00  0.00    +0.000 A 
ATOM     15  C   UNL     1      -1.784  14.499  24.074  0.00  0.00    +0.000 A 
ATOM     16  C   UNL     1      -1.144  13.628  23.186  0.00  0.00    +0.000 A 
ENDBRANCH   9  11
ENDBRANCH   1   8
BRANCH   5  17
ATOM     17  C   UNL     1       2.442   6.743  20.212  0.00  0.00    +0.000 C 
BRANCH  17  18
ATOM     18  N   UNL     1       2.267   5.709  19.196  0.00  0.00    +0.000 N 
ATOM     19  C   UNL     1       1.602   4.539  19.488  0.00  0.00    +0.000 A 
ATOM     20  N   UNL     1       2.107   3.514  18.847  0.00  0.00    +0.000 NA
ATOM     21  C   UNL     1       3.102   4.035  18.064  0.00  0.00    +0.000 A 
ATOM     22  C   UNL     1       4.035   3.364  17.264  0.00  0.00    +0.000 A 
ATOM     23  C   UNL     1       4.953   4.129  16.550  0.00  0.00    +0.000 A 
ATOM     24  F   UNL     1       5.901   3.503  15.836  0.00  0.00    +0.000 F 
ATOM     25  C   UNL     1       4.915   5.519  16.582  0.00  0.00    +0.000 A 
ATOM     26  F   UNL     1       5.789   6.221  15.846  0.00  0.00    +0.000 F 
ATOM     27  C   UNL     1       4.008   6.209  17.391  0.00  0.00    +0.000 A 
ATOM     28  C   UNL     1       3.145   5.428  18.166  0.00  0.00    +0.000 A 
ENDBRANCH  17  18
ENDBRANCH   5  17
TORSDOF 4
ENDMDL
MODEL 5
REMARK VINA RESULT:      -8.4      5.775      8.256
REMARK  Name = 
REMARK  4 active torsions:
REMARK  status: ('A' for Active; 'I' for Inactive)
REMARK    1  A    between atoms: C_2  and  C_10
REMARK    2  A    between atoms: N_3  and  C_4
REMARK    3  A    between atoms: C_14  and  C_15
REMARK    4  A    between atoms: C_15  and  N_16
REMARK                            x       y       z     vdW  Elec       q    Type
REMARK                         _______ _______ _______ _____ _____    ______ ____
ROOT
ATOM      1  C   UNL     1       0.541   9.784  21.106  0.00  0.00    +0.000 A 
ATOM      2  C   UNL     1       0.634  10.458  19.881  0.00  0.00    +0.000 A 
ATOM      3  C   UNL     1       1.232   9.841  18.787  0.00  0.00    +0.000 A 
ATOM      4  C   UNL     1       1.750   8.553  18.917  0.00  0.00    +0.000 A 
ATOM      5  C   UNL     1       1.677   7.861  20.142  0.00  0.00    +0.000 A 
ATOM      6  C   UNL     1       1.045   8.480  21.233  0.00  0.00    +0.000 A 
ENDROOT
BRANCH   1   8
ATOM      7  O   UNL     1       0.124  10.091  23.374  0.00  0.00    +0.000 OA
ATOM      8  C   UNL     1      -0.113  10.493  22.240  0.00  0.00    +0.000 C 
ATOM      9  N   UNL     1      -0.983  11.515  21.886  0.00  0.00    +0.000 N 
ATOM     10  H   UNL     1      -1.243  11.587  20.911  0.00  0.00    +0.000 HD
BRANCH   9  11
ATOM     11  C   UNL     1      -1.671  12.366  22.777  0.00  0.00    +0.000 A 
ATOM     12  C   UNL     1      -2.921  12.063  23.321  0.00  0.00    +0.000 A 
ATOM     13  C   UNL     1      -3.557  12.952  24.194  0.00  0.00    +0.000 A 
ATOM     14  C   UNL     1      -2.941  14.152  24.534  0.00  0.00    +0.000 A 
ATOM     15  C   UNL     1      -1.686  14.458  24.013  0.00  0.00    +0.000 A 
ATOM     16  C   UNL     1      -1.050  13.566  23.143  0.00  0.00    +0.000 A 
ENDBRANCH   9  11
ENDBRANCH   1   8
BRANCH   5  17
ATOM     17  C   UNL     1       2.443   6.575  20.297  0.00  0.00    +0.000 C 
BRANCH  17  18
ATOM     18  N   UNL     1       1.833   5.350  19.789  0.00  0.00    +0.000 N 
ATOM     19  C   UNL     1       0.891   4.671  20.530  0.00  0.00    +0.000 A 
ATOM     20  N   UNL     1       0.975   3.375  20.362  0.00  0.00    +0.000 NA
ATOM     21  C   UNL     1       1.968   3.196  19.436  0.00  0.00    +0.000 A 
ATOM     22  C   UNL     1       2.541   2.003  18.979  0.00  0.00    +0.000 A 
ATOM     23  C   UNL     1       3.544   2.087  18.016  0.00  0.00    +0.000 A 
ATOM     24  F   UNL     1       4.156   0.962  17.619  0.00  0.00    +0.000 F 
ATOM     25  C   UNL     1       3.929   3.312  17.480  0.00  0.00    +0.000 A 
ATOM     26  F   UNL     1       4.868   3.348  16.523  0.00  0.00    +0.000 F 
ATOM     27  C   UNL     1       3.387   4.516  17.939  0.00  0.00    +0.000 A 
ATOM     28  C   UNL     1       2.441   4.423  18.963  0.00  0.00    +0.000 A 
ENDBRANCH  17  18
ENDBRANCH   5  17
TORSDOF 4
ENDMDL
MODEL 6
REMARK VINA RESULT:      -8.4      4.680      6.954
REMARK  Name = 
REMARK  4 active torsions:
REMARK  status: ('A' for Active; 'I' for Inactive)
REMARK    1  A    between atoms: C_2  and  C_10
REMARK    2  A    between atoms: N_3  and  C_4
REMARK    3  A    between atoms: C_14  and  C_15
REMARK    4  A    between atoms: C_15  and  N_16
REMARK                            x       y       z     vdW  Elec       q    Type
REMARK                         _______ _______ _______ _____ _____    ______ ____
ROOT
ATOM      1  C   UNL     1       1.788   8.725  19.122  0.00  0.00    +0.000 A 
ATOM      2  C   UNL     1       1.346   8.394  20.410  0.00  0.00    +0.000 A 
ATOM      3  C   UNL     1       1.472   7.091  20.880  0.00  0.00    +0.000 A 
ATOM      4  C   UNL     1       2.030   6.111  20.060  0.00  0.00    +0.000 A 
ATOM      5  C   UNL     1       2.471   6.418  18.758  0.00  0.00    +0.000 A 
ATOM      6  C   UNL     1       2.367   7.743  18.303  0.00  0.00    +0.000 A 
ENDROOT
BRANCH   1   8
ATOM      7  O   UNL     1       1.926  10.401  17.515  0.00  0.00    +0.000 OA
ATOM      8  C   UNL     1       1.630  10.136  18.676  0.00  0.00    +0.000 C 
ATOM      9  N   UNL     1       1.214  11.031  19.652  0.00  0.00    +0.000 N 
ATOM     10  H   UNL     1       1.220  10.709  20.611  0.00  0.00    +0.000 HD
BRANCH   9  11
ATOM     11  C   UNL     1       0.938  12.401  19.459  0.00  0.00    +0.000 A 
ATOM     12  C   UNL     1      -0.139  12.871  18.705  0.00  0.00    +0.000 A 
ATOM     13  C   UNL     1      -0.356  14.244  18.545  0.00  0.00    +0.000 A 
ATOM     14  C   UNL     1       0.504  15.158  19.144  0.00  0.00    +0.000 A 
ATOM     15  C   UNL     1       1.572  14.703  19.913  0.00  0.00    +0.000 A 
ATOM     16  C   UNL     1       1.785  13.330  20.076  0.00  0.00    +0.000 A 
ENDBRANCH   9  11
ENDBRANCH   1   8
BRANCH   5  17
ATOM     17  C   UNL     1       2.854   5.293  17.836  0.00  0.00    +0.000 C 
BRANCH  17  18
ATOM     18  N   UNL     1       4.215   4.771  17.922  0.00  0.00    +0.000 N 
ATOM     19  C   UNL     1       4.495   3.655  18.678  0.00  0.00    +0.000 A 
ATOM     20  N   UNL     1       5.679   3.724  19.236  0.00  0.00    +0.000 NA
ATOM     21  C   UNL     1       6.219   4.898  18.786  0.00  0.00    +0.000 A 
ATOM     22  C   UNL     1       7.419   5.515  19.160  0.00  0.00    +0.000 A 
ATOM     23  C   UNL     1       7.755   6.719  18.545  0.00  0.00    +0.000 A 
ATOM     24  F   UNL     1       8.863   7.362  18.943  0.00  0.00    +0.000 F 
ATOM     25  C   UNL     1       6.953   7.269  17.550  0.00  0.00    +0.000 A 
ATOM     26  F   UNL     1       7.332   8.408  16.952  0.00  0.00    +0.000 F 
ATOM     27  C   UNL     1       5.740   6.683  17.179  0.00  0.00    +0.000 A 
ATOM     28  C   UNL     1       5.376   5.519  17.861  0.00  0.00    +0.000 A 
ENDBRANCH  17  18
ENDBRANCH   5  17
TORSDOF 4
ENDMDL
MODEL 7
REMARK VINA RESULT:      -8.2      1.300      1.883
REMARK  Name = 
REMARK  4 active torsions:
REMARK  status: ('A' for Active; 'I' for Inactive)
REMARK    1  A    between atoms: C_2  and  C_10
REMARK    2  A    between atoms: N_3  and  C_4
REMARK    3  A    between atoms: C_14  and  C_15
REMARK    4  A    between atoms: C_15  and  N_16
REMARK                            x       y       z     vdW  Elec       q    Type
REMARK                         _______ _______ _______ _____ _____    ______ ____
ROOT
ATOM      1  C   UNL     1       7.954   8.081  18.293  0.00  0.00    +0.000 A 
ATOM      2  C   UNL     1       8.568   7.133  19.123  0.00  0.00    +0.000 A 
ATOM      3  C   UNL     1       8.127   5.814  19.123  0.00  0.00    +0.000 A 
ATOM      4  C   UNL     1       7.064   5.440  18.301  0.00  0.00    +0.000 A 
ATOM      5  C   UNL     1       6.425   6.377  17.467  0.00  0.00    +0.000 A 
ATOM      6  C   UNL     1       6.896   7.700  17.452  0.00  0.00    +0.000 A 
ENDROOT
BRANCH   1   8
ATOM      7  O   UNL     1       8.073  10.254  17.473  0.00  0.00    +0.000 OA
ATOM      8  C   UNL     1       8.471   9.476  18.333  0.00  0.00    +0.000 C 
ATOM      9  N   UNL     1       9.411   9.739  19.320  0.00  0.00    +0.000 N 
ATOM     10  H   UNL     1       9.801   8.947  19.813  0.00  0.00    +0.000 HD
BRANCH   9  11
ATOM     11  C   UNL     1       9.999  10.993  19.594  0.00  0.00    +0.000 A 
ATOM     12  C   UNL     1      11.025  11.546  18.827  0.00  0.00    +0.000 A 
ATOM     13  C   UNL     1      11.573  12.791  19.155  0.00  0.00    +0.000 A 
ATOM     14  C   UNL     1      11.091  13.494  20.254  0.00  0.00    +0.000 A 
ATOM     15  C   UNL     1      10.055  12.961  21.017  0.00  0.00    +0.000 A 
ATOM     16  C   UNL     1       9.506  11.718  20.686  0.00  0.00    +0.000 A 
ENDBRANCH   9  11
ENDBRANCH   1   8
BRANCH   5  17
ATOM     17  C   UNL     1       5.149   5.984  16.774  0.00  0.00    +0.000 C 
BRANCH  17  18
ATOM     18  N   UNL     1       4.485   4.758  17.208  0.00  0.00    +0.000 N 
ATOM     19  C   UNL     1       4.149   3.778  16.300  0.00  0.00    +0.000 A 
ATOM     20  N   UNL     1       3.033   3.174  16.620  0.00  0.00    +0.000 NA
ATOM     21  C   UNL     1       2.648   3.735  17.808  0.00  0.00    +0.000 A 
ATOM     22  C   UNL     1       1.468   3.536  18.535  0.00  0.00    +0.000 A 
ATOM     23  C   UNL     1       1.314   4.228  19.734  0.00  0.00    +0.000 A 
ATOM     24  F   UNL     1       0.160   4.107  20.407  0.00  0.00    +0.000 F 
ATOM     25  C   UNL     1       2.321   5.050  20.227  0.00  0.00    +0.000 A 
ATOM     26  F   UNL     1       2.153   5.666  21.407  0.00  0.00    +0.000 F 
ATOM     27  C   UNL     1       3.497   5.281  19.507  0.00  0.00    +0.000 A 
ATOM     28  C   UNL     1       3.604   4.645  18.268  0.00  0.00    +0.000 A 
ENDBRANCH  17  18
ENDBRANCH   5  17
TORSDOF 4
ENDMDL
MODEL 8
REMARK VINA RESULT:      -8.2      1.540      1.914
REMARK  Name = 
REMARK  4 active torsions:
REMARK  status: ('A' for Active; 'I' for Inactive)
REMARK    1  A    between atoms: C_2  and  C_10
REMARK    2  A    between atoms: N_3  and  C_4
REMARK    3  A    between atoms: C_14  and  C_15
REMARK    4  A    between atoms: C_15  and  N_16
REMARK                            x       y       z     vdW  Elec       q    Type
REMARK                         _______ _______ _______ _____ _____    ______ ____
ROOT
ATOM      1  C   UNL     1       8.143   8.239  18.425  0.00  0.00    +0.000 A 
ATOM      2  C   UNL     1       8.554   7.132  19.179  0.00  0.00    +0.000 A 
ATOM      3  C   UNL     1       7.986   5.882  18.951  0.00  0.00    +0.000 A 
ATOM      4  C   UNL     1       6.998   5.737  17.978  0.00  0.00    +0.000 A 
ATOM      5  C   UNL     1       6.562   6.838  17.216  0.00  0.00    +0.000 A 
ATOM      6  C   UNL     1       7.162   8.090  17.432  0.00  0.00    +0.000 A 
ENDROOT
BRANCH   1   8
ATOM      7  O   UNL     1       9.322   9.694  19.804  0.00  0.00    +0.000 OA
ATOM      8  C   UNL     1       8.788   9.550  18.710  0.00  0.00    +0.000 C 
ATOM      9  N   UNL     1       8.664  10.508  17.714  0.00  0.00    +0.000 N 
ATOM     10  H   UNL     1       8.012  10.318  16.964  0.00  0.00    +0.000 HD
BRANCH   9  11
ATOM     11  C   UNL     1       9.237  11.798  17.726  0.00  0.00    +0.000 A 
ATOM     12  C   UNL     1       8.501  12.966  17.938  0.00  0.00    +0.000 A 
ATOM     13  C   UNL     1       9.125  14.217  17.931  0.00  0.00    +0.000 A 
ATOM     14  C   UNL     1      10.497  14.308  17.717  0.00  0.00    +0.000 A 
ATOM     15  C   UNL     1      11.245  13.150  17.522  0.00  0.00    +0.000 A 
ATOM     16  C   UNL     1      10.620  11.899  17.534  0.00  0.00    +0.000 A 
ENDBRANCH   9  11
ENDBRANCH   1   8
BRANCH   5  17
ATOM     17  C   UNL     1       5.347   6.683  16.344  0.00  0.00    +0.000 C 
BRANCH  17  18
ATOM     18  N   UNL     1       4.064   6.432  16.996  0.00  0.00    +0.000 N 
ATOM     19  C   UNL     1       3.448   7.413  17.741  0.00  0.00    +0.000 A 
ATOM     20  N   UNL     1       2.801   6.918  18.766  0.00  0.00    +0.000 NA
ATOM     21  C   UNL     1       2.948   5.561  18.662  0.00  0.00    +0.000 A 
ATOM     22  C   UNL     1       2.551   4.561  19.558  0.00  0.00    +0.000 A 
ATOM     23  C   UNL     1       2.812   3.236  19.216  0.00  0.00    +0.000 A 
ATOM     24  F   UNL     1       2.506   2.269  20.093  0.00  0.00    +0.000 F 
ATOM     25  C   UNL     1       3.398   2.907  17.998  0.00  0.00    +0.000 A 
ATOM     26  F   UNL     1       3.595   1.617  17.686  0.00  0.00    +0.000 F 
ATOM     27  C   UNL     1       3.824   3.889  17.100  0.00  0.00    +0.000 A 
ATOM     28  C   UNL     1       3.630   5.217  17.491  0.00  0.00    +0.000 A 
ENDBRANCH  17  18
ENDBRANCH   5  17
TORSDOF 4
ENDMDL
MODEL 9
REMARK VINA RESULT:      -8.2      4.962      7.453
REMARK  Name = 
REMARK  4 active torsions:
REMARK  status: ('A' for Active; 'I' for Inactive)
REMARK    1  A    between atoms: C_2  and  C_10
REMARK    2  A    between atoms: N_3  and  C_4
REMARK    3  A    between atoms: C_14  and  C_15
REMARK    4  A    between atoms: C_15  and  N_16
REMARK                            x       y       z     vdW  Elec       q    Type
REMARK                         _______ _______ _______ _____ _____    ______ ____
ROOT
ATOM      1  C   UNL     1       1.830   8.109  19.770  0.00  0.00    +0.000 A 
ATOM      2  C   UNL     1       2.153   8.797  18.592  0.00  0.00    +0.000 A 
ATOM      3  C   UNL     1       2.734   8.120  17.524  0.00  0.00    +0.000 A 
ATOM      4  C   UNL     1       3.006   6.757  17.635  0.00  0.00    +0.000 A 
ATOM      5  C   UNL     1       2.700   6.048  18.813  0.00  0.00    +0.000 A 
ATOM      6  C   UNL     1       2.085   6.733  19.874  0.00  0.00    +0.000 A 
ENDROOT
BRANCH   1   8
ATOM      7  O   UNL     1       1.262   8.409  22.005  0.00  0.00    +0.000 OA
ATOM      8  C   UNL     1       1.206   8.885  20.876  0.00  0.00    +0.000 C 
ATOM      9  N   UNL     1       0.563  10.056  20.500  0.00  0.00    +0.000 N 
ATOM     10  H   UNL     1       0.412  10.206  19.511  0.00  0.00    +0.000 HD
BRANCH   9  11
ATOM     11  C   UNL     1      -0.047  10.985  21.369  0.00  0.00    +0.000 A 
ATOM     12  C   UNL     1      -0.937  10.623  22.382  0.00  0.00    +0.000 A 
ATOM     13  C   UNL     1      -1.516  11.592  23.207  0.00  0.00    +0.000 A 
ATOM     14  C   UNL     1      -1.203  12.936  23.027  0.00  0.00    +0.000 A 
ATOM     15  C   UNL     1      -0.303  13.309  22.032  0.00  0.00    +0.000 A 
ATOM     16  C   UNL     1       0.278  12.338  21.210  0.00  0.00    +0.000 A 
ENDBRANCH   9  11
ENDBRANCH   1   8
BRANCH   5  17
ATOM     17  C   UNL     1       3.212   4.643  18.970  0.00  0.00    +0.000 C 
BRANCH  17  18
ATOM     18  N   UNL     1       4.633   4.401  18.730  0.00  0.00    +0.000 N 
ATOM     19  C   UNL     1       5.583   4.838  19.626  0.00  0.00    +0.000 A 
ATOM     20  N   UNL     1       6.688   5.209  19.028  0.00  0.00    +0.000 NA
ATOM     21  C   UNL     1       6.479   4.956  17.699  0.00  0.00    +0.000 A 
ATOM     22  C   UNL     1       7.294   5.271  16.605  0.00  0.00    +0.000 A 
ATOM     23  C   UNL     1       6.857   4.896  15.336  0.00  0.00    +0.000 A 
ATOM     24  F   UNL     1       7.588   5.253  14.269  0.00  0.00    +0.000 F 
ATOM     25  C   UNL     1       5.676   4.183  15.161  0.00  0.00    +0.000 A 
ATOM     26  F   UNL     1       5.311   3.803  13.927  0.00  0.00    +0.000 F 
ATOM     27  C   UNL     1       4.836   3.880  16.236  0.00  0.00    +0.000 A 
ATOM     28  C   UNL     1       5.246   4.332  17.493  0.00  0.00    +0.000 A 
ENDBRANCH  17  18
ENDBRANCH   5  17
TORSDOF 4
ENDMDL
