MODEL 1
REMARK VINA RESULT:      -8.7      0.000      0.000
REMARK  Name = 
REMARK  4 active torsions:
REMARK  status: ('A' for Active; 'I' for Inactive)
REMARK    1  A    between atoms: C_6  and  N_7
REMARK    2  A    between atoms: C_8  and  C_10
REMARK    3  A    between atoms: C_15  and  O_16
REMARK    4  A    between atoms: O_16  and  C_17
REMARK                            x       y       z     vdW  Elec       q    Type
REMARK                         _______ _______ _______ _____ _____    ______ ____
ROOT
ATOM      1  N   UNL     1       2.630   6.773  19.667  0.00  0.00    +0.000 N 
ATOM      2  C   UNL     1       2.466   5.599  18.951  0.00  0.00    +0.000 C 
ATOM      3  O   UNL     1       1.798   5.466  17.929  0.00  0.00    +0.000 OA
ATOM      4  H   UNL     1       3.283   6.763  20.442  0.00  0.00    +0.000 HD
ENDROOT
BRANCH   1  10
ATOM      5  O   UNL     1      -1.120  12.987  19.859  0.00  0.00    +0.000 OA
ATOM      6  C   UNL     1      -0.456  11.980  19.681  0.00  0.00    +0.000 C 
ATOM      7  C   UNL     1      -0.299  10.803  20.649  0.00  0.00    +0.000 C 
ATOM      8  C   UNL     1       0.629   9.901  19.893  0.00  0.00    +0.000 A 
ATOM      9  C   UNL     1       1.161   8.677  20.263  0.00  0.00    +0.000 A 
ATOM     10  C   UNL     1       2.026   8.021  19.378  0.00  0.00    +0.000 A 
ATOM     11  C   UNL     1       2.329   8.622  18.134  0.00  0.00    +0.000 A 
ATOM     12  C   UNL     1       1.781   9.860  17.765  0.00  0.00    +0.000 A 
ATOM     13  C   UNL     1       0.942  10.474  18.668  0.00  0.00    +0.000 A 
ATOM     14  N   UNL     1       0.299  11.695  18.548  0.00  0.00    +0.000 N 
ATOM     15  H   UNL     1       0.359  12.326  17.763  0.00  0.00    +0.000 HD
ENDBRANCH   1  10
BRANCH   2  16
ATOM     16  C   UNL     1       3.240   4.416  19.402  0.00  0.00    +0.000 A 
ATOM     17  C   UNL     1       2.533   3.409  20.078  0.00  0.00    +0.000 A 
ATOM     18  C   UNL     1       3.191   2.267  20.523  0.00  0.00    +0.000 A 
ATOM     19  C   UNL     1       4.544   2.158  20.266  0.00  0.00    +0.000 A 
ATOM     20  N   UNL     1       5.261   3.108  19.629  0.00  0.00    +0.000 NA
ATOM     21  C   UNL     1       4.611   4.239  19.241  0.00  0.00    +0.000 A 
BRANCH  21  22
ATOM     22  O   UNL     1       5.360   5.246  18.644  0.00  0.00    +0.000 OA
BRANCH  22  23
ATOM     23  C   UNL     1       5.766   5.064  17.342  0.00  0.00    +0.000 A 
ATOM     24  C   UNL     1       5.142   4.210  16.435  0.00  0.00    +0.000 A 
ATOM     25  C   UNL     1       5.655   4.082  15.143  0.00  0.00    +0.000 A 
ATOM     26  C   UNL     1       6.798   4.790  14.817  0.00  0.00    +0.000 A 
ATOM     27  N   UNL     1       7.451   5.600  15.681  0.00  0.00    +0.000 NA
ATOM     28  C   UNL     1       6.920   5.717  16.924  0.00  0.00    +0.000 A 
ENDBRANCH  22  23
ENDBRANCH  21  22
ENDBRANCH   2  16
TORSDOF 4
ENDMDL
MODEL 2
REMARK VINA RESULT:      -8.4      1.885      4.015
REMARK  Name = 
REMARK  4 active torsions:
REMARK  status: ('A' for Active; 'I' for Inactive)
REMARK    1  A    between atoms: C_6  and  N_7
REMARK    2  A    between atoms: C_8  and  C_10
REMARK    3  A    between atoms: C_15  and  O_16
REMARK    4  A    between atoms: O_16  and  C_17
REMARK                            x       y       z     vdW  Elec       q    Type
REMARK                         _______ _______ _______ _____ _____    ______ ____
ROOT
ATOM      1  N   UNL     1       3.010   6.783  17.784  0.00  0.00    +0.000 N 
ATOM      2  C   UNL     1       4.346   6.846  17.428  0.00  0.00    +0.000 C 
ATOM      3  O   UNL     1       5.133   7.736  17.740  0.00  0.00    +0.000 OA
ATOM      4  H   UNL     1       2.497   5.945  17.536  0.00  0.00    +0.000 HD
ENDROOT
BRANCH   1  10
ATOM      5  O   UNL     1      -0.217  10.659  23.007  0.00  0.00    +0.000 OA
ATOM      6  C   UNL     1       0.268  10.112  22.032  0.00  0.00    +0.000 C 
ATOM      7  C   UNL     1       1.003   8.767  22.005  0.00  0.00    +0.000 C 
ATOM      8  C   UNL     1       1.368   8.641  20.557  0.00  0.00    +0.000 A 
ATOM      9  C   UNL     1       2.068   7.636  19.911  0.00  0.00    +0.000 A 
ATOM     10  C   UNL     1       2.296   7.749  18.534  0.00  0.00    +0.000 A 
ATOM     11  C   UNL     1       1.804   8.881  17.841  0.00  0.00    +0.000 A 
ATOM     12  C   UNL     1       1.090   9.892  18.503  0.00  0.00    +0.000 A 
ATOM     13  C   UNL     1       0.895   9.744  19.858  0.00  0.00    +0.000 A 
ATOM     14  N   UNL     1       0.247  10.604  20.730  0.00  0.00    +0.000 N 
ATOM     15  H   UNL     1      -0.181  11.485  20.490  0.00  0.00    +0.000 HD
ENDBRANCH   1  10
BRANCH   2  16
ATOM     16  C   UNL     1       4.906   5.691  16.683  0.00  0.00    +0.000 A 
ATOM     17  C   UNL     1       5.231   5.899  15.333  0.00  0.00    +0.000 A 
ATOM     18  C   UNL     1       5.767   4.863  14.573  0.00  0.00    +0.000 A 
ATOM     19  C   UNL     1       5.976   3.647  15.193  0.00  0.00    +0.000 A 
ATOM     20  N   UNL     1       5.666   3.405  16.484  0.00  0.00    +0.000 NA
ATOM     21  C   UNL     1       5.100   4.415  17.200  0.00  0.00    +0.000 A 
BRANCH  21  22
ATOM     22  O   UNL     1       4.720   4.148  18.510  0.00  0.00    +0.000 OA
BRANCH  22  23
ATOM     23  C   UNL     1       3.437   3.704  18.734  0.00  0.00    +0.000 A 
ATOM     24  C   UNL     1       2.707   3.958  19.895  0.00  0.00    +0.000 A 
ATOM     25  C   UNL     1       1.420   3.437  20.026  0.00  0.00    +0.000 A 
ATOM     26  C   UNL     1       0.921   2.649  19.004  0.00  0.00    +0.000 A 
ATOM     27  N   UNL     1       1.613   2.352  17.880  0.00  0.00    +0.000 NA
ATOM     28  C   UNL     1       2.855   2.887  17.772  0.00  0.00    +0.000 A 
ENDBRANCH  22  23
ENDBRANCH  21  22
ENDBRANCH   2  16
TORSDOF 4
ENDMDL
MODEL 3
REMARK VINA RESULT:      -8.4      0.996      1.574
REMARK  Name = 
REMARK  4 active torsions:
REMARK  status: ('A' for Active; 'I' for Inactive)
REMARK    1  A    between atoms: C_6  and  N_7
REMARK    2  A    between atoms: C_8  and  C_10
REMARK    3  A    between atoms: C_15  and  O_16
REMARK    4  A    between atoms: O_16  and  C_17
REMARK                            x       y       z     vdW  Elec       q    Type
REMARK                         _______ _______ _______ _____ _____    ______ ____
ROOT
ATOM      1  N   UNL     1       2.110   6.898  20.637  0.00  0.00    +0.000 N 
ATOM      2  C   UNL     1       2.488   6.187  19.510  0.00  0.00    +0.000 C 
ATOM      3  O   UNL     1       2.400   6.579  18.349  0.00  0.00    +0.000 OA
ATOM      4  H   UNL     1       2.322   6.492  21.541  0.00  0.00    +0.000 HD
ENDROOT
BRANCH   1  10
ATOM      5  O   UNL     1      -0.641  13.404  18.959  0.00  0.00    +0.000 OA
ATOM      6  C   UNL     1      -0.207  12.349  19.388  0.00  0.00    +0.000 C 
ATOM      7  C   UNL     1       0.496  11.251  18.582  0.00  0.00    +0.000 C 
ATOM      8  C   UNL     1       0.774  10.221  19.635  0.00  0.00    +0.000 A 
ATOM      9  C   UNL     1       1.378   8.982  19.514  0.00  0.00    +0.000 A 
ATOM     10  C   UNL     1       1.517   8.184  20.657  0.00  0.00    +0.000 A 
ATOM     11  C   UNL     1       1.040   8.664  21.899  0.00  0.00    +0.000 A 
ATOM     12  C   UNL     1       0.432   9.924  22.012  0.00  0.00    +0.000 A 
ATOM     13  C   UNL     1       0.310  10.673  20.863  0.00  0.00    +0.000 A 
ATOM     14  N   UNL     1      -0.263  11.925  20.712  0.00  0.00    +0.000 N 
ATOM     15  H   UNL     1      -0.686  12.479  21.441  0.00  0.00    +0.000 HD
ENDBRANCH   1  10
BRANCH   2  16
ATOM     16  C   UNL     1       3.144   4.873  19.724  0.00  0.00    +0.000 A 
ATOM     17  C   UNL     1       2.398   3.887  20.388  0.00  0.00    +0.000 A 
ATOM     18  C   UNL     1       2.945   2.629  20.619  0.00  0.00    +0.000 A 
ATOM     19  C   UNL     1       4.226   2.388  20.163  0.00  0.00    +0.000 A 
ATOM     20  N   UNL     1       4.979   3.312  19.530  0.00  0.00    +0.000 NA
ATOM     21  C   UNL     1       4.446   4.551  19.354  0.00  0.00    +0.000 A 
BRANCH  21  22
ATOM     22  O   UNL     1       5.244   5.524  18.762  0.00  0.00    +0.000 OA
BRANCH  22  23
ATOM     23  C   UNL     1       5.751   5.269  17.509  0.00  0.00    +0.000 A 
ATOM     24  C   UNL     1       4.982   5.202  16.347  0.00  0.00    +0.000 A 
ATOM     25  C   UNL     1       5.598   4.910  15.129  0.00  0.00    +0.000 A 
ATOM     26  C   UNL     1       6.959   4.661  15.124  0.00  0.00    +0.000 A 
ATOM     27  N   UNL     1       7.730   4.683  16.235  0.00  0.00    +0.000 NA
ATOM     28  C   UNL     1       7.107   4.985  17.401  0.00  0.00    +0.000 A 
ENDBRANCH  22  23
ENDBRANCH  21  22
ENDBRANCH   2  16
TORSDOF 4
ENDMDL
MODEL 4
REMARK VINA RESULT:      -8.3      1.004      1.169
REMARK  Name = 
REMARK  4 active torsions:
REMARK  status: ('A' for Active; 'I' for Inactive)
REMARK    1  A    between atoms: C_6  and  N_7
REMARK    2  A    between atoms: C_8  and  C_10
REMARK    3  A    between atoms: C_15  and  O_16
REMARK    4  A    between atoms: O_16  and  C_17
REMARK                            x       y       z     vdW  Elec       q    Type
REMARK                         _______ _______ _______ _____ _____    ______ ____
ROOT
ATOM      1  N   UNL     1       2.186   6.826  20.494  0.00  0.00    +0.000 N 
ATOM      2  C   UNL     1       2.489   6.059  19.381  0.00  0.00    +0.000 C 
ATOM      3  O   UNL     1       2.281   6.374  18.212  0.00  0.00    +0.000 OA
ATOM      4  H   UNL     1       2.496   6.486  21.396  0.00  0.00    +0.000 HD
ENDROOT
BRANCH   1  10
ATOM      5  O   UNL     1      -1.436  12.880  22.209  0.00  0.00    +0.000 OA
ATOM      6  C   UNL     1      -0.822  11.920  21.777  0.00  0.00    +0.000 C 
ATOM      7  C   UNL     1      -0.490  10.628  22.533  0.00  0.00    +0.000 C 
ATOM      8  C   UNL     1       0.276   9.854  21.504  0.00  0.00    +0.000 A 
ATOM      9  C   UNL     1       0.863   8.603  21.602  0.00  0.00    +0.000 A 
ATOM     10  C   UNL     1       1.544   8.088  20.492  0.00  0.00    +0.000 A 
ATOM     11  C   UNL     1       1.612   8.854  19.304  0.00  0.00    +0.000 A 
ATOM     12  C   UNL     1       1.009  10.119  19.213  0.00  0.00    +0.000 A 
ATOM     13  C   UNL     1       0.356  10.590  20.329  0.00  0.00    +0.000 A 
ATOM     14  N   UNL     1      -0.293  11.802  20.495  0.00  0.00    +0.000 N 
ATOM     15  H   UNL     1      -0.378  12.532  19.804  0.00  0.00    +0.000 HD
ENDBRANCH   1  10
BRANCH   2  16
ATOM     16  C   UNL     1       3.217   4.787  19.611  0.00  0.00    +0.000 A 
ATOM     17  C   UNL     1       2.536   3.780  20.314  0.00  0.00    +0.000 A 
ATOM     18  C   UNL     1       3.152   2.558  20.562  0.00  0.00    +0.000 A 
ATOM     19  C   UNL     1       4.434   2.370  20.083  0.00  0.00    +0.000 A 
ATOM     20  N   UNL     1       5.125   3.316  19.412  0.00  0.00    +0.000 NA
ATOM     21  C   UNL     1       4.525   4.522  19.219  0.00  0.00    +0.000 A 
BRANCH  21  22
ATOM     22  O   UNL     1       5.259   5.519  18.587  0.00  0.00    +0.000 OA
BRANCH  22  23
ATOM     23  C   UNL     1       5.674   5.295  17.294  0.00  0.00    +0.000 A 
ATOM     24  C   UNL     1       4.927   4.612  16.335  0.00  0.00    +0.000 A 
ATOM     25  C   UNL     1       5.457   4.419  15.058  0.00  0.00    +0.000 A 
ATOM     26  C   UNL     1       6.732   4.887  14.798  0.00  0.00    +0.000 A 
ATOM     27  N   UNL     1       7.500   5.522  15.714  0.00  0.00    +0.000 NA
ATOM     28  C   UNL     1       6.952   5.710  16.940  0.00  0.00    +0.000 A 
ENDBRANCH  22  23
ENDBRANCH  21  22
ENDBRANCH   2  16
TORSDOF 4
ENDMDL
MODEL 5
REMARK VINA RESULT:      -8.3      1.234      1.234
REMARK  Name = 
REMARK  4 active torsions:
REMARK  status: ('A' for Active; 'I' for Inactive)
REMARK    1  A    between atoms: C_6  and  N_7
REMARK    2  A    between atoms: C_8  and  C_10
REMARK    3  A    between atoms: C_15  and  O_16
REMARK    4  A    between atoms: O_16  and  C_17
REMARK                            x       y       z     vdW  Elec       q    Type
REMARK                         _______ _______ _______ _____ _____    ______ ____
ROOT
ATOM      1  N   UNL     1       2.319   6.653  18.840  0.00  0.00    +0.000 N 
ATOM      2  C   UNL     1       2.141   5.660  19.789  0.00  0.00    +0.000 C 
ATOM      3  O   UNL     1       1.605   5.799  20.885  0.00  0.00    +0.000 OA
ATOM      4  H   UNL     1       2.695   6.381  17.940  0.00  0.00    +0.000 HD
ENDROOT
BRANCH   1  10
ATOM      5  O   UNL     1       0.021  13.121  21.209  0.00  0.00    +0.000 OA
ATOM      6  C   UNL     1       0.428  12.103  20.674  0.00  0.00    +0.000 C 
ATOM      7  C   UNL     1       0.465  10.698  21.286  0.00  0.00    +0.000 C 
ATOM      8  C   UNL     1       1.071   9.892  20.177  0.00  0.00    +0.000 A 
ATOM      9  C   UNL     1       1.379   8.543  20.138  0.00  0.00    +0.000 A 
ATOM     10  C   UNL     1       1.958   8.016  18.976  0.00  0.00    +0.000 A 
ATOM     11  C   UNL     1       2.208   8.871  17.878  0.00  0.00    +0.000 A 
ATOM     12  C   UNL     1       1.888  10.237  17.925  0.00  0.00    +0.000 A 
ATOM     13  C   UNL     1       1.327  10.715  19.088  0.00  0.00    +0.000 A 
ATOM     14  N   UNL     1       0.945  12.013  19.385  0.00  0.00    +0.000 N 
ATOM     15  H   UNL     1       1.029  12.813  18.777  0.00  0.00    +0.000 HD
ENDBRANCH   1  10
BRANCH   2  16
ATOM     16  C   UNL     1       2.546   4.282  19.413  0.00  0.00    +0.000 A 
ATOM     17  C   UNL     1       1.586   3.270  19.567  0.00  0.00    +0.000 A 
ATOM     18  C   UNL     1       1.892   1.955  19.229  0.00  0.00    +0.000 A 
ATOM     19  C   UNL     1       3.152   1.692  18.730  0.00  0.00    +0.000 A 
ATOM     20  N   UNL     1       4.105   2.636  18.577  0.00  0.00    +0.000 NA
ATOM     21  C   UNL     1       3.805   3.907  18.956  0.00  0.00    +0.000 A 
BRANCH  21  22
ATOM     22  O   UNL     1       4.807   4.867  18.861  0.00  0.00    +0.000 OA
BRANCH  22  23
ATOM     23  C   UNL     1       5.474   4.988  17.664  0.00  0.00    +0.000 A 
ATOM     24  C   UNL     1       4.873   5.361  16.462  0.00  0.00    +0.000 A 
ATOM     25  C   UNL     1       5.642   5.428  15.299  0.00  0.00    +0.000 A 
ATOM     26  C   UNL     1       6.980   5.084  15.375  0.00  0.00    +0.000 A 
ATOM     27  N   UNL     1       7.589   4.684  16.515  0.00  0.00    +0.000 NA
ATOM     28  C   UNL     1       6.821   4.645  17.632  0.00  0.00    +0.000 A 
ENDBRANCH  22  23
ENDBRANCH  21  22
ENDBRANCH   2  16
TORSDOF 4
ENDMDL
MODEL 6
REMARK VINA RESULT:      -8.3      1.980      2.362
REMARK  Name = 
REMARK  4 active torsions:
REMARK  status: ('A' for Active; 'I' for Inactive)
REMARK    1  A    between atoms: C_6  and  N_7
REMARK    2  A    between atoms: C_8  and  C_10
REMARK    3  A    between atoms: C_15  and  O_16
REMARK    4  A    between atoms: O_16  and  C_17
REMARK                            x       y       z     vdW  Elec       q    Type
REMARK                         _______ _______ _______ _____ _____    ______ ____
ROOT
ATOM      1  N   UNL     1       2.245   6.579  19.235  0.00  0.00    +0.000 N 
ATOM      2  C   UNL     1       1.960   5.314  19.722  0.00  0.00    +0.000 C 
ATOM      3  O   UNL     1       1.152   5.050  20.608  0.00  0.00    +0.000 OA
ATOM      4  H   UNL     1       2.868   6.646  18.438  0.00  0.00    +0.000 HD
ENDROOT
BRANCH   1  10
ATOM      5  O   UNL     1      -0.702  11.933  23.155  0.00  0.00    +0.000 OA
ATOM      6  C   UNL     1      -0.218  11.129  22.377  0.00  0.00    +0.000 C 
ATOM      7  C   UNL     1       0.136   9.667  22.669  0.00  0.00    +0.000 C 
ATOM      8  C   UNL     1       0.696   9.213  21.355  0.00  0.00    +0.000 A 
ATOM      9  C   UNL     1       1.210   7.978  20.998  0.00  0.00    +0.000 A 
ATOM     10  C   UNL     1       1.691   7.798  19.695  0.00  0.00    +0.000 A 
ATOM     11  C   UNL     1       1.636   8.877  18.781  0.00  0.00    +0.000 A 
ATOM     12  C   UNL     1       1.108  10.124  19.151  0.00  0.00    +0.000 A 
ATOM     13  C   UNL     1       0.653  10.260  20.443  0.00  0.00    +0.000 A 
ATOM     14  N   UNL     1       0.113  11.383  21.049  0.00  0.00    +0.000 N 
ATOM     15  H   UNL     1      -0.024  12.284  20.618  0.00  0.00    +0.000 HD
ENDBRANCH   1  10
BRANCH   2  16
ATOM     16  C   UNL     1       2.619   4.165  19.053  0.00  0.00    +0.000 A 
ATOM     17  C   UNL     1       2.199   2.880  19.432  0.00  0.00    +0.000 A 
ATOM     18  C   UNL     1       2.766   1.754  18.842  0.00  0.00    +0.000 A 
ATOM     19  C   UNL     1       3.733   1.948  17.874  0.00  0.00    +0.000 A 
ATOM     20  N   UNL     1       4.170   3.167  17.491  0.00  0.00    +0.000 NA
ATOM     21  C   UNL     1       3.638   4.254  18.111  0.00  0.00    +0.000 A 
BRANCH  21  22
ATOM     22  O   UNL     1       4.134   5.506  17.765  0.00  0.00    +0.000 OA
BRANCH  22  23
ATOM     23  C   UNL     1       5.426   5.812  18.124  0.00  0.00    +0.000 A 
ATOM     24  C   UNL     1       6.293   6.592  17.360  0.00  0.00    +0.000 A 
ATOM     25  C   UNL     1       7.595   6.818  17.810  0.00  0.00    +0.000 A 
ATOM     26  C   UNL     1       7.994   6.224  18.994  0.00  0.00    +0.000 A 
ATOM     27  N   UNL     1       7.193   5.433  19.744  0.00  0.00    +0.000 NA
ATOM     28  C   UNL     1       5.928   5.245  19.290  0.00  0.00    +0.000 A 
ENDBRANCH  22  23
ENDBRANCH  21  22
ENDBRANCH   2  16
TORSDOF 4
ENDMDL
MODEL 7
REMARK VINA RESULT:      -8.2      2.058      4.337
REMARK  Name = 
REMARK  4 active torsions:
REMARK  status: ('A' for Active; 'I' for Inactive)
REMARK    1  A    between atoms: C_6  and  N_7
REMARK    2  A    between atoms: C_8  and  C_10
REMARK    3  A    between atoms: C_15  and  O_16
REMARK    4  A    between atoms: O_16  and  C_17
REMARK                            x       y       z     vdW  Elec       q    Type
REMARK                         _______ _______ _______ _____ _____    ______ ____
ROOT
ATOM      1  N   UNL     1       2.121   7.840  19.290  0.00  0.00    +0.000 N 
ATOM      2  C   UNL     1       2.711   7.880  18.037  0.00  0.00    +0.000 C 
ATOM      3  O   UNL     1       2.595   8.786  17.216  0.00  0.00    +0.000 OA
ATOM      4  H   UNL     1       2.375   7.075  19.904  0.00  0.00    +0.000 HD
ENDROOT
BRANCH   1  10
ATOM      5  O   UNL     1      -2.030  11.932  23.619  0.00  0.00    +0.000 OA
ATOM      6  C   UNL     1      -1.385  11.331  22.776  0.00  0.00    +0.000 C 
ATOM      7  C   UNL     1      -0.549  10.065  22.991  0.00  0.00    +0.000 C 
ATOM      8  C   UNL     1       0.003   9.821  21.619  0.00  0.00    +0.000 A 
ATOM      9  C   UNL     1       0.856   8.822  21.180  0.00  0.00    +0.000 A 
ATOM     10  C   UNL     1       1.245   8.811  19.835  0.00  0.00    +0.000 A 
ATOM     11  C   UNL     1       0.758   9.813  18.963  0.00  0.00    +0.000 A 
ATOM     12  C   UNL     1      -0.111  10.818  19.417  0.00  0.00    +0.000 A 
ATOM     13  C   UNL     1      -0.463  10.797  20.748  0.00  0.00    +0.000 A 
ATOM     14  N   UNL     1      -1.280  11.680  21.433  0.00  0.00    +0.000 N 
ATOM     15  H   UNL     1      -1.743  12.488  21.045  0.00  0.00    +0.000 HD
ENDBRANCH   1  10
BRANCH   2  16
ATOM     16  C   UNL     1       3.643   6.778  17.690  0.00  0.00    +0.000 A 
ATOM     17  C   UNL     1       4.928   7.141  17.259  0.00  0.00    +0.000 A 
ATOM     18  C   UNL     1       5.858   6.163  16.923  0.00  0.00    +0.000 A 
ATOM     19  C   UNL     1       5.478   4.840  17.042  0.00  0.00    +0.000 A 
ATOM     20  N   UNL     1       4.248   4.452  17.442  0.00  0.00    +0.000 NA
ATOM     21  C   UNL     1       3.337   5.422  17.722  0.00  0.00    +0.000 A 
BRANCH  21  22
ATOM     22  O   UNL     1       2.051   5.024  18.071  0.00  0.00    +0.000 OA
BRANCH  22  23
ATOM     23  C   UNL     1       1.894   4.273  19.213  0.00  0.00    +0.000 A 
ATOM     24  C   UNL     1       2.361   4.648  20.472  0.00  0.00    +0.000 A 
ATOM     25  C   UNL     1       2.169   3.796  21.560  0.00  0.00    +0.000 A 
ATOM     26  C   UNL     1       1.546   2.580  21.341  0.00  0.00    +0.000 A 
ATOM     27  N   UNL     1       1.112   2.167  20.128  0.00  0.00    +0.000 NA
ATOM     28  C   UNL     1       1.298   3.023  19.093  0.00  0.00    +0.000 A 
ENDBRANCH  22  23
ENDBRANCH  21  22
ENDBRANCH   2  16
TORSDOF 4
ENDMDL
MODEL 8
REMARK VINA RESULT:      -8.2      1.894      2.245
REMARK  Name = 
REMARK  4 active torsions:
REMARK  status: ('A' for Active; 'I' for Inactive)
REMARK    1  A    between atoms: C_6  and  N_7
REMARK    2  A    between atoms: C_8  and  C_10
REMARK    3  A    between atoms: C_15  and  O_16
REMARK    4  A    between atoms: O_16  and  C_17
REMARK                            x       y       z     vdW  Elec       q    Type
REMARK                         _______ _______ _______ _____ _____    ______ ____
ROOT
ATOM      1  N   UNL     1       2.223   6.488  19.780  0.00  0.00    +0.000 N 
ATOM      2  C   UNL     1       1.719   5.217  19.998  0.00  0.00    +0.000 C 
ATOM      3  O   UNL     1       0.640   4.950  20.520  0.00  0.00    +0.000 OA
ATOM      4  H   UNL     1       3.087   6.567  19.256  0.00  0.00    +0.000 HD
ENDROOT
BRANCH   1  10
ATOM      5  O   UNL     1      -1.090  11.907  23.298  0.00  0.00    +0.000 OA
ATOM      6  C   UNL     1      -0.540  11.087  22.582  0.00  0.00    +0.000 C 
ATOM      7  C   UNL     1      -0.164   9.649  22.956  0.00  0.00    +0.000 C 
ATOM      8  C   UNL     1       0.483   9.159  21.696  0.00  0.00    +0.000 A 
ATOM      9  C   UNL     1       1.050   7.927  21.421  0.00  0.00    +0.000 A 
ATOM     10  C   UNL     1       1.610   7.708  20.156  0.00  0.00    +0.000 A 
ATOM     11  C   UNL     1       1.579   8.747  19.196  0.00  0.00    +0.000 A 
ATOM     12  C   UNL     1       0.996   9.991  19.482  0.00  0.00    +0.000 A 
ATOM     13  C   UNL     1       0.464  10.166  20.740  0.00  0.00    +0.000 A 
ATOM     14  N   UNL     1      -0.141  11.296  21.266  0.00  0.00    +0.000 N 
ATOM     15  H   UNL     1      -0.277  12.175  20.790  0.00  0.00    +0.000 HD
ENDBRANCH   1  10
BRANCH   2  16
ATOM     16  C   UNL     1       2.506   4.075  19.470  0.00  0.00    +0.000 A 
ATOM     17  C   UNL     1       1.792   2.925  19.098  0.00  0.00    +0.000 A 
ATOM     18  C   UNL     1       2.462   1.817  18.588  0.00  0.00    +0.000 A 
ATOM     19  C   UNL     1       3.834   1.897  18.451  0.00  0.00    +0.000 A 
ATOM     20  N   UNL     1       4.557   2.980  18.808  0.00  0.00    +0.000 NA
ATOM     21  C   UNL     1       3.891   4.037  19.347  0.00  0.00    +0.000 A 
BRANCH  21  22
ATOM     22  O   UNL     1       4.641   5.126  19.776  0.00  0.00    +0.000 OA
BRANCH  22  23
ATOM     23  C   UNL     1       5.606   5.620  18.928  0.00  0.00    +0.000 A 
ATOM     24  C   UNL     1       6.971   5.631  19.211  0.00  0.00    +0.000 A 
ATOM     25  C   UNL     1       7.862   6.181  18.288  0.00  0.00    +0.000 A 
ATOM     26  C   UNL     1       7.349   6.733  17.128  0.00  0.00    +0.000 A 
ATOM     27  N   UNL     1       6.029   6.773  16.836  0.00  0.00    +0.000 NA
ATOM     28  C   UNL     1       5.189   6.215  17.744  0.00  0.00    +0.000 A 
ENDBRANCH  22  23
ENDBRANCH  21  22
ENDBRANCH   2  16
TORSDOF 4
ENDMDL
MODEL 9
REMARK VINA RESULT:      -8.1      1.051      1.521
REMARK  Name = 
REMARK  4 active torsions:
REMARK  status: ('A' for Active; 'I' for Inactive)
REMARK    1  A    between atoms: C_6  and  N_7
REMARK    2  A    between atoms: C_8  and  C_10
REMARK    3  A    between atoms: C_15  and  O_16
REMARK    4  A    between atoms: O_16  and  C_17
REMARK                            x       y       z     vdW  Elec       q    Type
REMARK                         _______ _______ _______ _____ _____    ______ ____
ROOT
ATOM      1  N   UNL     1       2.634   6.660  19.695  0.00  0.00    +0.000 N 
ATOM      2  C   UNL     1       2.389   5.469  19.031  0.00  0.00    +0.000 C 
ATOM      3  O   UNL     1       1.668   5.329  18.047  0.00  0.00    +0.000 OA
ATOM      4  H   UNL     1       3.323   6.650  20.439  0.00  0.00    +0.000 HD
ENDROOT
BRANCH   1  10
ATOM      5  O   UNL     1      -0.937  12.980  19.801  0.00  0.00    +0.000 OA
ATOM      6  C   UNL     1      -0.302  11.953  19.637  0.00  0.00    +0.000 C 
ATOM      7  C   UNL     1      -0.182  10.782  20.619  0.00  0.00    +0.000 C 
ATOM      8  C   UNL     1       0.724   9.845  19.878  0.00  0.00    +0.000 A 
ATOM      9  C   UNL     1       1.218   8.612  20.264  0.00  0.00    +0.000 A 
ATOM     10  C   UNL     1       2.068   7.921  19.390  0.00  0.00    +0.000 A 
ATOM     11  C   UNL     1       2.394   8.499  18.140  0.00  0.00    +0.000 A 
ATOM     12  C   UNL     1       1.882   9.748  17.755  0.00  0.00    +0.000 A 
ATOM     13  C   UNL     1       1.057  10.396  18.647  0.00  0.00    +0.000 A 
ATOM     14  N   UNL     1       0.450  11.633  18.510  0.00  0.00    +0.000 N 
ATOM     15  H   UNL     1       0.531  12.253  17.719  0.00  0.00    +0.000 HD
ENDBRANCH   1  10
BRANCH   2  16
ATOM     16  C   UNL     1       3.137   4.271  19.488  0.00  0.00    +0.000 A 
ATOM     17  C   UNL     1       2.702   3.662  20.675  0.00  0.00    +0.000 A 
ATOM     18  C   UNL     1       3.350   2.530  21.161  0.00  0.00    +0.000 A 
ATOM     19  C   UNL     1       4.412   2.030  20.433  0.00  0.00    +0.000 A 
ATOM     20  N   UNL     1       4.866   2.593  19.294  0.00  0.00    +0.000 NA
ATOM     21  C   UNL     1       4.250   3.725  18.858  0.00  0.00    +0.000 A 
BRANCH  21  22
ATOM     22  O   UNL     1       4.758   4.344  17.721  0.00  0.00    +0.000 OA
BRANCH  22  23
ATOM     23  C   UNL     1       5.814   5.212  17.875  0.00  0.00    +0.000 A 
ATOM     24  C   UNL     1       6.689   5.204  18.961  0.00  0.00    +0.000 A 
ATOM     25  C   UNL     1       7.713   6.149  19.028  0.00  0.00    +0.000 A 
ATOM     26  C   UNL     1       7.804   7.093  18.021  0.00  0.00    +0.000 A 
ATOM     27  N   UNL     1       6.953   7.155  16.971  0.00  0.00    +0.000 NA
ATOM     28  C   UNL     1       5.978   6.213  16.924  0.00  0.00    +0.000 A 
ENDBRANCH  22  23
ENDBRANCH  21  22
ENDBRANCH   2  16
TORSDOF 4
ENDMDL
