MODEL 1
REMARK VINA RESULT:      -8.8      0.000      0.000
REMARK  Name = 
REMARK  3 active torsions:
REMARK  status: ('A' for Active; 'I' for Inactive)
REMARK    1  A    between atoms: C_1  and  N_2
REMARK    2  A    between atoms: C_9  and  C_10
REMARK    3  A    between atoms: C_14  and  C_15
REMARK                            x       y       z     vdW  Elec       q    Type
REMARK                         _______ _______ _______ _____ _____    ______ ____
ROOT
ATOM      1  C   UNL     1       4.085   5.923  17.567  0.00  0.00    +0.000 A 
ATOM      2  C   UNL     1       3.711   4.987  18.551  0.00  0.00    +0.000 A 
ATOM      3  C   UNL     1       2.876   5.338  19.611  0.00  0.00    +0.000 A 
ATOM      4  C   UNL     1       2.353   6.621  19.683  0.00  0.00    +0.000 A 
ATOM      5  C   UNL     1       2.551   7.517  18.634  0.00  0.00    +0.000 A 
ATOM      6  C   UNL     1       3.468   7.186  17.619  0.00  0.00    +0.000 A 
ENDROOT
BRANCH   1  15
ATOM      7  C   UNL     1       4.676   3.361  12.623  0.00  0.00    +0.000 C 
ATOM      8  N   UNL     1       5.813   3.965  13.251  0.00  0.00    +0.000 N 
ATOM      9  C   UNL     1       7.114   4.044  12.718  0.00  0.00    +0.000 A 
ATOM     10  O   UNL     1       7.512   3.596  11.656  0.00  0.00    +0.000 OA
ATOM     11  N   UNL     1       7.884   4.754  13.647  0.00  0.00    +0.000 N 
ATOM     12  C   UNL     1       7.085   5.111  14.720  0.00  0.00    +0.000 A 
ATOM     13  N   UNL     1       7.460   5.816  15.784  0.00  0.00    +0.000 NA
ATOM     14  C   UNL     1       6.446   6.041  16.664  0.00  0.00    +0.000 A 
ATOM     15  C   UNL     1       5.104   5.589  16.544  0.00  0.00    +0.000 A 
ATOM     16  C   UNL     1       4.795   4.842  15.393  0.00  0.00    +0.000 A 
ATOM     17  C   UNL     1       5.806   4.625  14.483  0.00  0.00    +0.000 A 
ATOM     18  H   UNL     1       8.856   4.981  13.549  0.00  0.00    +0.000 HD
ENDBRANCH   1  15
BRANCH   5  19
ATOM     19  C   UNL     1       1.875   8.847  18.571  0.00  0.00    +0.000 C 
ATOM     20  O   UNL     1       2.038   9.508  17.544  0.00  0.00    +0.000 OA
ATOM     21  N   UNL     1       1.069   9.295  19.621  0.00  0.00    +0.000 N 
ATOM     22  C   UNL     1       0.739   8.599  20.876  0.00  0.00    +0.000 C 
ATOM     23  C   UNL     1       1.269   9.417  22.054  0.00  0.00    +0.000 C 
ATOM     24  O   UNL     1       0.695  10.729  22.049  0.00  0.00    +0.000 OA
ATOM     25  C   UNL     1       0.982  11.444  20.825  0.00  0.00    +0.000 C 
ATOM     26  C   UNL     1       0.244  12.777  20.848  0.00  0.00    +0.000 C 
ATOM     27  O   UNL     1      -1.148  12.563  21.047  0.00  0.00    +0.000 OA
ATOM     28  C   UNL     1      -1.795  11.773  20.065  0.00  0.00    +0.000 C 
ATOM     29  C   UNL     1      -0.994  10.669  19.373  0.00  0.00    +0.000 C 
ATOM     30  C   UNL     1       0.529  10.673  19.575  0.00  0.00    +0.000 C 
ENDBRANCH   5  19
TORSDOF 2
ENDMDL
MODEL 2
REMARK VINA RESULT:      -8.8      3.725      9.956
REMARK  Name = 
REMARK  3 active torsions:
REMARK  status: ('A' for Active; 'I' for Inactive)
REMARK    1  A    between atoms: C_1  and  N_2
REMARK    2  A    between atoms: C_9  and  C_10
REMARK    3  A    between atoms: C_14  and  C_15
REMARK                            x       y       z     vdW  Elec       q    Type
REMARK                         _______ _______ _______ _____ _____    ______ ____
ROOT
ATOM      1  C   UNL     1      -0.825  10.378  18.843  0.00  0.00    +0.000 A 
ATOM      2  C   UNL     1      -0.452  10.924  20.086  0.00  0.00    +0.000 A 
ATOM      3  C   UNL     1       0.670  10.467  20.776  0.00  0.00    +0.000 A 
ATOM      4  C   UNL     1       1.475   9.488  20.213  0.00  0.00    +0.000 A 
ATOM      5  C   UNL     1       1.244   9.057  18.908  0.00  0.00    +0.000 A 
ATOM      6  C   UNL     1       0.060   9.453  18.259  0.00  0.00    +0.000 A 
ENDROOT
BRANCH   1  15
ATOM      7  C   UNL     1      -5.635  13.062  19.856  0.00  0.00    +0.000 C 
ATOM      8  N   UNL     1      -5.403  12.479  18.568  0.00  0.00    +0.000 N 
ATOM      9  C   UNL     1      -6.262  12.555  17.454  0.00  0.00    +0.000 A 
ATOM     10  O   UNL     1      -7.352  13.095  17.390  0.00  0.00    +0.000 OA
ATOM     11  N   UNL     1      -5.616  11.887  16.406  0.00  0.00    +0.000 N 
ATOM     12  C   UNL     1      -4.393  11.417  16.853  0.00  0.00    +0.000 A 
ATOM     13  N   UNL     1      -3.490  10.757  16.133  0.00  0.00    +0.000 NA
ATOM     14  C   UNL     1      -2.364  10.451  16.834  0.00  0.00    +0.000 A 
ATOM     15  C   UNL     1      -2.108  10.749  18.200  0.00  0.00    +0.000 A 
ATOM     16  C   UNL     1      -3.120  11.441  18.890  0.00  0.00    +0.000 A 
ATOM     17  C   UNL     1      -4.256  11.777  18.187  0.00  0.00    +0.000 A 
ATOM     18  H   UNL     1      -5.974  11.775  15.476  0.00  0.00    +0.000 HD
ENDBRANCH   1  15
BRANCH   5  19
ATOM     19  C   UNL     1       2.172   8.137  18.186  0.00  0.00    +0.000 C 
ATOM     20  O   UNL     1       2.586   8.511  17.087  0.00  0.00    +0.000 OA
ATOM     21  N   UNL     1       2.574   6.926  18.756  0.00  0.00    +0.000 N 
ATOM     22  C   UNL     1       2.211   6.376  20.073  0.00  0.00    +0.000 C 
ATOM     23  C   UNL     1       1.458   5.060  19.873  0.00  0.00    +0.000 C 
ATOM     24  O   UNL     1       2.269   4.125  19.151  0.00  0.00    +0.000 OA
ATOM     25  C   UNL     1       2.662   4.633  17.855  0.00  0.00    +0.000 C 
ATOM     26  C   UNL     1       3.612   3.637  17.203  0.00  0.00    +0.000 C 
ATOM     27  O   UNL     1       4.722   3.387  18.057  0.00  0.00    +0.000 OA
ATOM     28  C   UNL     1       5.508   4.518  18.390  0.00  0.00    +0.000 C 
ATOM     29  C   UNL     1       4.819   5.879  18.493  0.00  0.00    +0.000 C 
ATOM     30  C   UNL     1       3.386   5.986  17.951  0.00  0.00    +0.000 C 
ENDBRANCH   5  19
TORSDOF 2
ENDMDL
MODEL 3
REMARK VINA RESULT:      -8.8      3.304      5.186
REMARK  Name = 
REMARK  3 active torsions:
REMARK  status: ('A' for Active; 'I' for Inactive)
REMARK    1  A    between atoms: C_1  and  N_2
REMARK    2  A    between atoms: C_9  and  C_10
REMARK    3  A    between atoms: C_14  and  C_15
REMARK                            x       y       z     vdW  Elec       q    Type
REMARK                         _______ _______ _______ _____ _____    ______ ____
ROOT
ATOM      1  C   UNL     1       1.787   7.894  19.530  0.00  0.00    +0.000 A 
ATOM      2  C   UNL     1       2.129   8.599  18.360  0.00  0.00    +0.000 A 
ATOM      3  C   UNL     1       1.747   9.927  18.170  0.00  0.00    +0.000 A 
ATOM      4  C   UNL     1       1.058  10.596  19.171  0.00  0.00    +0.000 A 
ATOM      5  C   UNL     1       0.864   9.992  20.412  0.00  0.00    +0.000 A 
ATOM      6  C   UNL     1       1.168   8.626  20.560  0.00  0.00    +0.000 A 
ENDROOT
BRANCH   1  15
ATOM      7  C   UNL     1       4.167   3.618  16.807  0.00  0.00    +0.000 C 
ATOM      8  N   UNL     1       3.558   3.397  18.085  0.00  0.00    +0.000 N 
ATOM      9  C   UNL     1       3.539   2.183  18.798  0.00  0.00    +0.000 A 
ATOM     10  O   UNL     1       4.001   1.109  18.453  0.00  0.00    +0.000 OA
ATOM     11  N   UNL     1       2.883   2.441  20.008  0.00  0.00    +0.000 N 
ATOM     12  C   UNL     1       2.513   3.774  20.048  0.00  0.00    +0.000 A 
ATOM     13  N   UNL     1       1.893   4.393  21.050  0.00  0.00    +0.000 NA
ATOM     14  C   UNL     1       1.688   5.718  20.819  0.00  0.00    +0.000 A 
ATOM     15  C   UNL     1       2.048   6.440  19.648  0.00  0.00    +0.000 A 
ATOM     16  C   UNL     1       2.691   5.708  18.634  0.00  0.00    +0.000 A 
ATOM     17  C   UNL     1       2.925   4.370  18.863  0.00  0.00    +0.000 A 
ATOM     18  H   UNL     1       2.717   1.773  20.736  0.00  0.00    +0.000 HD
ENDBRANCH   1  15
BRANCH   5  19
ATOM     19  C   UNL     1       0.286  10.719  21.581  0.00  0.00    +0.000 C 
ATOM     20  O   UNL     1       0.630  10.338  22.701  0.00  0.00    +0.000 OA
ATOM     21  N   UNL     1      -0.578  11.802  21.400  0.00  0.00    +0.000 N 
ATOM     22  C   UNL     1      -1.033  12.401  20.134  0.00  0.00    +0.000 C 
ATOM     23  C   UNL     1      -2.552  12.259  20.033  0.00  0.00    +0.000 C 
ATOM     24  O   UNL     1      -3.190  12.901  21.143  0.00  0.00    +0.000 OA
ATOM     25  C   UNL     1      -2.759  12.353  22.410  0.00  0.00    +0.000 C 
ATOM     26  C   UNL     1      -3.388  13.161  23.537  0.00  0.00    +0.000 C 
ATOM     27  O   UNL     1      -3.061  14.538  23.393  0.00  0.00    +0.000 OA
ATOM     28  C   UNL     1      -1.679  14.848  23.414  0.00  0.00    +0.000 C 
ATOM     29  C   UNL     1      -0.694  13.818  22.859  0.00  0.00    +0.000 C 
ATOM     30  C   UNL     1      -1.232  12.406  22.583  0.00  0.00    +0.000 C 
ENDBRANCH   5  19
TORSDOF 2
ENDMDL
MODEL 4
REMARK VINA RESULT:      -8.8      3.638      5.226
REMARK  Name = 
REMARK  3 active torsions:
REMARK  status: ('A' for Active; 'I' for Inactive)
REMARK    1  A    between atoms: C_1  and  N_2
REMARK    2  A    between atoms: C_9  and  C_10
REMARK    3  A    between atoms: C_14  and  C_15
REMARK                            x       y       z     vdW  Elec       q    Type
REMARK                         _______ _______ _______ _____ _____    ______ ____
ROOT
ATOM      1  C   UNL     1       1.841   8.216  18.988  0.00  0.00    +0.000 A 
ATOM      2  C   UNL     1       1.454   8.794  17.764  0.00  0.00    +0.000 A 
ATOM      3  C   UNL     1       0.499   9.809  17.706  0.00  0.00    +0.000 A 
ATOM      4  C   UNL     1      -0.053  10.304  18.879  0.00  0.00    +0.000 A 
ATOM      5  C   UNL     1       0.438   9.887  20.114  0.00  0.00    +0.000 A 
ATOM      6  C   UNL     1       1.330   8.800  20.161  0.00  0.00    +0.000 A 
ENDROOT
BRANCH   1  15
ATOM      7  C   UNL     1       2.333   3.172  21.371  0.00  0.00    +0.000 C 
ATOM      8  N   UNL     1       3.324   3.617  20.437  0.00  0.00    +0.000 N 
ATOM      9  C   UNL     1       4.432   2.875  19.983  0.00  0.00    +0.000 A 
ATOM     10  O   UNL     1       4.761   1.750  20.315  0.00  0.00    +0.000 OA
ATOM     11  N   UNL     1       5.097   3.681  19.051  0.00  0.00    +0.000 N 
ATOM     12  C   UNL     1       4.421   4.883  18.926  0.00  0.00    +0.000 A 
ATOM     13  N   UNL     1       4.740   5.888  18.115  0.00  0.00    +0.000 NA
ATOM     14  C   UNL     1       3.869   6.932  18.185  0.00  0.00    +0.000 A 
ATOM     15  C   UNL     1       2.725   7.027  19.024  0.00  0.00    +0.000 A 
ATOM     16  C   UNL     1       2.466   5.924  19.856  0.00  0.00    +0.000 A 
ATOM     17  C   UNL     1       3.327   4.851  19.780  0.00  0.00    +0.000 A 
ATOM     18  H   UNL     1       5.924   3.428  18.545  0.00  0.00    +0.000 HD
ENDBRANCH   1  15
BRANCH   5  19
ATOM     19  C   UNL     1       0.009  10.506  21.404  0.00  0.00    +0.000 C 
ATOM     20  O   UNL     1       0.440   9.995  22.439  0.00  0.00    +0.000 OA
ATOM     21  N   UNL     1      -0.816  11.633  21.422  0.00  0.00    +0.000 N 
ATOM     22  C   UNL     1      -1.360  12.382  20.275  0.00  0.00    +0.000 C 
ATOM     23  C   UNL     1      -2.887  12.308  20.311  0.00  0.00    +0.000 C 
ATOM     24  O   UNL     1      -3.384  12.851  21.539  0.00  0.00    +0.000 OA
ATOM     25  C   UNL     1      -2.862  12.155  22.694  0.00  0.00    +0.000 C 
ATOM     26  C   UNL     1      -3.342  12.862  23.954  0.00  0.00    +0.000 C 
ATOM     27  O   UNL     1      -2.965  14.233  23.921  0.00  0.00    +0.000 OA
ATOM     28  C   UNL     1      -1.574  14.486  23.836  0.00  0.00    +0.000 C 
ATOM     29  C   UNL     1      -0.696  13.485  23.083  0.00  0.00    +0.000 C 
ATOM     30  C   UNL     1      -1.325  12.132  22.719  0.00  0.00    +0.000 C 
ENDBRANCH   5  19
TORSDOF 2
ENDMDL
MODEL 5
REMARK VINA RESULT:      -8.7      3.929      5.944
REMARK  Name = 
REMARK  3 active torsions:
REMARK  status: ('A' for Active; 'I' for Inactive)
REMARK    1  A    between atoms: C_1  and  N_2
REMARK    2  A    between atoms: C_9  and  C_10
REMARK    3  A    between atoms: C_14  and  C_15
REMARK                            x       y       z     vdW  Elec       q    Type
REMARK                         _______ _______ _______ _____ _____    ______ ____
ROOT
ATOM      1  C   UNL     1       0.963   9.015  20.387  0.00  0.00    +0.000 A 
ATOM      2  C   UNL     1       0.222   8.936  21.582  0.00  0.00    +0.000 A 
ATOM      3  C   UNL     1      -0.351  10.067  22.161  0.00  0.00    +0.000 A 
ATOM      4  C   UNL     1      -0.240  11.297  21.528  0.00  0.00    +0.000 A 
ATOM      5  C   UNL     1       0.324  11.382  20.257  0.00  0.00    +0.000 A 
ATOM      6  C   UNL     1       0.980  10.257  19.726  0.00  0.00    +0.000 A 
ENDROOT
BRANCH   1  15
ATOM      7  C   UNL     1       2.130   3.672  21.593  0.00  0.00    +0.000 C 
ATOM      8  N   UNL     1       2.654   4.262  20.397  0.00  0.00    +0.000 N 
ATOM      9  C   UNL     1       3.418   3.607  19.412  0.00  0.00    +0.000 A 
ATOM     10  O   UNL     1       3.792   2.447  19.409  0.00  0.00    +0.000 OA
ATOM     11  N   UNL     1       3.669   4.550  18.409  0.00  0.00    +0.000 N 
ATOM     12  C   UNL     1       3.074   5.751  18.756  0.00  0.00    +0.000 A 
ATOM     13  N   UNL     1       3.076   6.871  18.037  0.00  0.00    +0.000 NA
ATOM     14  C   UNL     1       2.379   7.884  18.619  0.00  0.00    +0.000 A 
ATOM     15  C   UNL     1       1.708   7.842  19.872  0.00  0.00    +0.000 A 
ATOM     16  C   UNL     1       1.765   6.623  20.571  0.00  0.00    +0.000 A 
ATOM     17  C   UNL     1       2.448   5.581  19.983  0.00  0.00    +0.000 A 
ATOM     18  H   UNL     1       4.186   4.383  17.566  0.00  0.00    +0.000 HD
ENDBRANCH   1  15
BRANCH   5  19
ATOM     19  C   UNL     1       0.316  12.641  19.454  0.00  0.00    +0.000 C 
ATOM     20  O   UNL     1      -0.427  12.673  18.472  0.00  0.00    +0.000 OA
ATOM     21  N   UNL     1       1.096  13.738  19.829  0.00  0.00    +0.000 N 
ATOM     22  C   UNL     1       1.983  13.868  20.997  0.00  0.00    +0.000 C 
ATOM     23  C   UNL     1       3.417  14.087  20.512  0.00  0.00    +0.000 C 
ATOM     24  O   UNL     1       3.494  15.264  19.698  0.00  0.00    +0.000 OA
ATOM     25  C   UNL     1       2.624  15.186  18.545  0.00  0.00    +0.000 C 
ATOM     26  C   UNL     1       2.674  16.513  17.799  0.00  0.00    +0.000 C 
ATOM     27  O   UNL     1       2.334  17.580  18.675  0.00  0.00    +0.000 OA
ATOM     28  C   UNL     1       1.046  17.509  19.260  0.00  0.00    +0.000 C 
ATOM     29  C   UNL     1       0.454  16.129  19.551  0.00  0.00    +0.000 C 
ATOM     30  C   UNL     1       1.161  14.915  18.932  0.00  0.00    +0.000 C 
ENDBRANCH   5  19
TORSDOF 2
ENDMDL
MODEL 6
REMARK VINA RESULT:      -8.5      3.796      6.344
REMARK  Name = 
REMARK  3 active torsions:
REMARK  status: ('A' for Active; 'I' for Inactive)
REMARK    1  A    between atoms: C_1  and  N_2
REMARK    2  A    between atoms: C_9  and  C_10
REMARK    3  A    between atoms: C_14  and  C_15
REMARK                            x       y       z     vdW  Elec       q    Type
REMARK                         _______ _______ _______ _____ _____    ______ ____
ROOT
ATOM      1  C   UNL     1       0.275   9.619  21.079  0.00  0.00    +0.000 A 
ATOM      2  C   UNL     1      -0.102   9.261  22.387  0.00  0.00    +0.000 A 
ATOM      3  C   UNL     1      -0.754  10.160  23.230  0.00  0.00    +0.000 A 
ATOM      4  C   UNL     1      -1.091  11.422  22.763  0.00  0.00    +0.000 A 
ATOM      5  C   UNL     1      -0.900  11.747  21.422  0.00  0.00    +0.000 A 
ATOM      6  C   UNL     1      -0.159  10.871  20.608  0.00  0.00    +0.000 A 
ENDROOT
BRANCH   1  15
ATOM      7  C   UNL     1       2.448   4.457  21.024  0.00  0.00    +0.000 C 
ATOM      8  N   UNL     1       2.689   5.342  19.924  0.00  0.00    +0.000 N 
ATOM      9  C   UNL     1       3.395   5.031  18.746  0.00  0.00    +0.000 A 
ATOM     10  O   UNL     1       3.946   3.981  18.462  0.00  0.00    +0.000 OA
ATOM     11  N   UNL     1       3.342   6.172  17.936  0.00  0.00    +0.000 N 
ATOM     12  C   UNL     1       2.620   7.157  18.586  0.00  0.00    +0.000 A 
ATOM     13  N   UNL     1       2.337   8.369  18.117  0.00  0.00    +0.000 NA
ATOM     14  C   UNL     1       1.580   9.113  18.970  0.00  0.00    +0.000 A 
ATOM     15  C   UNL     1       1.116   8.718  20.254  0.00  0.00    +0.000 A 
ATOM     16  C   UNL     1       1.469   7.425  20.677  0.00  0.00    +0.000 A 
ATOM     17  C   UNL     1       2.216   6.653  19.815  0.00  0.00    +0.000 A 
ATOM     18  H   UNL     1       3.750   6.260  17.024  0.00  0.00    +0.000 HD
ENDBRANCH   1  15
BRANCH   5  19
ATOM     19  C   UNL     1      -1.398  13.021  20.821  0.00  0.00    +0.000 C 
ATOM     20  O   UNL     1      -2.575  13.045  20.461  0.00  0.00    +0.000 OA
ATOM     21  N   UNL     1      -0.566  14.137  20.711  0.00  0.00    +0.000 N 
ATOM     22  C   UNL     1       0.835  14.275  21.146  0.00  0.00    +0.000 C 
ATOM     23  C   UNL     1       1.711  14.556  19.923  0.00  0.00    +0.000 C 
ATOM     24  O   UNL     1       1.276  15.750  19.262  0.00  0.00    +0.000 OA
ATOM     25  C   UNL     1      -0.101  15.664  18.832  0.00  0.00    +0.000 C 
ATOM     26  C   UNL     1      -0.520  17.006  18.246  0.00  0.00    +0.000 C 
ATOM     27  O   UNL     1      -0.303  18.043  19.195  0.00  0.00    +0.000 OA
ATOM     28  C   UNL     1      -1.005  17.914  20.419  0.00  0.00    +0.000 C 
ATOM     29  C   UNL     1      -1.291  16.509  20.949  0.00  0.00    +0.000 C 
ATOM     30  C   UNL     1      -1.058  15.333  19.989  0.00  0.00    +0.000 C 
ENDBRANCH   5  19
TORSDOF 2
ENDMDL
MODEL 7
REMARK VINA RESULT:      -8.5      3.718      6.720
REMARK  Name = 
REMARK  3 active torsions:
REMARK  status: ('A' for Active; 'I' for Inactive)
REMARK    1  A    between atoms: C_1  and  N_2
REMARK    2  A    between atoms: C_9  and  C_10
REMARK    3  A    between atoms: C_14  and  C_15
REMARK                            x       y       z     vdW  Elec       q    Type
REMARK                         _______ _______ _______ _____ _____    ______ ____
ROOT
ATOM      1  C   UNL     1       0.391  10.530  19.067  0.00  0.00    +0.000 A 
ATOM      2  C   UNL     1       1.128  11.725  18.959  0.00  0.00    +0.000 A 
ATOM      3  C   UNL     1       0.536  12.908  18.516  0.00  0.00    +0.000 A 
ATOM      4  C   UNL     1      -0.819  12.933  18.220  0.00  0.00    +0.000 A 
ATOM      5  C   UNL     1      -1.615  11.822  18.491  0.00  0.00    +0.000 A 
ATOM      6  C   UNL     1      -0.995  10.610  18.847  0.00  0.00    +0.000 A 
ENDROOT
BRANCH   1  15
ATOM      7  C   UNL     1       4.138   6.922  16.989  0.00  0.00    +0.000 C 
ATOM      8  N   UNL     1       3.527   6.661  18.259  0.00  0.00    +0.000 N 
ATOM      9  C   UNL     1       3.815   5.580  19.114  0.00  0.00    +0.000 A 
ATOM     10  O   UNL     1       4.601   4.668  18.923  0.00  0.00    +0.000 OA
ATOM     11  N   UNL     1       3.021   5.750  20.255  0.00  0.00    +0.000 N 
ATOM     12  C   UNL     1       2.270   6.904  20.116  0.00  0.00    +0.000 A 
ATOM     13  N   UNL     1       1.419   7.405  21.008  0.00  0.00    +0.000 NA
ATOM     14  C   UNL     1       0.847   8.574  20.608  0.00  0.00    +0.000 A 
ATOM     15  C   UNL     1       1.064   9.245  19.374  0.00  0.00    +0.000 A 
ATOM     16  C   UNL     1       1.971   8.642  18.484  0.00  0.00    +0.000 A 
ATOM     17  C   UNL     1       2.575   7.470  18.885  0.00  0.00    +0.000 A 
ATOM     18  H   UNL     1       3.007   5.143  21.052  0.00  0.00    +0.000 HD
ENDBRANCH   1  15
BRANCH   5  19
ATOM     19  C   UNL     1      -3.102  11.844  18.358  0.00  0.00    +0.000 C 
ATOM     20  O   UNL     1      -3.573  11.444  17.292  0.00  0.00    +0.000 OA
ATOM     21  N   UNL     1      -3.913  12.269  19.413  0.00  0.00    +0.000 N 
ATOM     22  C   UNL     1      -3.500  12.719  20.754  0.00  0.00    +0.000 C 
ATOM     23  C   UNL     1      -3.937  14.171  20.949  0.00  0.00    +0.000 C 
ATOM     24  O   UNL     1      -5.357  14.290  20.801  0.00  0.00    +0.000 OA
ATOM     25  C   UNL     1      -5.808  13.843  19.502  0.00  0.00    +0.000 C 
ATOM     26  C   UNL     1      -7.330  13.890  19.465  0.00  0.00    +0.000 C 
ATOM     27  O   UNL     1      -7.870  13.118  20.531  0.00  0.00    +0.000 OA
ATOM     28  C   UNL     1      -7.520  11.745  20.534  0.00  0.00    +0.000 C 
ATOM     29  C   UNL     1      -6.154  11.340  19.978  0.00  0.00    +0.000 C 
ATOM     30  C   UNL     1      -5.371  12.402  19.193  0.00  0.00    +0.000 C 
ENDBRANCH   5  19
TORSDOF 2
ENDMDL
MODEL 8
REMARK VINA RESULT:      -8.5      3.693     10.313
REMARK  Name = 
REMARK  3 active torsions:
REMARK  status: ('A' for Active; 'I' for Inactive)
REMARK    1  A    between atoms: C_1  and  N_2
REMARK    2  A    between atoms: C_9  and  C_10
REMARK    3  A    between atoms: C_14  and  C_15
REMARK                            x       y       z     vdW  Elec       q    Type
REMARK                         _______ _______ _______ _____ _____    ______ ____
ROOT
ATOM      1  C   UNL     1       0.851  10.090  20.057  0.00  0.00    +0.000 A 
ATOM      2  C   UNL     1       1.245  10.495  18.767  0.00  0.00    +0.000 A 
ATOM      3  C   UNL     1       1.989   9.658  17.936  0.00  0.00    +0.000 A 
ATOM      4  C   UNL     1       2.313   8.377  18.358  0.00  0.00    +0.000 A 
ATOM      5  C   UNL     1       1.785   7.877  19.547  0.00  0.00    +0.000 A 
ATOM      6  C   UNL     1       1.116   8.757  20.418  0.00  0.00    +0.000 A 
ENDROOT
BRANCH   1  15
ATOM      7  C   UNL     1      -0.645  15.468  20.517  0.00  0.00    +0.000 C 
ATOM      8  N   UNL     1      -0.913  14.560  21.593  0.00  0.00    +0.000 N 
ATOM      9  C   UNL     1      -1.594  14.865  22.787  0.00  0.00    +0.000 A 
ATOM     10  O   UNL     1      -2.046  15.943  23.133  0.00  0.00    +0.000 OA
ATOM     11  N   UNL     1      -1.665  13.674  23.520  0.00  0.00    +0.000 N 
ATOM     12  C   UNL     1      -1.055  12.661  22.801  0.00  0.00    +0.000 A 
ATOM     13  N   UNL     1      -0.950  11.386  23.165  0.00  0.00    +0.000 NA
ATOM     14  C   UNL     1      -0.325  10.611  22.237  0.00  0.00    +0.000 A 
ATOM     15  C   UNL     1       0.210  11.044  20.993  0.00  0.00    +0.000 A 
ATOM     16  C   UNL     1       0.065  12.409  20.691  0.00  0.00    +0.000 A 
ATOM     17  C   UNL     1      -0.586  13.201  21.611  0.00  0.00    +0.000 A 
ATOM     18  H   UNL     1      -2.099  13.566  24.418  0.00  0.00    +0.000 HD
ENDBRANCH   1  15
BRANCH   5  19
ATOM     19  C   UNL     1       1.953   6.455  19.969  0.00  0.00    +0.000 C 
ATOM     20  O   UNL     1       1.560   6.158  21.098  0.00  0.00    +0.000 OA
ATOM     21  N   UNL     1       2.501   5.507  19.102  0.00  0.00    +0.000 N 
ATOM     22  C   UNL     1       2.961   5.699  17.716  0.00  0.00    +0.000 C 
ATOM     23  C   UNL     1       4.458   5.392  17.640  0.00  0.00    +0.000 C 
ATOM     24  O   UNL     1       4.714   4.049  18.066  0.00  0.00    +0.000 OA
ATOM     25  C   UNL     1       4.263   3.811  19.419  0.00  0.00    +0.000 C 
ATOM     26  C   UNL     1       4.463   2.339  19.754  0.00  0.00    +0.000 C 
ATOM     27  O   UNL     1       3.795   1.524  18.799  0.00  0.00    +0.000 OA
ATOM     28  C   UNL     1       2.395   1.716  18.699  0.00  0.00    +0.000 C 
ATOM     29  C   UNL     1       1.830   3.111  18.968  0.00  0.00    +0.000 C 
ATOM     30  C   UNL     1       2.773   4.142  19.607  0.00  0.00    +0.000 C 
ENDBRANCH   5  19
TORSDOF 2
ENDMDL
MODEL 9
REMARK VINA RESULT:      -8.5      2.767      5.026
REMARK  Name = 
REMARK  3 active torsions:
REMARK  status: ('A' for Active; 'I' for Inactive)
REMARK    1  A    between atoms: C_1  and  N_2
REMARK    2  A    between atoms: C_9  and  C_10
REMARK    3  A    between atoms: C_14  and  C_15
REMARK                            x       y       z     vdW  Elec       q    Type
REMARK                         _______ _______ _______ _____ _____    ______ ____
ROOT
ATOM      1  C   UNL     1       1.294   8.820  19.030  0.00  0.00    +0.000 A 
ATOM      2  C   UNL     1       0.797   9.421  17.859  0.00  0.00    +0.000 A 
ATOM      3  C   UNL     1      -0.203  10.392  17.905  0.00  0.00    +0.000 A 
ATOM      4  C   UNL     1      -0.691  10.822  19.131  0.00  0.00    +0.000 A 
ATOM      5  C   UNL     1      -0.096  10.386  20.313  0.00  0.00    +0.000 A 
ATOM      6  C   UNL     1       0.844   9.340  20.257  0.00  0.00    +0.000 A 
ENDROOT
BRANCH   1  15
ATOM      7  C   UNL     1       5.268   6.578  15.783  0.00  0.00    +0.000 C 
ATOM      8  N   UNL     1       4.921   5.946  17.021  0.00  0.00    +0.000 N 
ATOM      9  C   UNL     1       5.532   4.803  17.571  0.00  0.00    +0.000 A 
ATOM     10  O   UNL     1       6.432   4.135  17.091  0.00  0.00    +0.000 OA
ATOM     11  N   UNL     1       4.908   4.570  18.803  0.00  0.00    +0.000 N 
ATOM     12  C   UNL     1       3.945   5.542  19.014  0.00  0.00    +0.000 A 
ATOM     13  N   UNL     1       3.167   5.663  20.086  0.00  0.00    +0.000 NA
ATOM     14  C   UNL     1       2.335   6.739  20.027  0.00  0.00    +0.000 A 
ATOM     15  C   UNL     1       2.230   7.672  18.961  0.00  0.00    +0.000 A 
ATOM     16  C   UNL     1       3.083   7.465  17.862  0.00  0.00    +0.000 A 
ATOM     17  C   UNL     1       3.946   6.393  17.917  0.00  0.00    +0.000 A 
ATOM     18  H   UNL     1       5.129   3.827  19.439  0.00  0.00    +0.000 HD
ENDBRANCH   1  15
BRANCH   5  19
ATOM     19  C   UNL     1      -0.459  10.940  21.651  0.00  0.00    +0.000 C 
ATOM     20  O   UNL     1       0.068  10.416  22.634  0.00  0.00    +0.000 OA
ATOM     21  N   UNL     1      -1.330  12.026  21.768  0.00  0.00    +0.000 N 
ATOM     22  C   UNL     1      -1.987  12.786  20.691  0.00  0.00    +0.000 C 
ATOM     23  C   UNL     1      -3.503  12.638  20.831  0.00  0.00    +0.000 C 
ATOM     24  O   UNL     1      -3.935  13.117  22.110  0.00  0.00    +0.000 OA
ATOM     25  C   UNL     1      -3.301  12.408  23.199  0.00  0.00    +0.000 C 
ATOM     26  C   UNL     1      -3.720  13.048  24.515  0.00  0.00    +0.000 C 
ATOM     27  O   UNL     1      -3.409  14.436  24.506  0.00  0.00    +0.000 OA
ATOM     28  C   UNL     1      -2.040  14.758  24.333  0.00  0.00    +0.000 C 
ATOM     29  C   UNL     1      -1.174  13.825  23.484  0.00  0.00    +0.000 C 
ATOM     30  C   UNL     1      -1.766  12.457  23.116  0.00  0.00    +0.000 C 
ENDBRANCH   5  19
TORSDOF 2
ENDMDL
