MODEL 1
REMARK VINA RESULT:      -9.1      0.000      0.000
REMARK  Name = 
REMARK  7 active torsions:
REMARK  status: ('A' for Active; 'I' for Inactive)
REMARK    1  A    between atoms: C_1  and  C_2
REMARK    2  A    between atoms: C_2  and  C_3
REMARK    3  A    between atoms: C_6  and  C_7
REMARK    4  A    between atoms: C_12  and  N_13
REMARK    5  A    between atoms: C_14  and  C_16
REMARK    6  A    between atoms: C_19  and  C_20
REMARK    7  A    between atoms: C_23  and  C_24
REMARK                            x       y       z     vdW  Elec       q    Type
REMARK                         _______ _______ _______ _____ _____    ______ ____
ROOT
ATOM      1  N   UNL     1       4.003   6.585  18.147  0.00  0.00    +0.000 N 
ATOM      2  C   UNL     1       2.621   6.704  18.219  0.00  0.00    +0.000 C 
ATOM      3  O   UNL     1       1.836   6.027  17.554  0.00  0.00    +0.000 OA
ATOM      4  H   UNL     1       4.590   7.003  18.866  0.00  0.00    +0.000 HD
ENDROOT
BRANCH   1  10
ATOM      5  C   UNL     1       5.043   4.448  17.472  0.00  0.00    +0.000 A 
ATOM      6  C   UNL     1       5.786   3.711  16.520  0.00  0.00    +0.000 A 
ATOM      7  C   UNL     1       6.109   4.245  15.274  0.00  0.00    +0.000 A 
ATOM      8  C   UNL     1       5.728   5.539  14.972  0.00  0.00    +0.000 A 
ATOM      9  C   UNL     1       5.059   6.306  15.926  0.00  0.00    +0.000 A 
ATOM     10  C   UNL     1       4.698   5.788  17.182  0.00  0.00    +0.000 A 
BRANCH   5  14
ATOM     11  C   UNL     1       3.461   2.869  20.249  0.00  0.00    +0.000 A 
ATOM     12  N   UNL     1       4.653   2.277  20.363  0.00  0.00    +0.000 NA
ATOM     13  N   UNL     1       5.324   2.840  19.354  0.00  0.00    +0.000 N 
ATOM     14  C   UNL     1       4.565   3.757  18.673  0.00  0.00    +0.000 A 
ATOM     15  N   UNL     1       3.362   3.781  19.222  0.00  0.00    +0.000 NA
ATOM     16  H   UNL     1       6.264   2.522  19.149  0.00  0.00    +0.000 HD
BRANCH  11  18
ATOM     17  C   UNL     1       1.142   3.432  20.911  0.00  0.00    +0.000 C 
ATOM     18  C   UNL     1       2.313   2.479  21.100  0.00  0.00    +0.000 C 
ENDBRANCH  11  18
ENDBRANCH   5  14
ENDBRANCH   1  10
BRANCH   2  19
ATOM     19  C   UNL     1       1.998   7.656  19.188  0.00  0.00    +0.000 A 
ATOM     20  C   UNL     1       1.780   7.423  20.547  0.00  0.00    +0.000 A 
ATOM     21  C   UNL     1       1.130   8.400  21.330  0.00  0.00    +0.000 A 
ATOM     22  C   UNL     1       0.689   9.610  20.767  0.00  0.00    +0.000 A 
ATOM     23  C   UNL     1       0.975   9.862  19.425  0.00  0.00    +0.000 A 
ATOM     24  C   UNL     1       1.616   8.899  18.652  0.00  0.00    +0.000 A 
BRANCH  22  25
ATOM     25  C   UNL     1      -0.083  10.576  21.543  0.00  0.00    +0.000 A 
ATOM     26  N   UNL     1      -0.070  10.784  22.844  0.00  0.00    +0.000 NA
ATOM     27  N   UNL     1      -0.980  11.780  23.136  0.00  0.00    +0.000 NA
ATOM     28  C   UNL     1      -1.550  12.151  22.011  0.00  0.00    +0.000 A 
ATOM     29  C   UNL     1      -2.601  13.166  21.803  0.00  0.00    +0.000 C 
ATOM     30  N   UNL     1      -1.020  11.416  20.992  0.00  0.00    +0.000 N 
ATOM     31  H   UNL     1      -1.288  11.455  20.020  0.00  0.00    +0.000 HD
ENDBRANCH  22  25
ENDBRANCH   2  19
TORSDOF 5
ENDMDL
MODEL 2
REMARK VINA RESULT:      -8.6      2.672      4.277
REMARK  Name = 
REMARK  7 active torsions:
REMARK  status: ('A' for Active; 'I' for Inactive)
REMARK    1  A    between atoms: C_1  and  C_2
REMARK    2  A    between atoms: C_2  and  C_3
REMARK    3  A    between atoms: C_6  and  C_7
REMARK    4  A    between atoms: C_12  and  N_13
REMARK    5  A    between atoms: C_14  and  C_16
REMARK    6  A    between atoms: C_19  and  C_20
REMARK    7  A    between atoms: C_23  and  C_24
REMARK                            x       y       z     vdW  Elec       q    Type
REMARK                         _______ _______ _______ _____ _____    ______ ____
ROOT
ATOM      1  N   UNL     1       2.370   5.786  18.231  0.00  0.00    +0.000 N 
ATOM      2  C   UNL     1       2.082   6.642  19.286  0.00  0.00    +0.000 C 
ATOM      3  O   UNL     1       2.023   6.287  20.463  0.00  0.00    +0.000 OA
ATOM      4  H   UNL     1       2.621   6.164  17.319  0.00  0.00    +0.000 HD
ENDROOT
BRANCH   1  10
ATOM      5  C   UNL     1       3.718   3.717  18.176  0.00  0.00    +0.000 A 
ATOM      6  C   UNL     1       3.770   2.304  18.234  0.00  0.00    +0.000 A 
ATOM      7  C   UNL     1       2.642   1.544  18.539  0.00  0.00    +0.000 A 
ATOM      8  C   UNL     1       1.434   2.181  18.756  0.00  0.00    +0.000 A 
ATOM      9  C   UNL     1       1.348   3.567  18.630  0.00  0.00    +0.000 A 
ATOM     10  C   UNL     1       2.473   4.363  18.347  0.00  0.00    +0.000 A 
BRANCH   5  14
ATOM     11  C   UNL     1       6.522   5.878  17.756  0.00  0.00    +0.000 A 
ATOM     12  N   UNL     1       7.128   4.941  18.491  0.00  0.00    +0.000 NA
ATOM     13  N   UNL     1       6.133   4.069  18.677  0.00  0.00    +0.000 N 
ATOM     14  C   UNL     1       4.976   4.459  18.051  0.00  0.00    +0.000 A 
ATOM     15  N   UNL     1       5.200   5.623  17.466  0.00  0.00    +0.000 NA
ATOM     16  H   UNL     1       6.286   3.266  19.276  0.00  0.00    +0.000 HD
BRANCH  11  18
ATOM     17  C   UNL     1       8.211   7.552  18.448  0.00  0.00    +0.000 C 
ATOM     18  C   UNL     1       7.205   7.138  17.383  0.00  0.00    +0.000 C 
ENDBRANCH  11  18
ENDBRANCH   5  14
ENDBRANCH   1  10
BRANCH   2  19
ATOM     19  C   UNL     1       1.878   8.101  19.036  0.00  0.00    +0.000 A 
ATOM     20  C   UNL     1       2.286   8.807  17.902  0.00  0.00    +0.000 A 
ATOM     21  C   UNL     1       2.071  10.199  17.830  0.00  0.00    +0.000 A 
ATOM     22  C   UNL     1       1.454  10.898  18.883  0.00  0.00    +0.000 A 
ATOM     23  C   UNL     1       0.987  10.172  19.979  0.00  0.00    +0.000 A 
ATOM     24  C   UNL     1       1.199   8.799  20.052  0.00  0.00    +0.000 A 
BRANCH  22  25
ATOM     25  C   UNL     1       1.329  12.352  18.863  0.00  0.00    +0.000 A 
ATOM     26  N   UNL     1       0.256  13.088  19.071  0.00  0.00    +0.000 NA
ATOM     27  N   UNL     1       0.604  14.417  18.927  0.00  0.00    +0.000 NA
ATOM     28  C   UNL     1       1.879  14.471  18.613  0.00  0.00    +0.000 A 
ATOM     29  C   UNL     1       2.709  15.659  18.336  0.00  0.00    +0.000 C 
ATOM     30  N   UNL     1       2.367  13.198  18.557  0.00  0.00    +0.000 N 
ATOM     31  H   UNL     1       3.304  12.925  18.304  0.00  0.00    +0.000 HD
ENDBRANCH  22  25
ENDBRANCH   2  19
TORSDOF 5
ENDMDL
MODEL 3
REMARK VINA RESULT:      -8.6      1.199      1.722
REMARK  Name = 
REMARK  7 active torsions:
REMARK  status: ('A' for Active; 'I' for Inactive)
REMARK    1  A    between atoms: C_1  and  C_2
REMARK    2  A    between atoms: C_2  and  C_3
REMARK    3  A    between atoms: C_6  and  C_7
REMARK    4  A    between atoms: C_12  and  N_13
REMARK    5  A    between atoms: C_14  and  C_16
REMARK    6  A    between atoms: C_19  and  C_20
REMARK    7  A    between atoms: C_23  and  C_24
REMARK                            x       y       z     vdW  Elec       q    Type
REMARK                         _______ _______ _______ _____ _____    ______ ____
ROOT
ATOM      1  N   UNL     1       3.926   6.799  18.508  0.00  0.00    +0.000 N 
ATOM      2  C   UNL     1       3.055   7.699  17.908  0.00  0.00    +0.000 C 
ATOM      3  O   UNL     1       2.965   7.862  16.691  0.00  0.00    +0.000 OA
ATOM      4  H   UNL     1       3.807   6.547  19.487  0.00  0.00    +0.000 HD
ENDROOT
BRANCH   1  10
ATOM      5  C   UNL     1       4.838   4.669  17.650  0.00  0.00    +0.000 A 
ATOM      6  C   UNL     1       5.892   3.972  17.014  0.00  0.00    +0.000 A 
ATOM      7  C   UNL     1       6.986   4.643  16.470  0.00  0.00    +0.000 A 
ATOM      8  C   UNL     1       7.064   6.018  16.585  0.00  0.00    +0.000 A 
ATOM      9  C   UNL     1       6.070   6.714  17.273  0.00  0.00    +0.000 A 
ATOM     10  C   UNL     1       4.943   6.069  17.812  0.00  0.00    +0.000 A 
BRANCH   5  14
ATOM     11  C   UNL     1       1.931   3.063  18.947  0.00  0.00    +0.000 A 
ATOM     12  N   UNL     1       1.682   2.862  17.650  0.00  0.00    +0.000 NA
ATOM     13  N   UNL     1       2.753   3.427  17.085  0.00  0.00    +0.000 N 
ATOM     14  C   UNL     1       3.628   3.926  18.016  0.00  0.00    +0.000 A 
ATOM     15  N   UNL     1       3.113   3.715  19.216  0.00  0.00    +0.000 NA
ATOM     16  H   UNL     1       2.804   3.488  16.075  0.00  0.00    +0.000 HD
BRANCH  11  18
ATOM     17  C   UNL     1       1.524   2.921  21.385  0.00  0.00    +0.000 C 
ATOM     18  C   UNL     1       0.948   2.702  19.994  0.00  0.00    +0.000 C 
ENDBRANCH  11  18
ENDBRANCH   5  14
ENDBRANCH   1  10
BRANCH   2  19
ATOM     19  C   UNL     1       2.109   8.499  18.742  0.00  0.00    +0.000 A 
ATOM     20  C   UNL     1       1.471   9.682  18.359  0.00  0.00    +0.000 A 
ATOM     21  C   UNL     1       0.642  10.359  19.278  0.00  0.00    +0.000 A 
ATOM     22  C   UNL     1       0.445   9.870  20.581  0.00  0.00    +0.000 A 
ATOM     23  C   UNL     1       1.029   8.652  20.929  0.00  0.00    +0.000 A 
ATOM     24  C   UNL     1       1.848   7.983  20.024  0.00  0.00    +0.000 A 
BRANCH  22  25
ATOM     25  C   UNL     1      -0.320  10.622  21.571  0.00  0.00    +0.000 A 
ATOM     26  N   UNL     1      -0.212  10.600  22.884  0.00  0.00    +0.000 NA
ATOM     27  N   UNL     1      -1.159  11.455  23.413  0.00  0.00    +0.000 NA
ATOM     28  C   UNL     1      -1.844  11.969  22.416  0.00  0.00    +0.000 A 
ATOM     29  C   UNL     1      -2.973  12.918  22.469  0.00  0.00    +0.000 C 
ATOM     30  N   UNL     1      -1.354  11.467  21.247  0.00  0.00    +0.000 N 
ATOM     31  H   UNL     1      -1.704  11.653  20.320  0.00  0.00    +0.000 HD
ENDBRANCH  22  25
ENDBRANCH   2  19
TORSDOF 5
ENDMDL
MODEL 4
REMARK VINA RESULT:      -8.6      2.660      4.176
REMARK  Name = 
REMARK  7 active torsions:
REMARK  status: ('A' for Active; 'I' for Inactive)
REMARK    1  A    between atoms: C_1  and  C_2
REMARK    2  A    between atoms: C_2  and  C_3
REMARK    3  A    between atoms: C_6  and  C_7
REMARK    4  A    between atoms: C_12  and  N_13
REMARK    5  A    between atoms: C_14  and  C_16
REMARK    6  A    between atoms: C_19  and  C_20
REMARK    7  A    between atoms: C_23  and  C_24
REMARK                            x       y       z     vdW  Elec       q    Type
REMARK                         _______ _______ _______ _____ _____    ______ ____
ROOT
ATOM      1  N   UNL     1       2.294   6.130  18.127  0.00  0.00    +0.000 N 
ATOM      2  C   UNL     1       2.180   6.799  19.340  0.00  0.00    +0.000 C 
ATOM      3  O   UNL     1       2.416   6.285  20.433  0.00  0.00    +0.000 OA
ATOM      4  H   UNL     1       2.303   6.653  17.254  0.00  0.00    +0.000 HD
ENDROOT
BRANCH   1  10
ATOM      5  C   UNL     1       3.789   4.251  17.546  0.00  0.00    +0.000 A 
ATOM      6  C   UNL     1       3.971   2.859  17.368  0.00  0.00    +0.000 A 
ATOM      7  C   UNL     1       2.976   1.944  17.706  0.00  0.00    +0.000 A 
ATOM      8  C   UNL     1       1.767   2.406  18.194  0.00  0.00    +0.000 A 
ATOM      9  C   UNL     1       1.544   3.778  18.307  0.00  0.00    +0.000 A 
ATOM     10  C   UNL     1       2.536   4.725  17.997  0.00  0.00    +0.000 A 
BRANCH   5  14
ATOM     11  C   UNL     1       6.681   6.335  17.542  0.00  0.00    +0.000 A 
ATOM     12  N   UNL     1       6.599   6.142  16.223  0.00  0.00    +0.000 NA
ATOM     13  N   UNL     1       5.509   5.374  16.136  0.00  0.00    +0.000 N 
ATOM     14  C   UNL     1       4.943   5.137  17.363  0.00  0.00    +0.000 A 
ATOM     15  N   UNL     1       5.687   5.732  18.280  0.00  0.00    +0.000 NA
ATOM     16  H   UNL     1       5.237   5.004  15.233  0.00  0.00    +0.000 HD
BRANCH  11  18
ATOM     17  C   UNL     1       7.877   8.499  17.684  0.00  0.00    +0.000 C 
ATOM     18  C   UNL     1       7.823   7.053  18.155  0.00  0.00    +0.000 C 
ENDBRANCH  11  18
ENDBRANCH   5  14
ENDBRANCH   1  10
BRANCH   2  19
ATOM     19  C   UNL     1       1.808   8.245  19.368  0.00  0.00    +0.000 A 
ATOM     20  C   UNL     1       1.191   8.916  20.427  0.00  0.00    +0.000 A 
ATOM     21  C   UNL     1       0.850  10.277  20.289  0.00  0.00    +0.000 A 
ATOM     22  C   UNL     1       1.114  10.978  19.100  0.00  0.00    +0.000 A 
ATOM     23  C   UNL     1       1.793  10.319  18.076  0.00  0.00    +0.000 A 
ATOM     24  C   UNL     1       2.130   8.975  18.210  0.00  0.00    +0.000 A 
BRANCH  22  25
ATOM     25  C   UNL     1       0.664  12.354  18.909  0.00  0.00    +0.000 A 
ATOM     26  N   UNL     1      -0.495  12.785  18.454  0.00  0.00    +0.000 NA
ATOM     27  N   UNL     1      -0.466  14.165  18.422  0.00  0.00    +0.000 NA
ATOM     28  C   UNL     1       0.718  14.555  18.839  0.00  0.00    +0.000 A 
ATOM     29  C   UNL     1       1.243  15.929  18.965  0.00  0.00    +0.000 C 
ATOM     30  N   UNL     1       1.457  13.451  19.148  0.00  0.00    +0.000 N 
ATOM     31  H   UNL     1       2.416  13.437  19.458  0.00  0.00    +0.000 HD
ENDBRANCH  22  25
ENDBRANCH   2  19
TORSDOF 5
ENDMDL
MODEL 5
REMARK VINA RESULT:      -8.5      1.010      1.377
REMARK  Name = 
REMARK  7 active torsions:
REMARK  status: ('A' for Active; 'I' for Inactive)
REMARK    1  A    between atoms: C_1  and  C_2
REMARK    2  A    between atoms: C_2  and  C_3
REMARK    3  A    between atoms: C_6  and  C_7
REMARK    4  A    between atoms: C_12  and  N_13
REMARK    5  A    between atoms: C_14  and  C_16
REMARK    6  A    between atoms: C_19  and  C_20
REMARK    7  A    between atoms: C_23  and  C_24
REMARK                            x       y       z     vdW  Elec       q    Type
REMARK                         _______ _______ _______ _____ _____    ______ ____
ROOT
ATOM      1  N   UNL     1       3.717   6.257  17.768  0.00  0.00    +0.000 N 
ATOM      2  C   UNL     1       3.166   7.497  17.471  0.00  0.00    +0.000 C 
ATOM      3  O   UNL     1       3.302   8.068  16.389  0.00  0.00    +0.000 OA
ATOM      4  H   UNL     1       3.396   5.736  18.582  0.00  0.00    +0.000 HD
ENDROOT
BRANCH   1  10
ATOM      5  C   UNL     1       5.021   4.231  17.224  0.00  0.00    +0.000 A 
ATOM      6  C   UNL     1       5.988   3.596  16.410  0.00  0.00    +0.000 A 
ATOM      7  C   UNL     1       6.511   4.219  15.278  0.00  0.00    +0.000 A 
ATOM      8  C   UNL     1       6.104   5.501  14.961  0.00  0.00    +0.000 A 
ATOM      9  C   UNL     1       5.207   6.170  15.794  0.00  0.00    +0.000 A 
ATOM     10  C   UNL     1       4.644   5.560  16.929  0.00  0.00    +0.000 A 
BRANCH   5  14
ATOM     11  C   UNL     1       3.359   2.716  19.991  0.00  0.00    +0.000 A 
ATOM     12  N   UNL     1       3.240   1.699  19.133  0.00  0.00    +0.000 NA
ATOM     13  N   UNL     1       3.867   2.186  18.058  0.00  0.00    +0.000 N 
ATOM     14  C   UNL     1       4.367   3.445  18.275  0.00  0.00    +0.000 A 
ATOM     15  N   UNL     1       4.041   3.809  19.504  0.00  0.00    +0.000 NA
ATOM     16  H   UNL     1       3.873   1.644  17.203  0.00  0.00    +0.000 HD
BRANCH  11  18
ATOM     17  C   UNL     1       1.202   2.879  21.195  0.00  0.00    +0.000 C 
ATOM     18  C   UNL     1       2.707   2.695  21.321  0.00  0.00    +0.000 C 
ENDBRANCH  11  18
ENDBRANCH   5  14
ENDBRANCH   1  10
BRANCH   2  19
ATOM     19  C   UNL     1       2.300   8.194  18.470  0.00  0.00    +0.000 A 
ATOM     20  C   UNL     1       1.608   9.390  18.267  0.00  0.00    +0.000 A 
ATOM     21  C   UNL     1       0.870   9.959  19.325  0.00  0.00    +0.000 A 
ATOM     22  C   UNL     1       0.818   9.348  20.590  0.00  0.00    +0.000 A 
ATOM     23  C   UNL     1       1.454   8.118  20.761  0.00  0.00    +0.000 A 
ATOM     24  C   UNL     1       2.184   7.555  19.718  0.00  0.00    +0.000 A 
BRANCH  22  25
ATOM     25  C   UNL     1       0.149   9.987  21.720  0.00  0.00    +0.000 A 
ATOM     26  N   UNL     1       0.334   9.781  23.008  0.00  0.00    +0.000 NA
ATOM     27  N   UNL     1      -0.538  10.592  23.708  0.00  0.00    +0.000 NA
ATOM     28  C   UNL     1      -1.255  11.265  22.836  0.00  0.00    +0.000 A 
ATOM     29  C   UNL     1      -2.333  12.240  23.089  0.00  0.00    +0.000 C 
ATOM     30  N   UNL     1      -0.860  10.909  21.580  0.00  0.00    +0.000 N 
ATOM     31  H   UNL     1      -1.255  11.233  20.711  0.00  0.00    +0.000 HD
ENDBRANCH  22  25
ENDBRANCH   2  19
TORSDOF 5
ENDMDL
MODEL 6
REMARK VINA RESULT:      -8.5      2.857      9.246
REMARK  Name = 
REMARK  7 active torsions:
REMARK  status: ('A' for Active; 'I' for Inactive)
REMARK    1  A    between atoms: C_1  and  C_2
REMARK    2  A    between atoms: C_2  and  C_3
REMARK    3  A    between atoms: C_6  and  C_7
REMARK    4  A    between atoms: C_12  and  N_13
REMARK    5  A    between atoms: C_14  and  C_16
REMARK    6  A    between atoms: C_19  and  C_20
REMARK    7  A    between atoms: C_23  and  C_24
REMARK                            x       y       z     vdW  Elec       q    Type
REMARK                         _______ _______ _______ _____ _____    ______ ____
ROOT
ATOM      1  N   UNL     1       0.678   9.828  19.747  0.00  0.00    +0.000 N 
ATOM      2  C   UNL     1       1.127   8.577  20.149  0.00  0.00    +0.000 C 
ATOM      3  O   UNL     1       0.720   7.988  21.151  0.00  0.00    +0.000 OA
ATOM      4  H   UNL     1       0.879  10.167  18.809  0.00  0.00    +0.000 HD
ENDROOT
BRANCH   1  10
ATOM      5  C   UNL     1      -1.257  11.355  19.911  0.00  0.00    +0.000 A 
ATOM      6  C   UNL     1      -2.051  12.224  20.696  0.00  0.00    +0.000 A 
ATOM      7  C   UNL     1      -1.854  12.349  22.070  0.00  0.00    +0.000 A 
ATOM      8  C   UNL     1      -0.838  11.635  22.678  0.00  0.00    +0.000 A 
ATOM      9  C   UNL     1       0.001  10.831  21.907  0.00  0.00    +0.000 A 
ATOM     10  C   UNL     1      -0.186  10.666  20.523  0.00  0.00    +0.000 A 
BRANCH   5  14
ATOM     11  C   UNL     1      -2.376  10.386  16.668  0.00  0.00    +0.000 A 
ATOM     12  N   UNL     1      -2.240  11.692  16.426  0.00  0.00    +0.000 NA
ATOM     13  N   UNL     1      -1.796  12.134  17.606  0.00  0.00    +0.000 N 
ATOM     14  C   UNL     1      -1.647  11.119  18.517  0.00  0.00    +0.000 A 
ATOM     15  N   UNL     1      -2.027   9.992  17.940  0.00  0.00    +0.000 NA
ATOM     16  H   UNL     1      -1.667  13.129  17.744  0.00  0.00    +0.000 HD
BRANCH  11  18
ATOM     17  C   UNL     1      -3.292  10.198  14.375  0.00  0.00    +0.000 C 
ATOM     18  C   UNL     1      -2.963   9.465  15.666  0.00  0.00    +0.000 C 
ENDBRANCH  11  18
ENDBRANCH   5  14
ENDBRANCH   1  10
BRANCH   2  19
ATOM     19  C   UNL     1       2.123   7.834  19.319  0.00  0.00    +0.000 A 
ATOM     20  C   UNL     1       2.678   6.587  19.618  0.00  0.00    +0.000 A 
ATOM     21  C   UNL     1       3.651   6.031  18.763  0.00  0.00    +0.000 A 
ATOM     22  C   UNL     1       4.082   6.709  17.609  0.00  0.00    +0.000 A 
ATOM     23  C   UNL     1       3.470   7.919  17.282  0.00  0.00    +0.000 A 
ATOM     24  C   UNL     1       2.510   8.470  18.125  0.00  0.00    +0.000 A 
BRANCH  22  25
ATOM     25  C   UNL     1       5.167   6.192  16.780  0.00  0.00    +0.000 A 
ATOM     26  N   UNL     1       6.418   6.600  16.715  0.00  0.00    +0.000 NA
ATOM     27  N   UNL     1       7.078   5.833  15.774  0.00  0.00    +0.000 NA
ATOM     28  C   UNL     1       6.214   4.984  15.264  0.00  0.00    +0.000 A 
ATOM     29  C   UNL     1       6.429   3.973  14.211  0.00  0.00    +0.000 C 
ATOM     30  N   UNL     1       5.004   5.182  15.863  0.00  0.00    +0.000 N 
ATOM     31  H   UNL     1       4.143   4.702  15.650  0.00  0.00    +0.000 HD
ENDBRANCH  22  25
ENDBRANCH   2  19
TORSDOF 5
ENDMDL
MODEL 7
REMARK VINA RESULT:      -8.5      2.549      4.094
REMARK  Name = 
REMARK  7 active torsions:
REMARK  status: ('A' for Active; 'I' for Inactive)
REMARK    1  A    between atoms: C_1  and  C_2
REMARK    2  A    between atoms: C_2  and  C_3
REMARK    3  A    between atoms: C_6  and  C_7
REMARK    4  A    between atoms: C_12  and  N_13
REMARK    5  A    between atoms: C_14  and  C_16
REMARK    6  A    between atoms: C_19  and  C_20
REMARK    7  A    between atoms: C_23  and  C_24
REMARK                            x       y       z     vdW  Elec       q    Type
REMARK                         _______ _______ _______ _____ _____    ______ ____
ROOT
ATOM      1  N   UNL     1       4.378   6.629  17.500  0.00  0.00    +0.000 N 
ATOM      2  C   UNL     1       3.113   6.413  18.030  0.00  0.00    +0.000 C 
ATOM      3  O   UNL     1       2.556   5.315  18.056  0.00  0.00    +0.000 OA
ATOM      4  H   UNL     1       4.875   7.495  17.700  0.00  0.00    +0.000 HD
ENDROOT
BRANCH   1  10
ATOM      5  C   UNL     1       6.523   5.803  16.595  0.00  0.00    +0.000 A 
ATOM      6  C   UNL     1       7.221   4.852  15.814  0.00  0.00    +0.000 A 
ATOM      7  C   UNL     1       6.584   3.730  15.289  0.00  0.00    +0.000 A 
ATOM      8  C   UNL     1       5.229   3.557  15.504  0.00  0.00    +0.000 A 
ATOM      9  C   UNL     1       4.509   4.522  16.208  0.00  0.00    +0.000 A 
ATOM     10  C   UNL     1       5.129   5.653  16.771  0.00  0.00    +0.000 A 
BRANCH   5  14
ATOM     11  C   UNL     1       8.146   8.634  18.029  0.00  0.00    +0.000 A 
ATOM     12  N   UNL     1       8.507   7.737  18.950  0.00  0.00    +0.000 NA
ATOM     13  N   UNL     1       7.946   6.624  18.467  0.00  0.00    +0.000 N 
ATOM     14  C   UNL     1       7.292   6.845  17.282  0.00  0.00    +0.000 A 
ATOM     15  N   UNL     1       7.396   8.130  16.990  0.00  0.00    +0.000 NA
ATOM     16  H   UNL     1       7.997   5.771  19.011  0.00  0.00    +0.000 HD
BRANCH  11  18
ATOM     17  C   UNL     1       9.430  10.310  19.324  0.00  0.00    +0.000 C 
ATOM     18  C   UNL     1       8.445  10.076  18.188  0.00  0.00    +0.000 C 
ENDBRANCH  11  18
ENDBRANCH   5  14
ENDBRANCH   1  10
BRANCH   2  19
ATOM     19  C   UNL     1       2.364   7.536  18.671  0.00  0.00    +0.000 A 
ATOM     20  C   UNL     1       1.956   8.717  18.045  0.00  0.00    +0.000 A 
ATOM     21  C   UNL     1       1.301   9.715  18.795  0.00  0.00    +0.000 A 
ATOM     22  C   UNL     1       1.050   9.550  20.168  0.00  0.00    +0.000 A 
ATOM     23  C   UNL     1       1.397   8.339  20.766  0.00  0.00    +0.000 A 
ATOM     24  C   UNL     1       2.044   7.353  20.028  0.00  0.00    +0.000 A 
BRANCH  22  25
ATOM     25  C   UNL     1       0.473  10.623  20.973  0.00  0.00    +0.000 A 
ATOM     26  N   UNL     1       0.984  11.805  21.256  0.00  0.00    +0.000 NA
ATOM     27  N   UNL     1       0.095  12.480  22.070  0.00  0.00    +0.000 NA
ATOM     28  C   UNL     1      -0.934  11.692  22.289  0.00  0.00    +0.000 A 
ATOM     29  C   UNL     1      -2.131  11.950  23.112  0.00  0.00    +0.000 C 
ATOM     30  N   UNL     1      -0.732  10.518  21.624  0.00  0.00    +0.000 N 
ATOM     31  H   UNL     1      -1.335   9.710  21.636  0.00  0.00    +0.000 HD
ENDBRANCH  22  25
ENDBRANCH   2  19
TORSDOF 5
ENDMDL
MODEL 8
REMARK VINA RESULT:      -8.5      2.625      4.120
REMARK  Name = 
REMARK  7 active torsions:
REMARK  status: ('A' for Active; 'I' for Inactive)
REMARK    1  A    between atoms: C_1  and  C_2
REMARK    2  A    between atoms: C_2  and  C_3
REMARK    3  A    between atoms: C_6  and  C_7
REMARK    4  A    between atoms: C_12  and  N_13
REMARK    5  A    between atoms: C_14  and  C_16
REMARK    6  A    between atoms: C_19  and  C_20
REMARK    7  A    between atoms: C_23  and  C_24
REMARK                            x       y       z     vdW  Elec       q    Type
REMARK                         _______ _______ _______ _____ _____    ______ ____
ROOT
ATOM      1  N   UNL     1       2.630   5.831  18.090  0.00  0.00    +0.000 N 
ATOM      2  C   UNL     1       2.202   6.635  19.139  0.00  0.00    +0.000 C 
ATOM      3  O   UNL     1       2.019   6.228  20.287  0.00  0.00    +0.000 OA
ATOM      4  H   UNL     1       2.974   6.253  17.230  0.00  0.00    +0.000 HD
ENDROOT
BRANCH   1  10
ATOM      5  C   UNL     1       3.995   3.781  17.902  0.00  0.00    +0.000 A 
ATOM      6  C   UNL     1       4.066   2.368  17.918  0.00  0.00    +0.000 A 
ATOM      7  C   UNL     1       2.966   1.586  18.263  0.00  0.00    +0.000 A 
ATOM      8  C   UNL     1       1.765   2.201  18.564  0.00  0.00    +0.000 A 
ATOM      9  C   UNL     1       1.657   3.589  18.483  0.00  0.00    +0.000 A 
ATOM     10  C   UNL     1       2.755   4.406  18.160  0.00  0.00    +0.000 A 
BRANCH   5  14
ATOM     11  C   UNL     1       6.920   5.819  17.886  0.00  0.00    +0.000 A 
ATOM     12  N   UNL     1       7.312   4.939  16.961  0.00  0.00    +0.000 NA
ATOM     13  N   UNL     1       6.245   4.138  16.892  0.00  0.00    +0.000 N 
ATOM     14  C   UNL     1       5.237   4.542  17.730  0.00  0.00    +0.000 A 
ATOM     15  N   UNL     1       5.654   5.611  18.387  0.00  0.00    +0.000 NA
ATOM     16  H   UNL     1       6.284   3.313  16.304  0.00  0.00    +0.000 HD
BRANCH  11  18
ATOM     17  C   UNL     1       7.731   8.137  17.567  0.00  0.00    +0.000 C 
ATOM     18  C   UNL     1       7.832   6.868  18.400  0.00  0.00    +0.000 C 
ENDBRANCH  11  18
ENDBRANCH   5  14
ENDBRANCH   1  10
BRANCH   2  19
ATOM     19  C   UNL     1       1.991   8.098  18.926  0.00  0.00    +0.000 A 
ATOM     20  C   UNL     1       2.369   8.830  17.798  0.00  0.00    +0.000 A 
ATOM     21  C   UNL     1       2.152  10.222  17.761  0.00  0.00    +0.000 A 
ATOM     22  C   UNL     1       1.563  10.898  18.845  0.00  0.00    +0.000 A 
ATOM     23  C   UNL     1       1.124  10.148  19.936  0.00  0.00    +0.000 A 
ATOM     24  C   UNL     1       1.339   8.773  19.974  0.00  0.00    +0.000 A 
BRANCH  22  25
ATOM     25  C   UNL     1       1.436  12.352  18.860  0.00  0.00    +0.000 A 
ATOM     26  N   UNL     1       2.381  13.261  18.726  0.00  0.00    +0.000 NA
ATOM     27  N   UNL     1       1.802  14.510  18.831  0.00  0.00    +0.000 NA
ATOM     28  C   UNL     1       0.516  14.345  19.048  0.00  0.00    +0.000 A 
ATOM     29  C   UNL     1      -0.523  15.373  19.252  0.00  0.00    +0.000 C 
ATOM     30  N   UNL     1       0.249  13.007  19.080  0.00  0.00    +0.000 N 
ATOM     31  H   UNL     1      -0.644  12.577  19.264  0.00  0.00    +0.000 HD
ENDBRANCH  22  25
ENDBRANCH   2  19
TORSDOF 5
ENDMDL
MODEL 9
REMARK VINA RESULT:      -8.5      0.498      1.034
REMARK  Name = 
REMARK  7 active torsions:
REMARK  status: ('A' for Active; 'I' for Inactive)
REMARK    1  A    between atoms: C_1  and  C_2
REMARK    2  A    between atoms: C_2  and  C_3
REMARK    3  A    between atoms: C_6  and  C_7
REMARK    4  A    between atoms: C_12  and  N_13
REMARK    5  A    between atoms: C_14  and  C_16
REMARK    6  A    between atoms: C_19  and  C_20
REMARK    7  A    between atoms: C_23  and  C_24
REMARK                            x       y       z     vdW  Elec       q    Type
REMARK                         _______ _______ _______ _____ _____    ______ ____
ROOT
ATOM      1  N   UNL     1       4.067   6.634  17.963  0.00  0.00    +0.000 N 
ATOM      2  C   UNL     1       2.680   6.700  17.929  0.00  0.00    +0.000 C 
ATOM      3  O   UNL     1       1.971   5.939  17.269  0.00  0.00    +0.000 OA
ATOM      4  H   UNL     1       4.585   7.132  18.684  0.00  0.00    +0.000 HD
ENDROOT
BRANCH   1  10
ATOM      5  C   UNL     1       5.201   4.484  17.525  0.00  0.00    +0.000 A 
ATOM      6  C   UNL     1       6.039   3.704  16.693  0.00  0.00    +0.000 A 
ATOM      7  C   UNL     1       6.462   4.165  15.447  0.00  0.00    +0.000 A 
ATOM      8  C   UNL     1       6.085   5.427  15.027  0.00  0.00    +0.000 A 
ATOM      9  C   UNL     1       5.321   6.238  15.866  0.00  0.00    +0.000 A 
ATOM     10  C   UNL     1       4.859   5.793  17.118  0.00  0.00    +0.000 A 
BRANCH   5  14
ATOM     11  C   UNL     1       3.410   3.096  20.277  0.00  0.00    +0.000 A 
ATOM     12  N   UNL     1       4.550   2.422  20.449  0.00  0.00    +0.000 NA
ATOM     13  N   UNL     1       5.296   2.908  19.452  0.00  0.00    +0.000 N 
ATOM     14  C   UNL     1       4.631   3.861  18.724  0.00  0.00    +0.000 A 
ATOM     15  N   UNL     1       3.415   3.987  19.227  0.00  0.00    +0.000 NA
ATOM     16  H   UNL     1       6.216   2.517  19.289  0.00  0.00    +0.000 HD
BRANCH  11  18
ATOM     17  C   UNL     1       1.038   3.690  20.670  0.00  0.00    +0.000 C 
ATOM     18  C   UNL     1       2.207   2.813  21.094  0.00  0.00    +0.000 C 
ENDBRANCH  11  18
ENDBRANCH   5  14
ENDBRANCH   1  10
BRANCH   2  19
ATOM     19  C   UNL     1       1.954   7.698  18.770  0.00  0.00    +0.000 A 
ATOM     20  C   UNL     1       1.394   8.898  18.325  0.00  0.00    +0.000 A 
ATOM     21  C   UNL     1       0.783   9.770  19.249  0.00  0.00    +0.000 A 
ATOM     22  C   UNL     1       0.726   9.459  20.619  0.00  0.00    +0.000 A 
ATOM     23  C   UNL     1       1.224   8.226  21.042  0.00  0.00    +0.000 A 
ATOM     24  C   UNL     1       1.829   7.365  20.131  0.00  0.00    +0.000 A 
BRANCH  22  25
ATOM     25  C   UNL     1       0.195  10.406  21.595  0.00  0.00    +0.000 A 
ATOM     26  N   UNL     1      -0.006  10.230  22.886  0.00  0.00    +0.000 NA
ATOM     27  N   UNL     1      -0.547  11.390  23.404  0.00  0.00    +0.000 NA
ATOM     28  C   UNL     1      -0.687  12.248  22.419  0.00  0.00    +0.000 A 
ATOM     29  C   UNL     1      -1.240  13.616  22.461  0.00  0.00    +0.000 C 
ATOM     30  N   UNL     1      -0.240  11.667  21.269  0.00  0.00    +0.000 N 
ATOM     31  H   UNL     1      -0.258  12.072  20.345  0.00  0.00    +0.000 HD
ENDBRANCH  22  25
ENDBRANCH   2  19
TORSDOF 5
ENDMDL
