MODEL 1
REMARK VINA RESULT:      -9.1      0.000      0.000
REMARK  Name = 
REMARK  7 active torsions:
REMARK  status: ('A' for Active; 'I' for Inactive)
REMARK    1  A    between atoms: C_1  and  N_2
REMARK    2  A    between atoms: C_6  and  C_7
REMARK    3  A    between atoms: C_7  and  C_8
REMARK    4  A    between atoms: C_8  and  C_9
REMARK    5  A    between atoms: C_9  and  C_10
REMARK    6  A    between atoms: C_14  and  N_15
REMARK    7  A    between atoms: C_22  and  C_23
REMARK                            x       y       z     vdW  Elec       q    Type
REMARK                         _______ _______ _______ _____ _____    ______ ____
ROOT
ATOM      1  C   UNL     1       3.765   4.482  17.561  0.00  0.00    +0.000 A 
ATOM      2  C   UNL     1       3.553   3.439  18.469  0.00  0.00    +0.000 A 
ATOM      3  C   UNL     1       2.838   3.668  19.636  0.00  0.00    +0.000 A 
ATOM      4  C   UNL     1       2.336   4.941  19.908  0.00  0.00    +0.000 A 
ATOM      5  C   UNL     1       2.535   6.020  19.033  0.00  0.00    +0.000 A 
ATOM      6  C   UNL     1       3.245   5.765  17.847  0.00  0.00    +0.000 A 
ENDROOT
BRANCH   5   7
ATOM      7  N   UNL     1       2.077   7.327  19.375  0.00  0.00    +0.000 N 
ATOM      8  C   UNL     1       1.476   7.671  20.667  0.00  0.00    +0.000 C 
ATOM      9  C   UNL     1       1.010   9.086  20.465  0.00  0.00    +0.000 A 
ATOM     10  C   UNL     1       1.347   9.487  19.180  0.00  0.00    +0.000 A 
ATOM     11  C   UNL     1       1.016  10.728  18.692  0.00  0.00    +0.000 A 
ATOM     12  N   UNL     1       0.352  11.619  19.458  0.00  0.00    +0.000 NA
ATOM     13  C   UNL     1       0.036  11.231  20.725  0.00  0.00    +0.000 A 
ATOM     14  C   UNL     1       0.337   9.984  21.284  0.00  0.00    +0.000 A 
ATOM     15  C   UNL     1       2.032   8.409  18.492  0.00  0.00    +0.000 C 
ATOM     16  O   UNL     1       2.442   8.558  17.358  0.00  0.00    +0.000 OA
BRANCH  14  17
ATOM     17  C   UNL     1      -0.077   9.722  22.696  0.00  0.00    +0.000 C 
ATOM     18  F   UNL     1      -0.951   8.690  22.825  0.00  0.00    +0.000 F 
ATOM     19  F   UNL     1       0.985   9.422  23.493  0.00  0.00    +0.000 F 
ATOM     20  F   UNL     1      -0.677  10.800  23.266  0.00  0.00    +0.000 F 
ENDBRANCH  14  17
ENDBRANCH   5   7
BRANCH   1  21
ATOM     21  C   UNL     1       4.601   4.228  16.329  0.00  0.00    +0.000 C 
BRANCH  21  22
ATOM     22  C   UNL     1       5.352   5.449  15.774  0.00  0.00    +0.000 C 
BRANCH  22  23
ATOM     23  C   UNL     1       6.879   5.399  15.889  0.00  0.00    +0.000 C 
BRANCH  23  29
ATOM     24  C   UNL     1       7.510   8.044  17.480  0.00  0.00    +0.000 C 
ATOM     25  N   UNL     1       7.645   6.695  17.954  0.00  0.00    +0.000 N 
ATOM     26  C   UNL     1       8.080   6.330  19.194  0.00  0.00    +0.000 A 
ATOM     27  N   UNL     1       8.062   5.024  19.299  0.00  0.00    +0.000 NA
ATOM     28  N   UNL     1       7.603   4.519  18.111  0.00  0.00    +0.000 NA
ATOM     29  C   UNL     1       7.369   5.526  17.290  0.00  0.00    +0.000 A 
ENDBRANCH  23  29
ENDBRANCH  22  23
ENDBRANCH  21  22
ENDBRANCH   1  21
TORSDOF 6
ENDMDL
MODEL 2
REMARK VINA RESULT:      -8.9      2.154      3.011
REMARK  Name = 
REMARK  7 active torsions:
REMARK  status: ('A' for Active; 'I' for Inactive)
REMARK    1  A    between atoms: C_1  and  N_2
REMARK    2  A    between atoms: C_6  and  C_7
REMARK    3  A    between atoms: C_7  and  C_8
REMARK    4  A    between atoms: C_8  and  C_9
REMARK    5  A    between atoms: C_9  and  C_10
REMARK    6  A    between atoms: C_14  and  N_15
REMARK    7  A    between atoms: C_22  and  C_23
REMARK                            x       y       z     vdW  Elec       q    Type
REMARK                         _______ _______ _______ _____ _____    ______ ____
ROOT
ATOM      1  C   UNL     1       4.336   6.047  17.215  0.00  0.00    +0.000 A 
ATOM      2  C   UNL     1       3.783   4.788  17.475  0.00  0.00    +0.000 A 
ATOM      3  C   UNL     1       2.620   4.681  18.222  0.00  0.00    +0.000 A 
ATOM      4  C   UNL     1       2.003   5.829  18.721  0.00  0.00    +0.000 A 
ATOM      5  C   UNL     1       2.528   7.110  18.497  0.00  0.00    +0.000 A 
ATOM      6  C   UNL     1       3.697   7.201  17.722  0.00  0.00    +0.000 A 
ENDROOT
BRANCH   5   7
ATOM      7  N   UNL     1       1.919   8.259  19.086  0.00  0.00    +0.000 N 
ATOM      8  C   UNL     1       1.336   8.276  20.430  0.00  0.00    +0.000 C 
ATOM      9  C   UNL     1       0.681   9.627  20.504  0.00  0.00    +0.000 A 
ATOM     10  C   UNL     1       0.905  10.298  19.310  0.00  0.00    +0.000 A 
ATOM     11  C   UNL     1       0.394  11.550  19.069  0.00  0.00    +0.000 A 
ATOM     12  N   UNL     1      -0.346  12.187  20.000  0.00  0.00    +0.000 NA
ATOM     13  C   UNL     1      -0.553  11.536  21.179  0.00  0.00    +0.000 A 
ATOM     14  C   UNL     1      -0.066  10.261  21.489  0.00  0.00    +0.000 A 
ATOM     15  C   UNL     1       1.694   9.467  18.420  0.00  0.00    +0.000 C 
ATOM     16  O   UNL     1       2.031   9.874  17.326  0.00  0.00    +0.000 OA
BRANCH  14  17
ATOM     17  C   UNL     1      -0.380   9.693  22.835  0.00  0.00    +0.000 C 
ATOM     18  F   UNL     1      -1.227  10.462  23.568  0.00  0.00    +0.000 F 
ATOM     19  F   UNL     1      -0.961   8.465  22.750  0.00  0.00    +0.000 F 
ATOM     20  F   UNL     1       0.733   9.525  23.597  0.00  0.00    +0.000 F 
ENDBRANCH  14  17
ENDBRANCH   5   7
BRANCH   1  21
ATOM     21  C   UNL     1       5.639   6.138  16.455  0.00  0.00    +0.000 C 
BRANCH  21  22
ATOM     22  C   UNL     1       6.516   4.877  16.493  0.00  0.00    +0.000 C 
BRANCH  22  23
ATOM     23  C   UNL     1       6.403   3.950  15.278  0.00  0.00    +0.000 C 
BRANCH  23  29
ATOM     24  C   UNL     1       5.720   3.213  12.293  0.00  0.00    +0.000 C 
ATOM     25  N   UNL     1       6.679   4.181  12.748  0.00  0.00    +0.000 N 
ATOM     26  C   UNL     1       7.468   4.953  11.948  0.00  0.00    +0.000 A 
ATOM     27  N   UNL     1       8.210   5.739  12.689  0.00  0.00    +0.000 NA
ATOM     28  N   UNL     1       7.900   5.485  13.999  0.00  0.00    +0.000 NA
ATOM     29  C   UNL     1       6.990   4.531  14.038  0.00  0.00    +0.000 A 
ENDBRANCH  23  29
ENDBRANCH  22  23
ENDBRANCH  21  22
ENDBRANCH   1  21
TORSDOF 6
ENDMDL
MODEL 3
REMARK VINA RESULT:      -8.8      1.867      2.608
REMARK  Name = 
REMARK  7 active torsions:
REMARK  status: ('A' for Active; 'I' for Inactive)
REMARK    1  A    between atoms: C_1  and  N_2
REMARK    2  A    between atoms: C_6  and  C_7
REMARK    3  A    between atoms: C_7  and  C_8
REMARK    4  A    between atoms: C_8  and  C_9
REMARK    5  A    between atoms: C_9  and  C_10
REMARK    6  A    between atoms: C_14  and  N_15
REMARK    7  A    between atoms: C_22  and  C_23
REMARK                            x       y       z     vdW  Elec       q    Type
REMARK                         _______ _______ _______ _____ _____    ______ ____
ROOT
ATOM      1  C   UNL     1       4.476   4.480  18.665  0.00  0.00    +0.000 A 
ATOM      2  C   UNL     1       3.646   3.376  18.891  0.00  0.00    +0.000 A 
ATOM      3  C   UNL     1       2.327   3.567  19.276  0.00  0.00    +0.000 A 
ATOM      4  C   UNL     1       1.829   4.859  19.444  0.00  0.00    +0.000 A 
ATOM      5  C   UNL     1       2.627   5.995  19.241  0.00  0.00    +0.000 A 
ATOM      6  C   UNL     1       3.955   5.783  18.832  0.00  0.00    +0.000 A 
ENDROOT
BRANCH   5   7
ATOM      7  N   UNL     1       2.112   7.301  19.495  0.00  0.00    +0.000 N 
ATOM      8  C   UNL     1       1.472   7.696  20.752  0.00  0.00    +0.000 C 
ATOM      9  C   UNL     1       0.957   9.078  20.457  0.00  0.00    +0.000 A 
ATOM     10  C   UNL     1       1.304   9.415  19.157  0.00  0.00    +0.000 A 
ATOM     11  C   UNL     1       0.937  10.611  18.590  0.00  0.00    +0.000 A 
ATOM     12  N   UNL     1       0.223  11.519  19.288  0.00  0.00    +0.000 NA
ATOM     13  C   UNL     1      -0.104  11.195  20.570  0.00  0.00    +0.000 A 
ATOM     14  C   UNL     1       0.233   9.995  21.208  0.00  0.00    +0.000 A 
ATOM     15  C   UNL     1       2.044   8.326  18.547  0.00  0.00    +0.000 C 
ATOM     16  O   UNL     1       2.472   8.423  17.414  0.00  0.00    +0.000 OA
BRANCH  14  17
ATOM     17  C   UNL     1      -0.200   9.802  22.625  0.00  0.00    +0.000 C 
ATOM     18  F   UNL     1      -0.956   8.690  22.817  0.00  0.00    +0.000 F 
ATOM     19  F   UNL     1       0.859   9.691  23.473  0.00  0.00    +0.000 F 
ATOM     20  F   UNL     1      -0.938  10.846  23.087  0.00  0.00    +0.000 F 
ENDBRANCH  14  17
ENDBRANCH   5   7
BRANCH   1  21
ATOM     21  C   UNL     1       5.927   4.250  18.310  0.00  0.00    +0.000 C 
BRANCH  21  22
ATOM     22  C   UNL     1       6.411   4.942  17.026  0.00  0.00    +0.000 C 
BRANCH  22  23
ATOM     23  C   UNL     1       5.975   4.286  15.712  0.00  0.00    +0.000 C 
BRANCH  23  29
ATOM     24  C   UNL     1       5.694   3.346  12.718  0.00  0.00    +0.000 C 
ATOM     25  N   UNL     1       6.669   4.256  13.252  0.00  0.00    +0.000 N 
ATOM     26  C   UNL     1       7.652   4.873  12.538  0.00  0.00    +0.000 A 
ATOM     27  N   UNL     1       8.349   5.650  13.331  0.00  0.00    +0.000 NA
ATOM     28  N   UNL     1       7.812   5.549  14.587  0.00  0.00    +0.000 NA
ATOM     29  C   UNL     1       6.809   4.692  14.546  0.00  0.00    +0.000 A 
ENDBRANCH  23  29
ENDBRANCH  22  23
ENDBRANCH  21  22
ENDBRANCH   1  21
TORSDOF 6
ENDMDL
MODEL 4
REMARK VINA RESULT:      -8.7      0.816      1.488
REMARK  Name = 
REMARK  7 active torsions:
REMARK  status: ('A' for Active; 'I' for Inactive)
REMARK    1  A    between atoms: C_1  and  N_2
REMARK    2  A    between atoms: C_6  and  C_7
REMARK    3  A    between atoms: C_7  and  C_8
REMARK    4  A    between atoms: C_8  and  C_9
REMARK    5  A    between atoms: C_9  and  C_10
REMARK    6  A    between atoms: C_14  and  N_15
REMARK    7  A    between atoms: C_22  and  C_23
REMARK                            x       y       z     vdW  Elec       q    Type
REMARK                         _______ _______ _______ _____ _____    ______ ____
ROOT
ATOM      1  C   UNL     1       3.530   3.792  18.394  0.00  0.00    +0.000 A 
ATOM      2  C   UNL     1       3.331   2.901  19.454  0.00  0.00    +0.000 A 
ATOM      3  C   UNL     1       2.691   3.327  20.609  0.00  0.00    +0.000 A 
ATOM      4  C   UNL     1       2.251   4.647  20.717  0.00  0.00    +0.000 A 
ATOM      5  C   UNL     1       2.441   5.579  19.685  0.00  0.00    +0.000 A 
ATOM      6  C   UNL     1       3.073   5.125  18.515  0.00  0.00    +0.000 A 
ENDROOT
BRANCH   5   7
ATOM      7  N   UNL     1       2.050   6.940  19.855  0.00  0.00    +0.000 N 
ATOM      8  C   UNL     1       1.388   7.457  21.056  0.00  0.00    +0.000 C 
ATOM      9  C   UNL     1       1.034   8.868  20.674  0.00  0.00    +0.000 A 
ATOM     10  C   UNL     1       1.483   9.107  19.383  0.00  0.00    +0.000 A 
ATOM     11  C   UNL     1       1.270  10.305  18.746  0.00  0.00    +0.000 A 
ATOM     12  N   UNL     1       0.618  11.312  19.364  0.00  0.00    +0.000 NA
ATOM     13  C   UNL     1       0.191  11.083  20.638  0.00  0.00    +0.000 A 
ATOM     14  C   UNL     1       0.370   9.888  21.344  0.00  0.00    +0.000 A 
ATOM     15  C   UNL     1       2.138   7.921  18.863  0.00  0.00    +0.000 C 
ATOM     16  O   UNL     1       2.632   7.921  17.753  0.00  0.00    +0.000 OA
BRANCH  14  17
ATOM     17  C   UNL     1      -0.155   9.806  22.740  0.00  0.00    +0.000 C 
ATOM     18  F   UNL     1      -0.742  10.953  23.170  0.00  0.00    +0.000 F 
ATOM     19  F   UNL     1      -1.090   8.827  22.879  0.00  0.00    +0.000 F 
ATOM     20  F   UNL     1       0.821   9.520  23.643  0.00  0.00    +0.000 F 
ENDBRANCH  14  17
ENDBRANCH   5   7
BRANCH   1  21
ATOM     21  C   UNL     1       4.286   3.326  17.171  0.00  0.00    +0.000 C 
BRANCH  21  22
ATOM     22  C   UNL     1       5.225   4.364  16.539  0.00  0.00    +0.000 C 
BRANCH  22  23
ATOM     23  C   UNL     1       6.654   4.393  17.092  0.00  0.00    +0.000 C 
BRANCH  23  29
ATOM     24  C   UNL     1       7.948   5.526  19.731  0.00  0.00    +0.000 C 
ATOM     25  N   UNL     1       7.713   6.239  18.506  0.00  0.00    +0.000 N 
ATOM     26  C   UNL     1       8.014   7.549  18.282  0.00  0.00    +0.000 A 
ATOM     27  N   UNL     1       7.686   7.871  17.054  0.00  0.00    +0.000 NA
ATOM     28  N   UNL     1       7.165   6.753  16.458  0.00  0.00    +0.000 NA
ATOM     29  C   UNL     1       7.162   5.771  17.340  0.00  0.00    +0.000 A 
ENDBRANCH  23  29
ENDBRANCH  22  23
ENDBRANCH  21  22
ENDBRANCH   1  21
TORSDOF 6
ENDMDL
MODEL 5
REMARK VINA RESULT:      -8.6      0.860      1.507
REMARK  Name = 
REMARK  7 active torsions:
REMARK  status: ('A' for Active; 'I' for Inactive)
REMARK    1  A    between atoms: C_1  and  N_2
REMARK    2  A    between atoms: C_6  and  C_7
REMARK    3  A    between atoms: C_7  and  C_8
REMARK    4  A    between atoms: C_8  and  C_9
REMARK    5  A    between atoms: C_9  and  C_10
REMARK    6  A    between atoms: C_14  and  N_15
REMARK    7  A    between atoms: C_22  and  C_23
REMARK                            x       y       z     vdW  Elec       q    Type
REMARK                         _______ _______ _______ _____ _____    ______ ____
ROOT
ATOM      1  C   UNL     1       4.052   5.408  17.541  0.00  0.00    +0.000 A 
ATOM      2  C   UNL     1       4.053   4.332  18.436  0.00  0.00    +0.000 A 
ATOM      3  C   UNL     1       3.360   4.426  19.634  0.00  0.00    +0.000 A 
ATOM      4  C   UNL     1       2.667   5.595  19.950  0.00  0.00    +0.000 A 
ATOM      5  C   UNL     1       2.650   6.703  19.090  0.00  0.00    +0.000 A 
ATOM      6  C   UNL     1       3.341   6.584  17.872  0.00  0.00    +0.000 A 
ENDROOT
BRANCH   5   7
ATOM      7  N   UNL     1       1.998   7.912  19.475  0.00  0.00    +0.000 N 
ATOM      8  C   UNL     1       1.404   8.136  20.796  0.00  0.00    +0.000 C 
ATOM      9  C   UNL     1       0.704   9.457  20.640  0.00  0.00    +0.000 A 
ATOM     10  C   UNL     1       0.915   9.925  19.350  0.00  0.00    +0.000 A 
ATOM     11  C   UNL     1       0.364  11.100  18.900  0.00  0.00    +0.000 A 
ATOM     12  N   UNL     1      -0.404  11.859  19.708  0.00  0.00    +0.000 NA
ATOM     13  C   UNL     1      -0.598  11.409  20.980  0.00  0.00    +0.000 A 
ATOM     14  C   UNL     1      -0.072  10.222  21.502  0.00  0.00    +0.000 A 
ATOM     15  C   UNL     1       1.738   8.983  18.615  0.00  0.00    +0.000 C 
ATOM     16  O   UNL     1       2.070   9.211  17.469  0.00  0.00    +0.000 OA
BRANCH  14  17
ATOM     17  C   UNL     1      -0.377   9.878  22.924  0.00  0.00    +0.000 C 
ATOM     18  F   UNL     1       0.728   9.628  23.673  0.00  0.00    +0.000 F 
ATOM     19  F   UNL     1      -1.048  10.878  23.559  0.00  0.00    +0.000 F 
ATOM     20  F   UNL     1      -1.165   8.776  23.031  0.00  0.00    +0.000 F 
ENDBRANCH  14  17
ENDBRANCH   5   7
BRANCH   1  21
ATOM     21  C   UNL     1       4.866   5.310  16.272  0.00  0.00    +0.000 C 
BRANCH  21  22
ATOM     22  C   UNL     1       5.846   4.129  16.203  0.00  0.00    +0.000 C 
BRANCH  22  23
ATOM     23  C   UNL     1       7.242   4.388  16.778  0.00  0.00    +0.000 C 
BRANCH  23  29
ATOM     24  C   UNL     1       7.576   5.569  19.679  0.00  0.00    +0.000 C 
ATOM     25  N   UNL     1       7.598   6.296  18.440  0.00  0.00    +0.000 N 
ATOM     26  C   UNL     1       7.767   7.643  18.314  0.00  0.00    +0.000 A 
ATOM     27  N   UNL     1       7.755   7.970  17.045  0.00  0.00    +0.000 NA
ATOM     28  N   UNL     1       7.581   6.819  16.322  0.00  0.00    +0.000 NA
ATOM     29  C   UNL     1       7.466   5.809  17.164  0.00  0.00    +0.000 A 
ENDBRANCH  23  29
ENDBRANCH  22  23
ENDBRANCH  21  22
ENDBRANCH   1  21
TORSDOF 6
ENDMDL
MODEL 6
REMARK VINA RESULT:      -8.5      4.311      8.716
REMARK  Name = 
REMARK  7 active torsions:
REMARK  status: ('A' for Active; 'I' for Inactive)
REMARK    1  A    between atoms: C_1  and  N_2
REMARK    2  A    between atoms: C_6  and  C_7
REMARK    3  A    between atoms: C_7  and  C_8
REMARK    4  A    between atoms: C_8  and  C_9
REMARK    5  A    between atoms: C_9  and  C_10
REMARK    6  A    between atoms: C_14  and  N_15
REMARK    7  A    between atoms: C_22  and  C_23
REMARK                            x       y       z     vdW  Elec       q    Type
REMARK                         _______ _______ _______ _____ _____    ______ ____
ROOT
ATOM      1  C   UNL     1       0.514  10.255  19.569  0.00  0.00    +0.000 A 
ATOM      2  C   UNL     1       0.157  10.182  20.920  0.00  0.00    +0.000 A 
ATOM      3  C   UNL     1       0.587   9.115  21.695  0.00  0.00    +0.000 A 
ATOM      4  C   UNL     1       1.369   8.110  21.126  0.00  0.00    +0.000 A 
ATOM      5  C   UNL     1       1.740   8.134  19.774  0.00  0.00    +0.000 A 
ATOM      6  C   UNL     1       1.313   9.232  19.008  0.00  0.00    +0.000 A 
ENDROOT
BRANCH   5   7
ATOM      7  N   UNL     1       2.475   7.053  19.202  0.00  0.00    +0.000 N 
ATOM      8  C   UNL     1       3.450   7.210  18.120  0.00  0.00    +0.000 C 
ATOM      9  C   UNL     1       3.801   5.792  17.764  0.00  0.00    +0.000 A 
ATOM     10  C   UNL     1       3.093   4.935  18.594  0.00  0.00    +0.000 A 
ATOM     11  C   UNL     1       3.181   3.569  18.480  0.00  0.00    +0.000 A 
ATOM     12  N   UNL     1       3.978   3.001  17.551  0.00  0.00    +0.000 NA
ATOM     13  C   UNL     1       4.686   3.842  16.746  0.00  0.00    +0.000 A 
ATOM     14  C   UNL     1       4.641   5.240  16.804  0.00  0.00    +0.000 A 
ATOM     15  C   UNL     1       2.275   5.705  19.512  0.00  0.00    +0.000 C 
ATOM     16  O   UNL     1       1.592   5.151  20.351  0.00  0.00    +0.000 OA
BRANCH  14  17
ATOM     17  C   UNL     1       5.489   6.015  15.850  0.00  0.00    +0.000 C 
ATOM     18  F   UNL     1       6.096   5.245  14.910  0.00  0.00    +0.000 F 
ATOM     19  F   UNL     1       4.770   6.948  15.167  0.00  0.00    +0.000 F 
ATOM     20  F   UNL     1       6.482   6.698  16.478  0.00  0.00    +0.000 F 
ENDBRANCH  14  17
ENDBRANCH   5   7
BRANCH   1  21
ATOM     21  C   UNL     1      -0.018  11.391  18.727  0.00  0.00    +0.000 C 
BRANCH  21  22
ATOM     22  C   UNL     1      -1.544  11.569  18.743  0.00  0.00    +0.000 C 
BRANCH  22  23
ATOM     23  C   UNL     1      -2.361  10.337  18.341  0.00  0.00    +0.000 C 
BRANCH  23  29
ATOM     24  C   UNL     1      -4.874  11.772  17.097  0.00  0.00    +0.000 C 
ATOM     25  N   UNL     1      -3.897  10.981  16.403  0.00  0.00    +0.000 N 
ATOM     26  C   UNL     1      -3.898  10.713  15.066  0.00  0.00    +0.000 A 
ATOM     27  N   UNL     1      -2.855   9.980  14.764  0.00  0.00    +0.000 NA
ATOM     28  N   UNL     1      -2.150   9.766  15.920  0.00  0.00    +0.000 NA
ATOM     29  C   UNL     1      -2.789  10.353  16.914  0.00  0.00    +0.000 A 
ENDBRANCH  23  29
ENDBRANCH  22  23
ENDBRANCH  21  22
ENDBRANCH   1  21
TORSDOF 6
ENDMDL
MODEL 7
REMARK VINA RESULT:      -8.5      1.329      2.047
REMARK  Name = 
REMARK  7 active torsions:
REMARK  status: ('A' for Active; 'I' for Inactive)
REMARK    1  A    between atoms: C_1  and  N_2
REMARK    2  A    between atoms: C_6  and  C_7
REMARK    3  A    between atoms: C_7  and  C_8
REMARK    4  A    between atoms: C_8  and  C_9
REMARK    5  A    between atoms: C_9  and  C_10
REMARK    6  A    between atoms: C_14  and  N_15
REMARK    7  A    between atoms: C_22  and  C_23
REMARK                            x       y       z     vdW  Elec       q    Type
REMARK                         _______ _______ _______ _____ _____    ______ ____
ROOT
ATOM      1  C   UNL     1       4.094   4.576  19.403  0.00  0.00    +0.000 A 
ATOM      2  C   UNL     1       3.334   3.524  19.928  0.00  0.00    +0.000 A 
ATOM      3  C   UNL     1       2.077   3.773  20.459  0.00  0.00    +0.000 A 
ATOM      4  C   UNL     1       1.572   5.073  20.476  0.00  0.00    +0.000 A 
ATOM      5  C   UNL     1       2.303   6.160  19.974  0.00  0.00    +0.000 A 
ATOM      6  C   UNL     1       3.566   5.887  19.422  0.00  0.00    +0.000 A 
ENDROOT
BRANCH   5   7
ATOM      7  N   UNL     1       1.792   7.489  20.077  0.00  0.00    +0.000 N 
ATOM      8  C   UNL     1       1.156   8.029  21.281  0.00  0.00    +0.000 C 
ATOM      9  C   UNL     1       0.645   9.369  20.829  0.00  0.00    +0.000 A 
ATOM     10  C   UNL     1       0.991   9.553  19.497  0.00  0.00    +0.000 A 
ATOM     11  C   UNL     1       0.625  10.676  18.797  0.00  0.00    +0.000 A 
ATOM     12  N   UNL     1      -0.084  11.661  19.386  0.00  0.00    +0.000 NA
ATOM     13  C   UNL     1      -0.409  11.489  20.698  0.00  0.00    +0.000 A 
ATOM     14  C   UNL     1      -0.074  10.370  21.470  0.00  0.00    +0.000 A 
ATOM     15  C   UNL     1       1.725   8.397  19.017  0.00  0.00    +0.000 C 
ATOM     16  O   UNL     1       2.150   8.361  17.879  0.00  0.00    +0.000 OA
BRANCH  14  17
ATOM     17  C   UNL     1      -0.504  10.344  22.901  0.00  0.00    +0.000 C 
ATOM     18  F   UNL     1       0.433   9.833  23.742  0.00  0.00    +0.000 F 
ATOM     19  F   UNL     1      -0.796  11.588  23.370  0.00  0.00    +0.000 F 
ATOM     20  F   UNL     1      -1.627   9.601  23.090  0.00  0.00    +0.000 F 
ENDBRANCH  14  17
ENDBRANCH   5   7
BRANCH   1  21
ATOM     21  C   UNL     1       5.486   4.294  18.888  0.00  0.00    +0.000 C 
BRANCH  21  22
ATOM     22  C   UNL     1       6.568   5.292  19.328  0.00  0.00    +0.000 C 
BRANCH  22  23
ATOM     23  C   UNL     1       7.191   6.133  18.208  0.00  0.00    +0.000 C 
BRANCH  23  29
ATOM     24  C   UNL     1       4.911   6.824  16.147  0.00  0.00    +0.000 C 
ATOM     25  N   UNL     1       5.971   5.870  15.978  0.00  0.00    +0.000 N 
ATOM     26  C   UNL     1       6.167   5.089  14.878  0.00  0.00    +0.000 A 
ATOM     27  N   UNL     1       7.235   4.348  15.050  0.00  0.00    +0.000 NA
ATOM     28  N   UNL     1       7.755   4.651  16.280  0.00  0.00    +0.000 NA
ATOM     29  C   UNL     1       6.982   5.555  16.851  0.00  0.00    +0.000 A 
ENDBRANCH  23  29
ENDBRANCH  22  23
ENDBRANCH  21  22
ENDBRANCH   1  21
TORSDOF 6
ENDMDL
MODEL 8
REMARK VINA RESULT:      -8.5      2.006      2.832
REMARK  Name = 
REMARK  7 active torsions:
REMARK  status: ('A' for Active; 'I' for Inactive)
REMARK    1  A    between atoms: C_1  and  N_2
REMARK    2  A    between atoms: C_6  and  C_7
REMARK    3  A    between atoms: C_7  and  C_8
REMARK    4  A    between atoms: C_8  and  C_9
REMARK    5  A    between atoms: C_9  and  C_10
REMARK    6  A    between atoms: C_14  and  N_15
REMARK    7  A    between atoms: C_22  and  C_23
REMARK                            x       y       z     vdW  Elec       q    Type
REMARK                         _______ _______ _______ _____ _____    ______ ____
ROOT
ATOM      1  C   UNL     1       3.538   4.674  17.749  0.00  0.00    +0.000 A 
ATOM      2  C   UNL     1       3.655   3.726  18.773  0.00  0.00    +0.000 A 
ATOM      3  C   UNL     1       3.193   4.020  20.047  0.00  0.00    +0.000 A 
ATOM      4  C   UNL     1       2.617   5.263  20.311  0.00  0.00    +0.000 A 
ATOM      5  C   UNL     1       2.490   6.248  19.320  0.00  0.00    +0.000 A 
ATOM      6  C   UNL     1       2.946   5.926  18.031  0.00  0.00    +0.000 A 
ENDROOT
BRANCH   5   7
ATOM      7  N   UNL     1       1.968   7.537  19.639  0.00  0.00    +0.000 N 
ATOM      8  C   UNL     1       1.325   7.866  20.914  0.00  0.00    +0.000 C 
ATOM      9  C   UNL     1       0.802   9.257  20.687  0.00  0.00    +0.000 A 
ATOM     10  C   UNL     1       1.149   9.661  19.406  0.00  0.00    +0.000 A 
ATOM     11  C   UNL     1       0.774  10.881  18.898  0.00  0.00    +0.000 A 
ATOM     12  N   UNL     1       0.055  11.749  19.640  0.00  0.00    +0.000 NA
ATOM     13  C   UNL     1      -0.271  11.360  20.905  0.00  0.00    +0.000 A 
ATOM     14  C   UNL     1       0.073  10.132  21.483  0.00  0.00    +0.000 A 
ATOM     15  C   UNL     1       1.895   8.607  18.743  0.00  0.00    +0.000 C 
ATOM     16  O   UNL     1       2.323   8.763  17.617  0.00  0.00    +0.000 OA
BRANCH  14  17
ATOM     17  C   UNL     1      -0.360   9.866  22.888  0.00  0.00    +0.000 C 
ATOM     18  F   UNL     1       0.672   9.642  23.742  0.00  0.00    +0.000 F 
ATOM     19  F   UNL     1      -1.066  10.906  23.411  0.00  0.00    +0.000 F 
ATOM     20  F   UNL     1      -1.172   8.780  22.982  0.00  0.00    +0.000 F 
ENDBRANCH  14  17
ENDBRANCH   5   7
BRANCH   1  21
ATOM     21  C   UNL     1       4.106   4.359  16.385  0.00  0.00    +0.000 C 
BRANCH  21  22
ATOM     22  C   UNL     1       5.586   4.718  16.186  0.00  0.00    +0.000 C 
BRANCH  22  23
ATOM     23  C   UNL     1       6.385   3.774  15.280  0.00  0.00    +0.000 C 
BRANCH  23  29
ATOM     24  C   UNL     1       5.890   3.170  12.228  0.00  0.00    +0.000 C 
ATOM     25  N   UNL     1       6.764   4.166  12.783  0.00  0.00    +0.000 N 
ATOM     26  C   UNL     1       7.539   5.029  12.067  0.00  0.00    +0.000 A 
ATOM     27  N   UNL     1       8.195   5.814  12.886  0.00  0.00    +0.000 NA
ATOM     28  N   UNL     1       7.841   5.468  14.164  0.00  0.00    +0.000 NA
ATOM     29  C   UNL     1       6.991   4.460  14.104  0.00  0.00    +0.000 A 
ENDBRANCH  23  29
ENDBRANCH  22  23
ENDBRANCH  21  22
ENDBRANCH   1  21
TORSDOF 6
ENDMDL
MODEL 9
REMARK VINA RESULT:      -8.4      2.107      2.853
REMARK  Name = 
REMARK  7 active torsions:
REMARK  status: ('A' for Active; 'I' for Inactive)
REMARK    1  A    between atoms: C_1  and  N_2
REMARK    2  A    between atoms: C_6  and  C_7
REMARK    3  A    between atoms: C_7  and  C_8
REMARK    4  A    between atoms: C_8  and  C_9
REMARK    5  A    between atoms: C_9  and  C_10
REMARK    6  A    between atoms: C_14  and  N_15
REMARK    7  A    between atoms: C_22  and  C_23
REMARK                            x       y       z     vdW  Elec       q    Type
REMARK                         _______ _______ _______ _____ _____    ______ ____
ROOT
ATOM      1  C   UNL     1       4.880   4.997  18.093  0.00  0.00    +0.000 A 
ATOM      2  C   UNL     1       4.076   3.866  17.913  0.00  0.00    +0.000 A 
ATOM      3  C   UNL     1       2.701   3.958  18.071  0.00  0.00    +0.000 A 
ATOM      4  C   UNL     1       2.119   5.178  18.417  0.00  0.00    +0.000 A 
ATOM      5  C   UNL     1       2.886   6.335  18.621  0.00  0.00    +0.000 A 
ATOM      6  C   UNL     1       4.275   6.227  18.437  0.00  0.00    +0.000 A 
ENDROOT
BRANCH   5   7
ATOM      7  N   UNL     1       2.271   7.549  19.050  0.00  0.00    +0.000 N 
ATOM      8  C   UNL     1       1.641   7.727  20.360  0.00  0.00    +0.000 C 
ATOM      9  C   UNL     1       1.001   9.084  20.254  0.00  0.00    +0.000 A 
ATOM     10  C   UNL     1       1.276   9.609  18.999  0.00  0.00    +0.000 A 
ATOM     11  C   UNL     1       0.790  10.829  18.596  0.00  0.00    +0.000 A 
ATOM     12  N   UNL     1       0.025  11.576  19.419  0.00  0.00    +0.000 NA
ATOM     13  C   UNL     1      -0.231  11.068  20.657  0.00  0.00    +0.000 A 
ATOM     14  C   UNL     1       0.227   9.833  21.131  0.00  0.00    +0.000 A 
ATOM     15  C   UNL     1       2.085   8.674  18.241  0.00  0.00    +0.000 C 
ATOM     16  O   UNL     1       2.465   8.948  17.120  0.00  0.00    +0.000 OA
BRANCH  14  17
ATOM     17  C   UNL     1      -0.141   9.429  22.521  0.00  0.00    +0.000 C 
ATOM     18  F   UNL     1      -0.849  10.372  23.194  0.00  0.00    +0.000 F 
ATOM     19  F   UNL     1      -0.901   8.299  22.541  0.00  0.00    +0.000 F 
ATOM     20  F   UNL     1       0.950   9.157  23.286  0.00  0.00    +0.000 F 
ENDBRANCH  14  17
ENDBRANCH   5   7
BRANCH   1  21
ATOM     21  C   UNL     1       6.380   4.861  17.980  0.00  0.00    +0.000 C 
BRANCH  21  22
ATOM     22  C   UNL     1       6.903   4.426  16.602  0.00  0.00    +0.000 C 
BRANCH  22  23
ATOM     23  C   UNL     1       6.516   5.332  15.428  0.00  0.00    +0.000 C 
BRANCH  23  29
ATOM     24  C   UNL     1       8.454   5.718  12.975  0.00  0.00    +0.000 C 
ATOM     25  N   UNL     1       7.339   4.818  13.064  0.00  0.00    +0.000 N 
ATOM     26  C   UNL     1       6.926   3.968  12.081  0.00  0.00    +0.000 A 
ATOM     27  N   UNL     1       5.894   3.278  12.502  0.00  0.00    +0.000 NA
ATOM     28  N   UNL     1       5.626   3.676  13.785  0.00  0.00    +0.000 NA
ATOM     29  C   UNL     1       6.485   4.620  14.120  0.00  0.00    +0.000 A 
ENDBRANCH  23  29
ENDBRANCH  22  23
ENDBRANCH  21  22
ENDBRANCH   1  21
TORSDOF 6
ENDMDL
