MODEL 1
REMARK VINA RESULT:      -8.3      0.000      0.000
REMARK  Name = 
REMARK  4 active torsions:
REMARK  status: ('A' for Active; 'I' for Inactive)
REMARK    1  A    between atoms: C_4  and  C_5
REMARK    2  A    between atoms: C_5  and  N_6
REMARK    3  A    between atoms: C_8  and  C_9
REMARK    4  A    between atoms: C_13  and  C_14
REMARK                            x       y       z     vdW  Elec       q    Type
REMARK                         _______ _______ _______ _____ _____    ______ ____
ROOT
ATOM      1  N   UNL     1       6.169   5.173  16.743  0.00  0.00    +0.000 NA
ATOM      2  C   UNL     1       4.906   5.167  15.988  0.00  0.00    +0.000 C 
ATOM      3  C   UNL     1       3.650   5.312  16.874  0.00  0.00    +0.000 C 
ATOM      4  O   UNL     1       3.760   6.520  17.647  0.00  0.00    +0.000 OA
ATOM      5  C   UNL     1       4.924   6.509  18.482  0.00  0.00    +0.000 C 
ATOM      6  C   UNL     1       6.283   6.270  17.723  0.00  0.00    +0.000 C 
ATOM      7  C   UNL     1       6.772   7.611  17.116  0.00  0.00    +0.000 C 
ATOM      8  C   UNL     1       7.727   8.189  18.156  0.00  0.00    +0.000 C 
ATOM      9  C   UNL     1       8.453   6.961  18.674  0.00  0.00    +0.000 C 
ATOM     10  C   UNL     1       7.342   5.933  18.821  0.00  0.00    +0.000 C 
ENDROOT
BRANCH   3  11
ATOM     11  C   UNL     1       3.261   4.121  17.744  0.00  0.00    +0.000 A 
ATOM     12  C   UNL     1       3.612   2.797  17.431  0.00  0.00    +0.000 A 
ATOM     13  C   UNL     1       3.298   1.738  18.283  0.00  0.00    +0.000 A 
ATOM     14  C   UNL     1       2.607   1.980  19.466  0.00  0.00    +0.000 A 
ATOM     15  C   UNL     1       2.226   3.286  19.807  0.00  0.00    +0.000 A 
ATOM     16  C   UNL     1       2.564   4.346  18.944  0.00  0.00    +0.000 A 
BRANCH  15  17
ATOM     17  C   UNL     1       1.466   3.560  21.079  0.00  0.00    +0.000 C 
ATOM     18  F   UNL     1       0.904   2.446  21.629  0.00  0.00    +0.000 F 
ATOM     19  F   UNL     1       2.249   4.100  22.053  0.00  0.00    +0.000 F 
ATOM     20  F   UNL     1       0.441   4.438  20.892  0.00  0.00    +0.000 F 
ENDBRANCH  15  17
ENDBRANCH   3  11
BRANCH   1  21
ATOM     21  C   UNL     1       7.334   4.723  15.974  0.00  0.00    +0.000 C 
BRANCH  21  25
ATOM     22  O   UNL     1       6.158   3.005  11.716  0.00  0.00    +0.000 OA
ATOM     23  C   UNL     1       6.585   3.752  12.582  0.00  0.00    +0.000 A 
ATOM     24  N   UNL     1       6.378   3.643  13.938  0.00  0.00    +0.000 NA
ATOM     25  C   UNL     1       7.129   4.572  14.475  0.00  0.00    +0.000 A 
ATOM     26  N   UNL     1       7.814   5.366  13.566  0.00  0.00    +0.000 N 
ATOM     27  N   UNL     1       7.442   4.802  12.351  0.00  0.00    +0.000 N 
ATOM     28  H   UNL     1       8.814   5.456  13.737  0.00  0.00    +0.000 HD
ATOM     29  H   UNL     1       7.949   4.926  11.485  0.00  0.00    +0.000 HD
ENDBRANCH  21  25
ENDBRANCH   1  21
TORSDOF 4
ENDMDL
MODEL 2
REMARK VINA RESULT:      -8.3      3.646      5.761
REMARK  Name = 
REMARK  4 active torsions:
REMARK  status: ('A' for Active; 'I' for Inactive)
REMARK    1  A    between atoms: C_4  and  C_5
REMARK    2  A    between atoms: C_5  and  N_6
REMARK    3  A    between atoms: C_8  and  C_9
REMARK    4  A    between atoms: C_13  and  C_14
REMARK                            x       y       z     vdW  Elec       q    Type
REMARK                         _______ _______ _______ _____ _____    ______ ____
ROOT
ATOM      1  N   UNL     1       2.987   4.773  18.313  0.00  0.00    +0.000 NA
ATOM      2  C   UNL     1       3.883   5.701  19.022  0.00  0.00    +0.000 C 
ATOM      3  C   UNL     1       3.156   6.629  20.019  0.00  0.00    +0.000 C 
ATOM      4  O   UNL     1       2.428   5.823  20.962  0.00  0.00    +0.000 OA
ATOM      5  C   UNL     1       1.464   4.987  20.311  0.00  0.00    +0.000 C 
ATOM      6  C   UNL     1       2.050   4.048  19.191  0.00  0.00    +0.000 C 
ATOM      7  C   UNL     1       2.653   2.781  19.851  0.00  0.00    +0.000 C 
ATOM      8  C   UNL     1       1.536   1.743  19.806  0.00  0.00    +0.000 C 
ATOM      9  C   UNL     1       0.884   1.999  18.460  0.00  0.00    +0.000 C 
ATOM     10  C   UNL     1       0.823   3.517  18.383  0.00  0.00    +0.000 C 
ENDROOT
BRANCH   3  11
ATOM     11  C   UNL     1       2.285   7.740  19.440  0.00  0.00    +0.000 A 
ATOM     12  C   UNL     1       2.201   8.007  18.063  0.00  0.00    +0.000 A 
ATOM     13  C   UNL     1       1.344   8.987  17.562  0.00  0.00    +0.000 A 
ATOM     14  C   UNL     1       0.561   9.737  18.434  0.00  0.00    +0.000 A 
ATOM     15  C   UNL     1       0.628   9.511  19.816  0.00  0.00    +0.000 A 
ATOM     16  C   UNL     1       1.487   8.508  20.305  0.00  0.00    +0.000 A 
BRANCH  15  17
ATOM     17  C   UNL     1      -0.204  10.325  20.773  0.00  0.00    +0.000 C 
ATOM     18  F   UNL     1      -0.689   9.604  21.823  0.00  0.00    +0.000 F 
ATOM     19  F   UNL     1       0.490  11.360  21.323  0.00  0.00    +0.000 F 
ATOM     20  F   UNL     1      -1.292  10.882  20.171  0.00  0.00    +0.000 F 
ENDBRANCH  15  17
ENDBRANCH   3  11
BRANCH   1  21
ATOM     21  C   UNL     1       3.596   4.117  17.151  0.00  0.00    +0.000 C 
BRANCH  21  25
ATOM     22  O   UNL     1       7.626   5.555  15.113  0.00  0.00    +0.000 OA
ATOM     23  C   UNL     1       6.847   5.092  15.931  0.00  0.00    +0.000 A 
ATOM     24  N   UNL     1       5.475   5.186  15.905  0.00  0.00    +0.000 NA
ATOM     25  C   UNL     1       5.060   4.434  16.894  0.00  0.00    +0.000 A 
ATOM     26  N   UNL     1       6.071   3.858  17.651  0.00  0.00    +0.000 N 
ATOM     27  N   UNL     1       7.213   4.301  16.994  0.00  0.00    +0.000 N 
ATOM     28  H   UNL     1       5.988   2.851  17.789  0.00  0.00    +0.000 HD
ATOM     29  H   UNL     1       8.124   3.870  17.079  0.00  0.00    +0.000 HD
ENDBRANCH  21  25
ENDBRANCH   1  21
TORSDOF 4
ENDMDL
MODEL 3
REMARK VINA RESULT:      -8.2      0.884      1.303
REMARK  Name = 
REMARK  4 active torsions:
REMARK  status: ('A' for Active; 'I' for Inactive)
REMARK    1  A    between atoms: C_4  and  C_5
REMARK    2  A    between atoms: C_5  and  N_6
REMARK    3  A    between atoms: C_8  and  C_9
REMARK    4  A    between atoms: C_13  and  C_14
REMARK                            x       y       z     vdW  Elec       q    Type
REMARK                         _______ _______ _______ _____ _____    ______ ____
ROOT
ATOM      1  N   UNL     1       6.134   4.816  16.770  0.00  0.00    +0.000 NA
ATOM      2  C   UNL     1       4.901   4.682  15.977  0.00  0.00    +0.000 C 
ATOM      3  C   UNL     1       3.609   4.877  16.798  0.00  0.00    +0.000 C 
ATOM      4  O   UNL     1       3.649   6.165  17.436  0.00  0.00    +0.000 OA
ATOM      5  C   UNL     1       4.780   6.289  18.306  0.00  0.00    +0.000 C 
ATOM      6  C   UNL     1       6.175   6.017  17.625  0.00  0.00    +0.000 C 
ATOM      7  C   UNL     1       6.642   7.301  16.891  0.00  0.00    +0.000 C 
ATOM      8  C   UNL     1       7.538   8.024  17.892  0.00  0.00    +0.000 C 
ATOM      9  C   UNL     1       8.283   6.888  18.568  0.00  0.00    +0.000 C 
ATOM     10  C   UNL     1       7.201   5.842  18.789  0.00  0.00    +0.000 C 
ENDROOT
BRANCH   3  11
ATOM     11  C   UNL     1       3.225   3.775  17.782  0.00  0.00    +0.000 A 
ATOM     12  C   UNL     1       3.578   2.428  17.596  0.00  0.00    +0.000 A 
ATOM     13  C   UNL     1       3.270   1.456  18.548  0.00  0.00    +0.000 A 
ATOM     14  C   UNL     1       2.583   1.810  19.705  0.00  0.00    +0.000 A 
ATOM     15  C   UNL     1       2.201   3.141  19.920  0.00  0.00    +0.000 A 
ATOM     16  C   UNL     1       2.532   4.113  18.957  0.00  0.00    +0.000 A 
BRANCH  15  17
ATOM     17  C   UNL     1       1.444   3.536  21.162  0.00  0.00    +0.000 C 
ATOM     18  F   UNL     1       0.528   4.525  20.951  0.00  0.00    +0.000 F 
ATOM     19  F   UNL     1       0.752   2.499  21.708  0.00  0.00    +0.000 F 
ATOM     20  F   UNL     1       2.266   3.998  22.146  0.00  0.00    +0.000 F 
ENDBRANCH  15  17
ENDBRANCH   3  11
BRANCH   1  21
ATOM     21  C   UNL     1       7.341   4.328  16.096  0.00  0.00    +0.000 C 
BRANCH  21  25
ATOM     22  O   UNL     1       7.974   6.242  11.806  0.00  0.00    +0.000 OA
ATOM     23  C   UNL     1       7.693   5.440  12.683  0.00  0.00    +0.000 A 
ATOM     24  N   UNL     1       8.011   5.535  14.018  0.00  0.00    +0.000 NA
ATOM     25  C   UNL     1       7.395   4.531  14.590  0.00  0.00    +0.000 A 
ATOM     26  N   UNL     1       6.701   3.701  13.721  0.00  0.00    +0.000 N 
ATOM     27  N   UNL     1       6.911   4.324  12.496  0.00  0.00    +0.000 N 
ATOM     28  H   UNL     1       5.732   3.519  13.977  0.00  0.00    +0.000 HD
ATOM     29  H   UNL     1       6.341   4.176  11.675  0.00  0.00    +0.000 HD
ENDBRANCH  21  25
ENDBRANCH   1  21
TORSDOF 4
ENDMDL
MODEL 4
REMARK VINA RESULT:      -8.2      3.768      6.020
REMARK  Name = 
REMARK  4 active torsions:
REMARK  status: ('A' for Active; 'I' for Inactive)
REMARK    1  A    between atoms: C_4  and  C_5
REMARK    2  A    between atoms: C_5  and  N_6
REMARK    3  A    between atoms: C_8  and  C_9
REMARK    4  A    between atoms: C_13  and  C_14
REMARK                            x       y       z     vdW  Elec       q    Type
REMARK                         _______ _______ _______ _____ _____    ______ ____
ROOT
ATOM      1  N   UNL     1       3.839   4.811  18.934  0.00  0.00    +0.000 NA
ATOM      2  C   UNL     1       3.881   5.584  20.186  0.00  0.00    +0.000 C 
ATOM      3  C   UNL     1       2.546   6.276  20.535  0.00  0.00    +0.000 C 
ATOM      4  O   UNL     1       1.507   5.282  20.600  0.00  0.00    +0.000 OA
ATOM      5  C   UNL     1       1.363   4.586  19.357  0.00  0.00    +0.000 C 
ATOM      6  C   UNL     1       2.679   3.907  18.820  0.00  0.00    +0.000 C 
ATOM      7  C   UNL     1       2.872   2.539  19.525  0.00  0.00    +0.000 C 
ATOM      8  C   UNL     1       2.242   1.518  18.583  0.00  0.00    +0.000 C 
ATOM      9  C   UNL     1       2.624   2.038  17.209  0.00  0.00    +0.000 C 
ATOM     10  C   UNL     1       2.401   3.538  17.328  0.00  0.00    +0.000 C 
ENDROOT
BRANCH   3  11
ATOM     11  C   UNL     1       2.128   7.471  19.684  0.00  0.00    +0.000 A 
ATOM     12  C   UNL     1       2.560   7.656  18.360  0.00  0.00    +0.000 A 
ATOM     13  C   UNL     1       2.105   8.724  17.587  0.00  0.00    +0.000 A 
ATOM     14  C   UNL     1       1.216   9.646  18.131  0.00  0.00    +0.000 A 
ATOM     15  C   UNL     1       0.773   9.504  19.454  0.00  0.00    +0.000 A 
ATOM     16  C   UNL     1       1.229   8.412  20.216  0.00  0.00    +0.000 A 
BRANCH  15  17
ATOM     17  C   UNL     1      -0.179  10.503  20.060  0.00  0.00    +0.000 C 
ATOM     18  F   UNL     1      -0.638  10.140  21.292  0.00  0.00    +0.000 F 
ATOM     19  F   UNL     1       0.382  11.733  20.221  0.00  0.00    +0.000 F 
ATOM     20  F   UNL     1      -1.289  10.695  19.294  0.00  0.00    +0.000 F 
ENDBRANCH  15  17
ENDBRANCH   3  11
BRANCH   1  21
ATOM     21  C   UNL     1       5.157   4.418  18.423  0.00  0.00    +0.000 C 
BRANCH  21  25
ATOM     22  O   UNL     1       7.942   8.054  17.203  0.00  0.00    +0.000 OA
ATOM     23  C   UNL     1       7.460   7.133  17.843  0.00  0.00    +0.000 A 
ATOM     24  N   UNL     1       6.270   6.491  17.591  0.00  0.00    +0.000 NA
ATOM     25  C   UNL     1       6.230   5.495  18.441  0.00  0.00    +0.000 A 
ATOM     26  N   UNL     1       7.305   5.433  19.316  0.00  0.00    +0.000 N 
ATOM     27  N   UNL     1       8.084   6.505  18.895  0.00  0.00    +0.000 N 
ATOM     28  H   UNL     1       7.770   4.528  19.368  0.00  0.00    +0.000 HD
ATOM     29  H   UNL     1       9.067   6.613  19.103  0.00  0.00    +0.000 HD
ENDBRANCH  21  25
ENDBRANCH   1  21
TORSDOF 4
ENDMDL
MODEL 5
REMARK VINA RESULT:      -8.2      3.832      6.658
REMARK  Name = 
REMARK  4 active torsions:
REMARK  status: ('A' for Active; 'I' for Inactive)
REMARK    1  A    between atoms: C_4  and  C_5
REMARK    2  A    between atoms: C_5  and  N_6
REMARK    3  A    between atoms: C_8  and  C_9
REMARK    4  A    between atoms: C_13  and  C_14
REMARK                            x       y       z     vdW  Elec       q    Type
REMARK                         _______ _______ _______ _____ _____    ______ ____
ROOT
ATOM      1  N   UNL     1       2.667   5.119  19.202  0.00  0.00    +0.000 NA
ATOM      2  C   UNL     1       2.397   5.313  17.769  0.00  0.00    +0.000 C 
ATOM      3  C   UNL     1       3.088   4.275  16.859  0.00  0.00    +0.000 C 
ATOM      4  O   UNL     1       2.686   2.955  17.265  0.00  0.00    +0.000 OA
ATOM      5  C   UNL     1       3.038   2.691  18.628  0.00  0.00    +0.000 C 
ATOM      6  C   UNL     1       2.481   3.732  19.671  0.00  0.00    +0.000 C 
ATOM      7  C   UNL     1       1.011   3.373  20.015  0.00  0.00    +0.000 C 
ATOM      8  C   UNL     1       1.100   2.516  21.274  0.00  0.00    +0.000 C 
ATOM      9  C   UNL     1       2.216   3.178  22.061  0.00  0.00    +0.000 C 
ATOM     10  C   UNL     1       3.262   3.480  20.999  0.00  0.00    +0.000 C 
ENDROOT
BRANCH   3  11
ATOM     11  C   UNL     1       4.603   4.376  16.698  0.00  0.00    +0.000 A 
ATOM     12  C   UNL     1       5.275   3.998  15.525  0.00  0.00    +0.000 A 
ATOM     13  C   UNL     1       6.652   4.166  15.386  0.00  0.00    +0.000 A 
ATOM     14  C   UNL     1       7.395   4.704  16.433  0.00  0.00    +0.000 A 
ATOM     15  C   UNL     1       6.763   5.081  17.626  0.00  0.00    +0.000 A 
ATOM     16  C   UNL     1       5.369   4.919  17.745  0.00  0.00    +0.000 A 
BRANCH  15  17
ATOM     17  C   UNL     1       7.556   5.653  18.772  0.00  0.00    +0.000 C 
ATOM     18  F   UNL     1       8.655   4.913  19.097  0.00  0.00    +0.000 F 
ATOM     19  F   UNL     1       8.017   6.909  18.518  0.00  0.00    +0.000 F 
ATOM     20  F   UNL     1       6.823   5.748  19.916  0.00  0.00    +0.000 F 
ENDBRANCH  15  17
ENDBRANCH   3  11
BRANCH   1  21
ATOM     21  C   UNL     1       2.293   6.258  20.046  0.00  0.00    +0.000 C 
BRANCH  21  25
ATOM     22  O   UNL     1       0.719  10.505  18.650  0.00  0.00    +0.000 OA
ATOM     23  C   UNL     1       1.411   9.504  18.743  0.00  0.00    +0.000 A 
ATOM     24  N   UNL     1       1.333   8.538  19.719  0.00  0.00    +0.000 NA
ATOM     25  C   UNL     1       2.164   7.599  19.341  0.00  0.00    +0.000 A 
ATOM     26  N   UNL     1       2.865   7.876  18.176  0.00  0.00    +0.000 N 
ATOM     27  N   UNL     1       2.347   9.114  17.813  0.00  0.00    +0.000 N 
ATOM     28  H   UNL     1       2.832   7.146  17.466  0.00  0.00    +0.000 HD
ATOM     29  H   UNL     1       2.405   9.508  16.884  0.00  0.00    +0.000 HD
ENDBRANCH  21  25
ENDBRANCH   1  21
TORSDOF 4
ENDMDL
MODEL 6
REMARK VINA RESULT:      -8.2      3.909      6.730
REMARK  Name = 
REMARK  4 active torsions:
REMARK  status: ('A' for Active; 'I' for Inactive)
REMARK    1  A    between atoms: C_4  and  C_5
REMARK    2  A    between atoms: C_5  and  N_6
REMARK    3  A    between atoms: C_8  and  C_9
REMARK    4  A    between atoms: C_13  and  C_14
REMARK                            x       y       z     vdW  Elec       q    Type
REMARK                         _______ _______ _______ _____ _____    ______ ____
ROOT
ATOM      1  N   UNL     1       2.742   5.095  19.322  0.00  0.00    +0.000 NA
ATOM      2  C   UNL     1       2.466   5.412  17.912  0.00  0.00    +0.000 C 
ATOM      3  C   UNL     1       3.097   4.416  16.915  0.00  0.00    +0.000 C 
ATOM      4  O   UNL     1       2.637   3.089  17.225  0.00  0.00    +0.000 OA
ATOM      5  C   UNL     1       2.990   2.705  18.558  0.00  0.00    +0.000 C 
ATOM      6  C   UNL     1       2.495   3.687  19.686  0.00  0.00    +0.000 C 
ATOM      7  C   UNL     1       1.014   3.372  20.023  0.00  0.00    +0.000 C 
ATOM      8  C   UNL     1       1.075   2.417  21.211  0.00  0.00    +0.000 C 
ATOM      9  C   UNL     1       2.231   2.962  22.030  0.00  0.00    +0.000 C 
ATOM     10  C   UNL     1       3.278   3.296  20.979  0.00  0.00    +0.000 C 
ENDROOT
BRANCH   3  11
ATOM     11  C   UNL     1       4.612   4.459  16.741  0.00  0.00    +0.000 A 
ATOM     12  C   UNL     1       5.258   4.052  15.562  0.00  0.00    +0.000 A 
ATOM     13  C   UNL     1       6.640   4.167  15.411  0.00  0.00    +0.000 A 
ATOM     14  C   UNL     1       7.412   4.678  16.449  0.00  0.00    +0.000 A 
ATOM     15  C   UNL     1       6.806   5.081  17.647  0.00  0.00    +0.000 A 
ATOM     16  C   UNL     1       5.409   4.973  17.779  0.00  0.00    +0.000 A 
BRANCH  15  17
ATOM     17  C   UNL     1       7.632   5.624  18.785  0.00  0.00    +0.000 C 
ATOM     18  F   UNL     1       8.147   6.863  18.542  0.00  0.00    +0.000 F 
ATOM     19  F   UNL     1       6.923   5.738  19.942  0.00  0.00    +0.000 F 
ATOM     20  F   UNL     1       8.700   4.830  19.077  0.00  0.00    +0.000 F 
ENDBRANCH  15  17
ENDBRANCH   3  11
BRANCH   1  21
ATOM     21  C   UNL     1       2.432   6.182  20.257  0.00  0.00    +0.000 C 
BRANCH  21  25
ATOM     22  O   UNL     1       2.158   9.985  17.441  0.00  0.00    +0.000 OA
ATOM     23  C   UNL     1       1.918   9.194  18.339  0.00  0.00    +0.000 A 
ATOM     24  N   UNL     1       2.409   7.914  18.461  0.00  0.00    +0.000 NA
ATOM     25  C   UNL     1       1.996   7.498  19.632  0.00  0.00    +0.000 A 
ATOM     26  N   UNL     1       1.194   8.397  20.320  0.00  0.00    +0.000 N 
ATOM     27  N   UNL     1       1.170   9.486  19.455  0.00  0.00    +0.000 N 
ATOM     28  H   UNL     1       1.480   8.586  21.280  0.00  0.00    +0.000 HD
ATOM     29  H   UNL     1       0.924  10.427  19.729  0.00  0.00    +0.000 HD
ENDBRANCH  21  25
ENDBRANCH   1  21
TORSDOF 4
ENDMDL
MODEL 7
REMARK VINA RESULT:      -8.2      3.122      5.197
REMARK  Name = 
REMARK  4 active torsions:
REMARK  status: ('A' for Active; 'I' for Inactive)
REMARK    1  A    between atoms: C_4  and  C_5
REMARK    2  A    between atoms: C_5  and  N_6
REMARK    3  A    between atoms: C_8  and  C_9
REMARK    4  A    between atoms: C_13  and  C_14
REMARK                            x       y       z     vdW  Elec       q    Type
REMARK                         _______ _______ _______ _____ _____    ______ ____
ROOT
ATOM      1  N   UNL     1       5.955   5.628  17.508  0.00  0.00    +0.000 NA
ATOM      2  C   UNL     1       5.479   5.304  18.862  0.00  0.00    +0.000 C 
ATOM      3  C   UNL     1       3.940   5.286  18.993  0.00  0.00    +0.000 C 
ATOM      4  O   UNL     1       3.401   4.352  18.041  0.00  0.00    +0.000 OA
ATOM      5  C   UNL     1       3.753   4.703  16.698  0.00  0.00    +0.000 C 
ATOM      6  C   UNL     1       5.299   4.857  16.436  0.00  0.00    +0.000 C 
ATOM      7  C   UNL     1       5.917   3.454  16.195  0.00  0.00    +0.000 C 
ATOM      8  C   UNL     1       5.917   3.278  14.680  0.00  0.00    +0.000 C 
ATOM      9  C   UNL     1       6.267   4.665  14.174  0.00  0.00    +0.000 C 
ATOM     10  C   UNL     1       5.437   5.581  15.059  0.00  0.00    +0.000 C 
ENDROOT
BRANCH   3  11
ATOM     11  C   UNL     1       3.212   6.626  18.939  0.00  0.00    +0.000 A 
ATOM     12  C   UNL     1       3.268   7.483  17.827  0.00  0.00    +0.000 A 
ATOM     13  C   UNL     1       2.537   8.670  17.784  0.00  0.00    +0.000 A 
ATOM     14  C   UNL     1       1.743   9.036  18.866  0.00  0.00    +0.000 A 
ATOM     15  C   UNL     1       1.672   8.215  20.000  0.00  0.00    +0.000 A 
ATOM     16  C   UNL     1       2.404   7.013  20.023  0.00  0.00    +0.000 A 
BRANCH  15  17
ATOM     17  C   UNL     1       0.827   8.606  21.185  0.00  0.00    +0.000 C 
ATOM     18  F   UNL     1      -0.259   7.802  21.368  0.00  0.00    +0.000 F 
ATOM     19  F   UNL     1       1.517   8.571  22.358  0.00  0.00    +0.000 F 
ATOM     20  F   UNL     1       0.336   9.873  21.077  0.00  0.00    +0.000 F 
ENDBRANCH  15  17
ENDBRANCH   3  11
BRANCH   1  21
ATOM     21  C   UNL     1       7.381   5.962  17.434  0.00  0.00    +0.000 C 
BRANCH  21  25
ATOM     22  O   UNL     1       8.247  10.612  17.739  0.00  0.00    +0.000 OA
ATOM     23  C   UNL     1       8.153   9.433  18.041  0.00  0.00    +0.000 A 
ATOM     24  N   UNL     1       7.496   8.452  17.333  0.00  0.00    +0.000 NA
ATOM     25  C   UNL     1       7.775   7.334  17.956  0.00  0.00    +0.000 A 
ATOM     26  N   UNL     1       8.551   7.481  19.098  0.00  0.00    +0.000 N 
ATOM     27  N   UNL     1       8.782   8.852  19.117  0.00  0.00    +0.000 N 
ATOM     28  H   UNL     1       9.374   6.882  19.142  0.00  0.00    +0.000 HD
ATOM     29  H   UNL     1       9.528   9.298  19.632  0.00  0.00    +0.000 HD
ENDBRANCH  21  25
ENDBRANCH   1  21
TORSDOF 4
ENDMDL
MODEL 8
REMARK VINA RESULT:      -8.1      3.157      5.225
REMARK  Name = 
REMARK  4 active torsions:
REMARK  status: ('A' for Active; 'I' for Inactive)
REMARK    1  A    between atoms: C_4  and  C_5
REMARK    2  A    between atoms: C_5  and  N_6
REMARK    3  A    between atoms: C_8  and  C_9
REMARK    4  A    between atoms: C_13  and  C_14
REMARK                            x       y       z     vdW  Elec       q    Type
REMARK                         _______ _______ _______ _____ _____    ______ ____
ROOT
ATOM      1  N   UNL     1       5.817   5.561  17.848  0.00  0.00    +0.000 NA
ATOM      2  C   UNL     1       5.155   5.164  19.101  0.00  0.00    +0.000 C 
ATOM      3  C   UNL     1       3.613   5.230  19.038  0.00  0.00    +0.000 C 
ATOM      4  O   UNL     1       3.153   4.407  17.951  0.00  0.00    +0.000 OA
ATOM      5  C   UNL     1       3.693   4.839  16.697  0.00  0.00    +0.000 C 
ATOM      6  C   UNL     1       5.265   4.917  16.641  0.00  0.00    +0.000 C 
ATOM      7  C   UNL     1       5.836   3.502  16.362  0.00  0.00    +0.000 C 
ATOM      8  C   UNL     1       6.022   3.443  14.849  0.00  0.00    +0.000 C 
ATOM      9  C   UNL     1       6.505   4.841  14.509  0.00  0.00    +0.000 C 
ATOM     10  C   UNL     1       5.616   5.736  15.359  0.00  0.00    +0.000 C 
ENDROOT
BRANCH   3  11
ATOM     11  C   UNL     1       2.968   6.613  19.008  0.00  0.00    +0.000 A 
ATOM     12  C   UNL     1       3.092   7.491  17.918  0.00  0.00    +0.000 A 
ATOM     13  C   UNL     1       2.434   8.721  17.895  0.00  0.00    +0.000 A 
ATOM     14  C   UNL     1       1.648   9.109  18.975  0.00  0.00    +0.000 A 
ATOM     15  C   UNL     1       1.511   8.266  20.088  0.00  0.00    +0.000 A 
ATOM     16  C   UNL     1       2.170   7.022  20.090  0.00  0.00    +0.000 A 
BRANCH  15  17
ATOM     17  C   UNL     1       0.674   8.680  21.270  0.00  0.00    +0.000 C 
ATOM     18  F   UNL     1       1.396   8.857  22.413  0.00  0.00    +0.000 F 
ATOM     19  F   UNL     1       0.014   9.852  21.063  0.00  0.00    +0.000 F 
ATOM     20  F   UNL     1      -0.283   7.760  21.576  0.00  0.00    +0.000 F 
ENDBRANCH  15  17
ENDBRANCH   3  11
BRANCH   1  21
ATOM     21  C   UNL     1       7.256   5.811  17.980  0.00  0.00    +0.000 C 
BRANCH  21  25
ATOM     22  O   UNL     1       9.165   9.967  19.225  0.00  0.00    +0.000 OA
ATOM     23  C   UNL     1       8.558   9.119  18.590  0.00  0.00    +0.000 A 
ATOM     24  N   UNL     1       8.578   7.760  18.804  0.00  0.00    +0.000 NA
ATOM     25  C   UNL     1       7.684   7.269  17.982  0.00  0.00    +0.000 A 
ATOM     26  N   UNL     1       7.071   8.206  17.161  0.00  0.00    +0.000 N 
ATOM     27  N   UNL     1       7.658   9.393  17.587  0.00  0.00    +0.000 N 
ATOM     28  H   UNL     1       6.053   8.179  17.157  0.00  0.00    +0.000 HD
ATOM     29  H   UNL     1       7.271  10.312  17.423  0.00  0.00    +0.000 HD
ENDBRANCH  21  25
ENDBRANCH   1  21
TORSDOF 4
ENDMDL
MODEL 9
REMARK VINA RESULT:      -8.0      7.650      9.294
REMARK  Name = 
REMARK  4 active torsions:
REMARK  status: ('A' for Active; 'I' for Inactive)
REMARK    1  A    between atoms: C_4  and  C_5
REMARK    2  A    between atoms: C_5  and  N_6
REMARK    3  A    between atoms: C_8  and  C_9
REMARK    4  A    between atoms: C_13  and  C_14
REMARK                            x       y       z     vdW  Elec       q    Type
REMARK                         _______ _______ _______ _____ _____    ______ ____
ROOT
ATOM      1  N   UNL     1      -1.021  11.953  19.916  0.00  0.00    +0.000 NA
ATOM      2  C   UNL     1      -0.917  10.917  20.956  0.00  0.00    +0.000 C 
ATOM      3  C   UNL     1       0.511  10.359  21.137  0.00  0.00    +0.000 C 
ATOM      4  O   UNL     1       1.406  11.447  21.428  0.00  0.00    +0.000 OA
ATOM      5  C   UNL     1       1.413  12.421  20.378  0.00  0.00    +0.000 C 
ATOM      6  C   UNL     1      -0.000  13.013  20.012  0.00  0.00    +0.000 C 
ATOM      7  C   UNL     1      -0.354  14.143  21.013  0.00  0.00    +0.000 C 
ATOM      8  C   UNL     1       0.099  15.430  20.330  0.00  0.00    +0.000 C 
ATOM      9  C   UNL     1      -0.253  15.188  18.874  0.00  0.00    +0.000 C 
ATOM     10  C   UNL     1       0.176  13.747  18.645  0.00  0.00    +0.000 C 
ENDROOT
BRANCH   3  11
ATOM     11  C   UNL     1       1.061   9.459  20.033  0.00  0.00    +0.000 A 
ATOM     12  C   UNL     1       1.164   9.869  18.693  0.00  0.00    +0.000 A 
ATOM     13  C   UNL     1       1.734   9.046  17.722  0.00  0.00    +0.000 A 
ATOM     14  C   UNL     1       2.198   7.781  18.068  0.00  0.00    +0.000 A 
ATOM     15  C   UNL     1       2.100   7.330  19.392  0.00  0.00    +0.000 A 
ATOM     16  C   UNL     1       1.536   8.178  20.364  0.00  0.00    +0.000 A 
BRANCH  15  17
ATOM     17  C   UNL     1       2.587   5.958  19.778  0.00  0.00    +0.000 C 
ATOM     18  F   UNL     1       3.946   5.857  19.831  0.00  0.00    +0.000 F 
ATOM     19  F   UNL     1       2.138   5.566  21.003  0.00  0.00    +0.000 F 
ATOM     20  F   UNL     1       2.178   4.996  18.904  0.00  0.00    +0.000 F 
ENDBRANCH  15  17
ENDBRANCH   3  11
BRANCH   1  21
ATOM     21  C   UNL     1      -2.396  12.263  19.509  0.00  0.00    +0.000 C 
BRANCH  21  25
ATOM     22  O   UNL     1      -2.328  10.421  15.142  0.00  0.00    +0.000 OA
ATOM     23  C   UNL     1      -2.738  10.918  16.180  0.00  0.00    +0.000 A 
ATOM     24  N   UNL     1      -2.045  11.041  17.362  0.00  0.00    +0.000 NA
ATOM     25  C   UNL     1      -2.822  11.749  18.144  0.00  0.00    +0.000 A 
ATOM     26  N   UNL     1      -4.051  12.087  17.593  0.00  0.00    +0.000 N 
ATOM     27  N   UNL     1      -3.958  11.537  16.319  0.00  0.00    +0.000 N 
ATOM     28  H   UNL     1      -4.292  13.075  17.644  0.00  0.00    +0.000 HD
ATOM     29  H   UNL     1      -4.535  11.812  15.535  0.00  0.00    +0.000 HD
ENDBRANCH  21  25
ENDBRANCH   1  21
TORSDOF 4
ENDMDL
