MODEL 1
REMARK VINA RESULT:      -8.4      0.000      0.000
REMARK  Name = 
REMARK  7 active torsions:
REMARK  status: ('A' for Active; 'I' for Inactive)
REMARK    1  A    between atoms: N_1  and  S_2
REMARK    2  A    between atoms: S_2  and  C_5
REMARK    3  A    between atoms: C_5  and  C_6
REMARK    4  A    between atoms: C_9  and  C_10
REMARK    5  A    between atoms: C_10  and  N_11
REMARK    6  A    between atoms: C_12  and  C_14
REMARK    7  A    between atoms: N_16  and  C_17
REMARK                            x       y       z     vdW  Elec       q    Type
REMARK                         _______ _______ _______ _____ _____    ______ ____
ROOT
ATOM      1  N   UNL     1       2.246   7.479  20.190  0.00  0.00    +0.000 N 
ATOM      2  C   UNL     1       1.944   6.139  20.325  0.00  0.00    +0.000 C 
ATOM      3  O   UNL     1       1.176   5.705  21.181  0.00  0.00    +0.000 OA
ATOM      4  H   UNL     1       2.773   7.731  19.359  0.00  0.00    +0.000 HD
ENDROOT
BRANCH   2   5
ATOM      5  C   UNL     1       2.594   5.266  19.328  0.00  0.00    +0.000 A 
ATOM      6  N   UNL     1       3.654   5.678  18.580  0.00  0.00    +0.000 NA
ATOM      7  N   UNL     1       3.916   4.638  17.724  0.00  0.00    +0.000 N 
ATOM      8  C   UNL     1       3.084   3.593  17.975  0.00  0.00    +0.000 A 
ATOM      9  C   UNL     1       2.268   3.941  19.007  0.00  0.00    +0.000 A 
ATOM     10  C   UNL     1       1.398   2.818  19.406  0.00  0.00    +0.000 C 
ATOM     11  C   UNL     1       2.106   1.604  18.701  0.00  0.00    +0.000 C 
ATOM     12  C   UNL     1       2.965   2.194  17.532  0.00  0.00    +0.000 C 
BRANCH   7  13
ATOM     13  C   UNL     1       4.954   4.697  16.761  0.00  0.00    +0.000 A 
ATOM     14  C   UNL     1       4.706   4.287  15.446  0.00  0.00    +0.000 A 
ATOM     15  C   UNL     1       5.702   4.439  14.478  0.00  0.00    +0.000 A 
ATOM     16  C   UNL     1       6.944   4.954  14.840  0.00  0.00    +0.000 A 
ATOM     17  F   UNL     1       7.896   5.102  13.909  0.00  0.00    +0.000 F 
ATOM     18  C   UNL     1       7.216   5.319  16.151  0.00  0.00    +0.000 A 
ATOM     19  C   UNL     1       6.215   5.200  17.116  0.00  0.00    +0.000 A 
ENDBRANCH   7  13
ENDBRANCH   2   5
BRANCH   1  20
ATOM     20  C   UNL     1       1.584   8.496  20.973  0.00  0.00    +0.000 C 
BRANCH  20  24
ATOM     21  C   UNL     1      -0.989  11.045  18.573  0.00  0.00    +0.000 A 
ATOM     22  C   UNL     1      -0.028  10.226  17.965  0.00  0.00    +0.000 A 
ATOM     23  C   UNL     1       0.817   9.419  18.737  0.00  0.00    +0.000 A 
ATOM     24  C   UNL     1       0.725   9.414  20.136  0.00  0.00    +0.000 A 
ATOM     25  C   UNL     1      -0.239  10.231  20.742  0.00  0.00    +0.000 A 
ATOM     26  C   UNL     1      -1.085  11.037  19.971  0.00  0.00    +0.000 A 
BRANCH  21  27
ATOM     27  C   UNL     1      -1.891  11.928  17.745  0.00  0.00    +0.000 C 
BRANCH  27  28
ATOM     28  S   UNL     1      -3.075  10.953  16.802  0.00  0.00    +0.000 S 
ATOM     29  O   UNL     1      -3.492   9.824  17.609  0.00  0.00    +0.000 OA
ATOM     30  O   UNL     1      -2.624  10.770  15.446  0.00  0.00    +0.000 OA
BRANCH  28  31
ATOM     31  N   UNL     1      -4.427  11.941  16.706  0.00  0.00    +0.000 NA
ATOM     32  H   UNL     1      -4.599  12.367  17.619  0.00  0.00    +0.000 HD
ATOM     33  H   UNL     1      -5.225  11.409  16.356  0.00  0.00    +0.000 HD
ENDBRANCH  28  31
ENDBRANCH  27  28
ENDBRANCH  21  27
ENDBRANCH  20  24
ENDBRANCH   1  20
TORSDOF 7
ENDMDL
MODEL 2
REMARK VINA RESULT:      -8.1      1.656      2.106
REMARK  Name = 
REMARK  7 active torsions:
REMARK  status: ('A' for Active; 'I' for Inactive)
REMARK    1  A    between atoms: N_1  and  S_2
REMARK    2  A    between atoms: S_2  and  C_5
REMARK    3  A    between atoms: C_5  and  C_6
REMARK    4  A    between atoms: C_9  and  C_10
REMARK    5  A    between atoms: C_10  and  N_11
REMARK    6  A    between atoms: C_12  and  C_14
REMARK    7  A    between atoms: N_16  and  C_17
REMARK                            x       y       z     vdW  Elec       q    Type
REMARK                         _______ _______ _______ _____ _____    ______ ____
ROOT
ATOM      1  N   UNL     1       1.359   8.975  19.517  0.00  0.00    +0.000 N 
ATOM      2  C   UNL     1       1.770   7.936  20.328  0.00  0.00    +0.000 C 
ATOM      3  O   UNL     1       1.688   7.965  21.554  0.00  0.00    +0.000 OA
ATOM      4  H   UNL     1       1.340   8.776  18.522  0.00  0.00    +0.000 HD
ENDROOT
BRANCH   2   5
ATOM      5  C   UNL     1       2.288   6.763  19.597  0.00  0.00    +0.000 A 
ATOM      6  N   UNL     1       3.275   6.863  18.664  0.00  0.00    +0.000 NA
ATOM      7  N   UNL     1       3.417   5.597  18.154  0.00  0.00    +0.000 N 
ATOM      8  C   UNL     1       2.587   4.730  18.792  0.00  0.00    +0.000 A 
ATOM      9  C   UNL     1       1.893   5.425  19.734  0.00  0.00    +0.000 A 
ATOM     10  C   UNL     1       1.040   4.531  20.540  0.00  0.00    +0.000 C 
ATOM     11  C   UNL     1       1.636   3.121  20.185  0.00  0.00    +0.000 C 
ATOM     12  C   UNL     1       2.384   3.272  18.818  0.00  0.00    +0.000 C 
BRANCH   7  13
ATOM     13  C   UNL     1       4.350   5.297  17.130  0.00  0.00    +0.000 A 
ATOM     14  C   UNL     1       4.742   3.971  16.915  0.00  0.00    +0.000 A 
ATOM     15  C   UNL     1       5.585   3.669  15.842  0.00  0.00    +0.000 A 
ATOM     16  C   UNL     1       6.061   4.692  15.027  0.00  0.00    +0.000 A 
ATOM     17  F   UNL     1       6.866   4.398  13.998  0.00  0.00    +0.000 F 
ATOM     18  C   UNL     1       5.716   6.016  15.262  0.00  0.00    +0.000 A 
ATOM     19  C   UNL     1       4.849   6.322  16.311  0.00  0.00    +0.000 A 
ENDBRANCH   7  13
ENDBRANCH   2   5
BRANCH   1  20
ATOM     20  C   UNL     1       0.683  10.136  20.046  0.00  0.00    +0.000 C 
BRANCH  20  24
ATOM     21  C   UNL     1      -2.868  11.203  17.780  0.00  0.00    +0.000 A 
ATOM     22  C   UNL     1      -2.005  10.198  17.324  0.00  0.00    +0.000 A 
ATOM     23  C   UNL     1      -0.848   9.866  18.041  0.00  0.00    +0.000 A 
ATOM     24  C   UNL     1      -0.524  10.534  19.230  0.00  0.00    +0.000 A 
ATOM     25  C   UNL     1      -1.390  11.536  19.686  0.00  0.00    +0.000 A 
ATOM     26  C   UNL     1      -2.547  11.868  18.972  0.00  0.00    +0.000 A 
BRANCH  21  27
ATOM     27  C   UNL     1      -4.107  11.574  17.002  0.00  0.00    +0.000 C 
BRANCH  27  28
ATOM     28  S   UNL     1      -5.548  11.676  18.077  0.00  0.00    +0.000 S 
ATOM     29  O   UNL     1      -5.405  12.835  18.934  0.00  0.00    +0.000 OA
ATOM     30  O   UNL     1      -5.873  10.383  18.623  0.00  0.00    +0.000 OA
BRANCH  28  31
ATOM     31  N   UNL     1      -6.804  12.062  17.032  0.00  0.00    +0.000 NA
ATOM     32  H   UNL     1      -6.419  12.296  16.115  0.00  0.00    +0.000 HD
ATOM     33  H   UNL     1      -7.373  12.810  17.431  0.00  0.00    +0.000 HD
ENDBRANCH  28  31
ENDBRANCH  27  28
ENDBRANCH  21  27
ENDBRANCH  20  24
ENDBRANCH   1  20
TORSDOF 7
ENDMDL
MODEL 3
REMARK VINA RESULT:      -8.1      0.617      1.158
REMARK  Name = 
REMARK  7 active torsions:
REMARK  status: ('A' for Active; 'I' for Inactive)
REMARK    1  A    between atoms: N_1  and  S_2
REMARK    2  A    between atoms: S_2  and  C_5
REMARK    3  A    between atoms: C_5  and  C_6
REMARK    4  A    between atoms: C_9  and  C_10
REMARK    5  A    between atoms: C_10  and  N_11
REMARK    6  A    between atoms: C_12  and  C_14
REMARK    7  A    between atoms: N_16  and  C_17
REMARK                            x       y       z     vdW  Elec       q    Type
REMARK                         _______ _______ _______ _____ _____    ______ ____
ROOT
ATOM      1  N   UNL     1       2.210   7.493  20.067  0.00  0.00    +0.000 N 
ATOM      2  C   UNL     1       2.074   6.139  20.298  0.00  0.00    +0.000 C 
ATOM      3  O   UNL     1       1.484   5.677  21.272  0.00  0.00    +0.000 OA
ATOM      4  H   UNL     1       2.586   7.750  19.160  0.00  0.00    +0.000 HD
ENDROOT
BRANCH   2   5
ATOM      5  C   UNL     1       2.669   5.282  19.253  0.00  0.00    +0.000 A 
ATOM      6  N   UNL     1       3.756   5.666  18.528  0.00  0.00    +0.000 NA
ATOM      7  N   UNL     1       3.953   4.659  17.616  0.00  0.00    +0.000 N 
ATOM      8  C   UNL     1       3.054   3.658  17.810  0.00  0.00    +0.000 A 
ATOM      9  C   UNL     1       2.259   4.001  18.860  0.00  0.00    +0.000 A 
ATOM     10  C   UNL     1       1.318   2.916  19.197  0.00  0.00    +0.000 C 
ATOM     11  C   UNL     1       1.948   1.700  18.425  0.00  0.00    +0.000 C 
ATOM     12  C   UNL     1       2.847   2.297  17.289  0.00  0.00    +0.000 C 
BRANCH   7  13
ATOM     13  C   UNL     1       4.995   4.705  16.657  0.00  0.00    +0.000 A 
ATOM     14  C   UNL     1       4.742   4.312  15.337  0.00  0.00    +0.000 A 
ATOM     15  C   UNL     1       5.745   4.451  14.374  0.00  0.00    +0.000 A 
ATOM     16  C   UNL     1       6.997   4.935  14.745  0.00  0.00    +0.000 A 
ATOM     17  F   UNL     1       7.954   5.071  13.818  0.00  0.00    +0.000 F 
ATOM     18  C   UNL     1       7.271   5.282  16.060  0.00  0.00    +0.000 A 
ATOM     19  C   UNL     1       6.266   5.177  17.021  0.00  0.00    +0.000 A 
ENDBRANCH   7  13
ENDBRANCH   2   5
BRANCH   1  20
ATOM     20  C   UNL     1       1.557   8.479  20.896  0.00  0.00    +0.000 C 
BRANCH  20  24
ATOM     21  C   UNL     1      -1.076  11.114  18.659  0.00  0.00    +0.000 A 
ATOM     22  C   UNL     1      -1.165  11.033  20.055  0.00  0.00    +0.000 A 
ATOM     23  C   UNL     1      -0.332  10.169  20.778  0.00  0.00    +0.000 A 
ATOM     24  C   UNL     1       0.607   9.361  20.121  0.00  0.00    +0.000 A 
ATOM     25  C   UNL     1       0.697   9.446  18.725  0.00  0.00    +0.000 A 
ATOM     26  C   UNL     1      -0.133  10.311  18.003  0.00  0.00    +0.000 A 
BRANCH  21  27
ATOM     27  C   UNL     1      -1.983  12.032  17.876  0.00  0.00    +0.000 C 
BRANCH  27  28
ATOM     28  S   UNL     1      -3.336  11.119  17.115  0.00  0.00    +0.000 S 
ATOM     29  O   UNL     1      -4.536  11.927  17.182  0.00  0.00    +0.000 OA
ATOM     30  O   UNL     1      -3.338   9.747  17.552  0.00  0.00    +0.000 OA
BRANCH  28  31
ATOM     31  N   UNL     1      -2.930  11.081  15.487  0.00  0.00    +0.000 NA
ATOM     32  H   UNL     1      -3.741  11.359  14.931  0.00  0.00    +0.000 HD
ATOM     33  H   UNL     1      -2.572  10.158  15.238  0.00  0.00    +0.000 HD
ENDBRANCH  28  31
ENDBRANCH  27  28
ENDBRANCH  21  27
ENDBRANCH  20  24
ENDBRANCH   1  20
TORSDOF 7
ENDMDL
MODEL 4
REMARK VINA RESULT:      -8.0      5.158     10.440
REMARK  Name = 
REMARK  7 active torsions:
REMARK  status: ('A' for Active; 'I' for Inactive)
REMARK    1  A    between atoms: N_1  and  S_2
REMARK    2  A    between atoms: S_2  and  C_5
REMARK    3  A    between atoms: C_5  and  C_6
REMARK    4  A    between atoms: C_9  and  C_10
REMARK    5  A    between atoms: C_10  and  N_11
REMARK    6  A    between atoms: C_12  and  C_14
REMARK    7  A    between atoms: N_16  and  C_17
REMARK                            x       y       z     vdW  Elec       q    Type
REMARK                         _______ _______ _______ _____ _____    ______ ____
ROOT
ATOM      1  N   UNL     1       0.454  10.121  18.069  0.00  0.00    +0.000 N 
ATOM      2  C   UNL     1      -0.036  11.116  18.891  0.00  0.00    +0.000 C 
ATOM      3  O   UNL     1       0.668  11.755  19.669  0.00  0.00    +0.000 OA
ATOM      4  H   UNL     1      -0.191   9.769  17.369  0.00  0.00    +0.000 HD
ENDROOT
BRANCH   2   5
ATOM      5  C   UNL     1      -1.481  11.378  18.732  0.00  0.00    +0.000 A 
ATOM      6  N   UNL     1      -2.208  12.038  19.675  0.00  0.00    +0.000 NA
ATOM      7  N   UNL     1      -3.501  12.008  19.216  0.00  0.00    +0.000 N 
ATOM      8  C   UNL     1      -3.562  11.402  18.001  0.00  0.00    +0.000 A 
ATOM      9  C   UNL     1      -2.301  11.031  17.650  0.00  0.00    +0.000 A 
ATOM     10  C   UNL     1      -2.269  10.453  16.293  0.00  0.00    +0.000 C 
ATOM     11  C   UNL     1      -3.665  10.901  15.726  0.00  0.00    +0.000 C 
ATOM     12  C   UNL     1      -4.583  11.203  16.959  0.00  0.00    +0.000 C 
BRANCH   7  13
ATOM     13  C   UNL     1      -4.572  12.585  19.943  0.00  0.00    +0.000 A 
ATOM     14  C   UNL     1      -4.373  13.783  20.639  0.00  0.00    +0.000 A 
ATOM     15  C   UNL     1      -5.457  14.399  21.272  0.00  0.00    +0.000 A 
ATOM     16  C   UNL     1      -6.710  13.793  21.241  0.00  0.00    +0.000 A 
ATOM     17  F   UNL     1      -7.747  14.389  21.846  0.00  0.00    +0.000 F 
ATOM     18  C   UNL     1      -6.907  12.582  20.594  0.00  0.00    +0.000 A 
ATOM     19  C   UNL     1      -5.838  11.977  19.932  0.00  0.00    +0.000 A 
ENDBRANCH   7  13
ENDBRANCH   2   5
BRANCH   1  20
ATOM     20  C   UNL     1       1.866   9.836  17.973  0.00  0.00    +0.000 C 
BRANCH  20  24
ATOM     21  C   UNL     1       2.763   5.769  19.211  0.00  0.00    +0.000 A 
ATOM     22  C   UNL     1       2.038   6.626  20.048  0.00  0.00    +0.000 A 
ATOM     23  C   UNL     1       1.764   7.944  19.661  0.00  0.00    +0.000 A 
ATOM     24  C   UNL     1       2.215   8.439  18.429  0.00  0.00    +0.000 A 
ATOM     25  C   UNL     1       2.938   7.579  17.592  0.00  0.00    +0.000 A 
ATOM     26  C   UNL     1       3.210   6.261  17.977  0.00  0.00    +0.000 A 
BRANCH  21  27
ATOM     27  C   UNL     1       3.073   4.352  19.632  0.00  0.00    +0.000 C 
BRANCH  27  28
ATOM     28  S   UNL     1       1.802   3.210  19.066  0.00  0.00    +0.000 S 
ATOM     29  O   UNL     1       2.307   1.857  19.186  0.00  0.00    +0.000 OA
ATOM     30  O   UNL     1       1.204   3.674  17.840  0.00  0.00    +0.000 OA
BRANCH  28  31
ATOM     31  N   UNL     1       0.603   3.330  20.234  0.00  0.00    +0.000 NA
ATOM     32  H   UNL     1       0.609   4.274  20.627  0.00  0.00    +0.000 HD
ATOM     33  H   UNL     1       0.728   2.603  20.939  0.00  0.00    +0.000 HD
ENDBRANCH  28  31
ENDBRANCH  27  28
ENDBRANCH  21  27
ENDBRANCH  20  24
ENDBRANCH   1  20
TORSDOF 7
ENDMDL
MODEL 5
REMARK VINA RESULT:      -8.0      4.722      9.256
REMARK  Name = 
REMARK  7 active torsions:
REMARK  status: ('A' for Active; 'I' for Inactive)
REMARK    1  A    between atoms: N_1  and  S_2
REMARK    2  A    between atoms: S_2  and  C_5
REMARK    3  A    between atoms: C_5  and  C_6
REMARK    4  A    between atoms: C_9  and  C_10
REMARK    5  A    between atoms: C_10  and  N_11
REMARK    6  A    between atoms: C_12  and  C_14
REMARK    7  A    between atoms: N_16  and  C_17
REMARK                            x       y       z     vdW  Elec       q    Type
REMARK                         _______ _______ _______ _____ _____    ______ ____
ROOT
ATOM      1  N   UNL     1       1.456   8.191  20.613  0.00  0.00    +0.000 N 
ATOM      2  C   UNL     1       0.309   8.742  21.148  0.00  0.00    +0.000 C 
ATOM      3  O   UNL     1      -0.594   8.070  21.642  0.00  0.00    +0.000 OA
ATOM      4  H   UNL     1       2.190   8.849  20.371  0.00  0.00    +0.000 HD
ENDROOT
BRANCH   2   5
ATOM      5  C   UNL     1       0.270  10.217  21.113  0.00  0.00    +0.000 A 
ATOM      6  N   UNL     1       0.906  10.940  20.150  0.00  0.00    +0.000 NA
ATOM      7  N   UNL     1       0.713  12.253  20.500  0.00  0.00    +0.000 N 
ATOM      8  C   UNL     1      -0.068  12.340  21.609  0.00  0.00    +0.000 A 
ATOM      9  C   UNL     1      -0.399  11.078  21.995  0.00  0.00    +0.000 A 
ATOM     10  C   UNL     1      -1.330  11.092  23.138  0.00  0.00    +0.000 C 
ATOM     11  C   UNL     1      -1.821  12.586  23.127  0.00  0.00    +0.000 C 
ATOM     12  C   UNL     1      -0.738  13.416  22.359  0.00  0.00    +0.000 C 
BRANCH   7  13
ATOM     13  C   UNL     1       1.249  13.322  19.741  0.00  0.00    +0.000 A 
ATOM     14  C   UNL     1       0.469  14.457  19.492  0.00  0.00    +0.000 A 
ATOM     15  C   UNL     1       1.035  15.549  18.828  0.00  0.00    +0.000 A 
ATOM     16  C   UNL     1       2.352  15.479  18.382  0.00  0.00    +0.000 A 
ATOM     17  F   UNL     1       2.893  16.529  17.749  0.00  0.00    +0.000 F 
ATOM     18  C   UNL     1       3.118  14.339  18.581  0.00  0.00    +0.000 A 
ATOM     19  C   UNL     1       2.571  13.258  19.272  0.00  0.00    +0.000 A 
ENDBRANCH   7  13
ENDBRANCH   2   5
BRANCH   1  20
ATOM     20  C   UNL     1       1.740   6.778  20.702  0.00  0.00    +0.000 C 
BRANCH  20  24
ATOM     21  C   UNL     1       4.425   5.368  17.591  0.00  0.00    +0.000 A 
ATOM     22  C   UNL     1       4.257   4.637  18.774  0.00  0.00    +0.000 A 
ATOM     23  C   UNL     1       3.408   5.099  19.788  0.00  0.00    +0.000 A 
ATOM     24  C   UNL     1       2.710   6.307  19.645  0.00  0.00    +0.000 A 
ATOM     25  C   UNL     1       2.877   7.035  18.460  0.00  0.00    +0.000 A 
ATOM     26  C   UNL     1       3.724   6.573  17.445  0.00  0.00    +0.000 A 
BRANCH  21  27
ATOM     27  C   UNL     1       5.352   4.881  16.503  0.00  0.00    +0.000 C 
BRANCH  27  28
ATOM     28  S   UNL     1       7.016   5.531  16.724  0.00  0.00    +0.000 S 
ATOM     29  O   UNL     1       7.007   6.460  17.835  0.00  0.00    +0.000 OA
ATOM     30  O   UNL     1       7.597   5.894  15.456  0.00  0.00    +0.000 OA
BRANCH  28  31
ATOM     31  N   UNL     1       7.896   4.210  17.270  0.00  0.00    +0.000 NA
ATOM     32  H   UNL     1       7.251   3.474  17.564  0.00  0.00    +0.000 HD
ATOM     33  H   UNL     1       8.537   4.499  18.010  0.00  0.00    +0.000 HD
ENDBRANCH  28  31
ENDBRANCH  27  28
ENDBRANCH  21  27
ENDBRANCH  20  24
ENDBRANCH   1  20
TORSDOF 7
ENDMDL
MODEL 6
REMARK VINA RESULT:      -8.0      4.684      9.249
REMARK  Name = 
REMARK  7 active torsions:
REMARK  status: ('A' for Active; 'I' for Inactive)
REMARK    1  A    between atoms: N_1  and  S_2
REMARK    2  A    between atoms: S_2  and  C_5
REMARK    3  A    between atoms: C_5  and  C_6
REMARK    4  A    between atoms: C_9  and  C_10
REMARK    5  A    between atoms: C_10  and  N_11
REMARK    6  A    between atoms: C_12  and  C_14
REMARK    7  A    between atoms: N_16  and  C_17
REMARK                            x       y       z     vdW  Elec       q    Type
REMARK                         _______ _______ _______ _____ _____    ______ ____
ROOT
ATOM      1  N   UNL     1       1.337   8.205  20.721  0.00  0.00    +0.000 N 
ATOM      2  C   UNL     1       0.204   8.795  21.244  0.00  0.00    +0.000 C 
ATOM      3  O   UNL     1      -0.724   8.155  21.733  0.00  0.00    +0.000 OA
ATOM      4  H   UNL     1       2.093   8.838  20.481  0.00  0.00    +0.000 HD
ENDROOT
BRANCH   2   5
ATOM      5  C   UNL     1       0.211  10.271  21.200  0.00  0.00    +0.000 A 
ATOM      6  N   UNL     1       0.902  10.967  20.256  0.00  0.00    +0.000 NA
ATOM      7  N   UNL     1       0.738  12.288  20.593  0.00  0.00    +0.000 N 
ATOM      8  C   UNL     1      -0.076  12.406  21.675  0.00  0.00    +0.000 A 
ATOM      9  C   UNL     1      -0.458  11.157  22.055  0.00  0.00    +0.000 A 
ATOM     10  C   UNL     1      -1.427  11.206  23.167  0.00  0.00    +0.000 C 
ATOM     11  C   UNL     1      -1.870  12.715  23.132  0.00  0.00    +0.000 C 
ATOM     12  C   UNL     1      -0.736  13.506  22.397  0.00  0.00    +0.000 C 
BRANCH   7  13
ATOM     13  C   UNL     1       1.333  13.336  19.847  0.00  0.00    +0.000 A 
ATOM     14  C   UNL     1       2.491  13.087  19.101  0.00  0.00    +0.000 A 
ATOM     15  C   UNL     1       3.017  14.096  18.291  0.00  0.00    +0.000 A 
ATOM     16  C   UNL     1       2.412  15.350  18.267  0.00  0.00    +0.000 A 
ATOM     17  F   UNL     1       2.917  16.314  17.486  0.00  0.00    +0.000 F 
ATOM     18  C   UNL     1       1.291  15.620  19.040  0.00  0.00    +0.000 A 
ATOM     19  C   UNL     1       0.741  14.608  19.827  0.00  0.00    +0.000 A 
ENDBRANCH   7  13
ENDBRANCH   2   5
BRANCH   1  20
ATOM     20  C   UNL     1       1.575   6.784  20.820  0.00  0.00    +0.000 C 
BRANCH  20  24
ATOM     21  C   UNL     1       4.385   5.363  17.827  0.00  0.00    +0.000 A 
ATOM     22  C   UNL     1       3.661   6.545  17.622  0.00  0.00    +0.000 A 
ATOM     23  C   UNL     1       2.739   6.995  18.575  0.00  0.00    +0.000 A 
ATOM     24  C   UNL     1       2.515   6.271  19.755  0.00  0.00    +0.000 A 
ATOM     25  C   UNL     1       3.242   5.091  19.959  0.00  0.00    +0.000 A 
ATOM     26  C   UNL     1       4.165   4.642  19.008  0.00  0.00    +0.000 A 
BRANCH  21  27
ATOM     27  C   UNL     1       5.368   4.866  16.794  0.00  0.00    +0.000 C 
BRANCH  27  28
ATOM     28  S   UNL     1       7.016   5.529  17.089  0.00  0.00    +0.000 S 
ATOM     29  O   UNL     1       6.970   6.381  18.260  0.00  0.00    +0.000 OA
ATOM     30  O   UNL     1       7.612   5.988  15.860  0.00  0.00    +0.000 OA
BRANCH  28  31
ATOM     31  N   UNL     1       7.911   4.191  17.561  0.00  0.00    +0.000 NA
ATOM     32  H   UNL     1       8.869   4.481  17.767  0.00  0.00    +0.000 HD
ATOM     33  H   UNL     1       7.858   3.464  16.846  0.00  0.00    +0.000 HD
ENDBRANCH  28  31
ENDBRANCH  27  28
ENDBRANCH  21  27
ENDBRANCH  20  24
ENDBRANCH   1  20
TORSDOF 7
ENDMDL
MODEL 7
REMARK VINA RESULT:      -7.9      2.092      3.301
REMARK  Name = 
REMARK  7 active torsions:
REMARK  status: ('A' for Active; 'I' for Inactive)
REMARK    1  A    between atoms: N_1  and  S_2
REMARK    2  A    between atoms: S_2  and  C_5
REMARK    3  A    between atoms: C_5  and  C_6
REMARK    4  A    between atoms: C_9  and  C_10
REMARK    5  A    between atoms: C_10  and  N_11
REMARK    6  A    between atoms: C_12  and  C_14
REMARK    7  A    between atoms: N_16  and  C_17
REMARK                            x       y       z     vdW  Elec       q    Type
REMARK                         _______ _______ _______ _____ _____    ______ ____
ROOT
ATOM      1  N   UNL     1       3.112   5.886  19.739  0.00  0.00    +0.000 N 
ATOM      2  C   UNL     1       3.020   5.202  18.544  0.00  0.00    +0.000 C 
ATOM      3  O   UNL     1       1.960   4.771  18.096  0.00  0.00    +0.000 OA
ATOM      4  H   UNL     1       4.011   6.319  19.931  0.00  0.00    +0.000 HD
ENDROOT
BRANCH   2   5
ATOM      5  C   UNL     1       4.301   5.060  17.824  0.00  0.00    +0.000 A 
ATOM      6  N   UNL     1       4.363   4.904  16.474  0.00  0.00    +0.000 NA
ATOM      7  N   UNL     1       5.694   4.721  16.194  0.00  0.00    +0.000 N 
ATOM      8  C   UNL     1       6.438   4.821  17.328  0.00  0.00    +0.000 A 
ATOM      9  C   UNL     1       5.594   5.075  18.365  0.00  0.00    +0.000 A 
ATOM     10  C   UNL     1       6.338   5.296  19.620  0.00  0.00    +0.000 C 
ATOM     11  C   UNL     1       7.798   5.525  19.085  0.00  0.00    +0.000 C 
ATOM     12  C   UNL     1       7.870   4.875  17.662  0.00  0.00    +0.000 C 
BRANCH   7  13
ATOM     13  C   UNL     1       6.165   4.503  14.875  0.00  0.00    +0.000 A 
ATOM     14  C   UNL     1       5.487   3.612  14.034  0.00  0.00    +0.000 A 
ATOM     15  C   UNL     1       5.897   3.475  12.705  0.00  0.00    +0.000 A 
ATOM     16  C   UNL     1       6.999   4.190  12.244  0.00  0.00    +0.000 A 
ATOM     17  F   UNL     1       7.386   4.058  10.968  0.00  0.00    +0.000 F 
ATOM     18  C   UNL     1       7.706   5.039  13.084  0.00  0.00    +0.000 A 
ATOM     19  C   UNL     1       7.284   5.206  14.402  0.00  0.00    +0.000 A 
ENDBRANCH   7  13
ENDBRANCH   2   5
BRANCH   1  20
ATOM     20  C   UNL     1       1.943   6.257  20.501  0.00  0.00    +0.000 C 
BRANCH  20  24
ATOM     21  C   UNL     1       0.797  10.386  19.782  0.00  0.00    +0.000 A 
ATOM     22  C   UNL     1       0.527   9.774  21.013  0.00  0.00    +0.000 A 
ATOM     23  C   UNL     1       0.877   8.437  21.242  0.00  0.00    +0.000 A 
ATOM     24  C   UNL     1       1.500   7.677  20.241  0.00  0.00    +0.000 A 
ATOM     25  C   UNL     1       1.771   8.291  19.012  0.00  0.00    +0.000 A 
ATOM     26  C   UNL     1       1.424   9.628  18.783  0.00  0.00    +0.000 A 
BRANCH  21  27
ATOM     27  C   UNL     1       0.407  11.822  19.527  0.00  0.00    +0.000 C 
BRANCH  27  28
ATOM     28  S   UNL     1      -1.280  11.940  18.908  0.00  0.00    +0.000 S 
ATOM     29  O   UNL     1      -2.015  12.871  19.740  0.00  0.00    +0.000 OA
ATOM     30  O   UNL     1      -1.809  10.634  18.608  0.00  0.00    +0.000 OA
BRANCH  28  31
ATOM     31  N   UNL     1      -1.113  12.718  17.430  0.00  0.00    +0.000 NA
ATOM     32  H   UNL     1      -0.195  12.502  17.038  0.00  0.00    +0.000 HD
ATOM     33  H   UNL     1      -1.275  13.719  17.542  0.00  0.00    +0.000 HD
ENDBRANCH  28  31
ENDBRANCH  27  28
ENDBRANCH  21  27
ENDBRANCH  20  24
ENDBRANCH   1  20
TORSDOF 7
ENDMDL
MODEL 8
REMARK VINA RESULT:      -7.9      4.818      9.845
REMARK  Name = 
REMARK  7 active torsions:
REMARK  status: ('A' for Active; 'I' for Inactive)
REMARK    1  A    between atoms: N_1  and  S_2
REMARK    2  A    between atoms: S_2  and  C_5
REMARK    3  A    between atoms: C_5  and  C_6
REMARK    4  A    between atoms: C_9  and  C_10
REMARK    5  A    between atoms: C_10  and  N_11
REMARK    6  A    between atoms: C_12  and  C_14
REMARK    7  A    between atoms: N_16  and  C_17
REMARK                            x       y       z     vdW  Elec       q    Type
REMARK                         _______ _______ _______ _____ _____    ______ ____
ROOT
ATOM      1  N   UNL     1       0.866   8.464  20.305  0.00  0.00    +0.000 N 
ATOM      2  C   UNL     1       0.856   9.705  20.909  0.00  0.00    +0.000 C 
ATOM      3  O   UNL     1       1.485   9.960  21.934  0.00  0.00    +0.000 OA
ATOM      4  H   UNL     1       0.430   8.416  19.389  0.00  0.00    +0.000 HD
ENDROOT
BRANCH   2   5
ATOM      5  C   UNL     1       0.052  10.720  20.200  0.00  0.00    +0.000 A 
ATOM      6  N   UNL     1      -1.258  10.523  19.888  0.00  0.00    +0.000 NA
ATOM      7  N   UNL     1      -1.627  11.633  19.170  0.00  0.00    +0.000 N 
ATOM      8  C   UNL     1      -0.595  12.514  19.091  0.00  0.00    +0.000 A 
ATOM      9  C   UNL     1       0.463  11.988  19.765  0.00  0.00    +0.000 A 
ATOM     10  C   UNL     1       1.595  12.933  19.810  0.00  0.00    +0.000 C 
ATOM     11  C   UNL     1       0.899  14.278  19.389  0.00  0.00    +0.000 C 
ATOM     12  C   UNL     1      -0.407  13.894  18.615  0.00  0.00    +0.000 C 
BRANCH   7  13
ATOM     13  C   UNL     1      -2.934  11.791  18.645  0.00  0.00    +0.000 A 
ATOM     14  C   UNL     1      -3.196  11.438  17.315  0.00  0.00    +0.000 A 
ATOM     15  C   UNL     1      -4.506  11.503  16.832  0.00  0.00    +0.000 A 
ATOM     16  C   UNL     1      -5.526  11.959  17.662  0.00  0.00    +0.000 A 
ATOM     17  F   UNL     1      -6.781  12.017  17.196  0.00  0.00    +0.000 F 
ATOM     18  C   UNL     1      -5.268  12.357  18.966  0.00  0.00    +0.000 A 
ATOM     19  C   UNL     1      -3.969  12.264  19.466  0.00  0.00    +0.000 A 
ENDBRANCH   7  13
ENDBRANCH   2   5
BRANCH   1  20
ATOM     20  C   UNL     1       1.719   7.395  20.767  0.00  0.00    +0.000 C 
BRANCH  20  24
ATOM     21  C   UNL     1       4.265   5.736  17.661  0.00  0.00    +0.000 A 
ATOM     22  C   UNL     1       3.612   6.961  17.470  0.00  0.00    +0.000 A 
ATOM     23  C   UNL     1       2.774   7.489  18.461  0.00  0.00    +0.000 A 
ATOM     24  C   UNL     1       2.565   6.801  19.665  0.00  0.00    +0.000 A 
ATOM     25  C   UNL     1       3.221   5.579  19.855  0.00  0.00    +0.000 A 
ATOM     26  C   UNL     1       4.061   5.051  18.867  0.00  0.00    +0.000 A 
BRANCH  21  27
ATOM     27  C   UNL     1       5.156   5.157  16.589  0.00  0.00    +0.000 C 
BRANCH  27  28
ATOM     28  S   UNL     1       6.881   5.591  16.868  0.00  0.00    +0.000 S 
ATOM     29  O   UNL     1       6.936   6.696  17.804  0.00  0.00    +0.000 OA
ATOM     30  O   UNL     1       7.607   5.635  15.624  0.00  0.00    +0.000 OA
BRANCH  28  31
ATOM     31  N   UNL     1       7.496   4.277  17.712  0.00  0.00    +0.000 NA
ATOM     32  H   UNL     1       7.017   3.428  17.409  0.00  0.00    +0.000 HD
ATOM     33  H   UNL     1       7.422   4.442  18.717  0.00  0.00    +0.000 HD
ENDBRANCH  28  31
ENDBRANCH  27  28
ENDBRANCH  21  27
ENDBRANCH  20  24
ENDBRANCH   1  20
TORSDOF 7
ENDMDL
MODEL 9
REMARK VINA RESULT:      -7.9      5.067     10.421
REMARK  Name = 
REMARK  7 active torsions:
REMARK  status: ('A' for Active; 'I' for Inactive)
REMARK    1  A    between atoms: N_1  and  S_2
REMARK    2  A    between atoms: S_2  and  C_5
REMARK    3  A    between atoms: C_5  and  C_6
REMARK    4  A    between atoms: C_9  and  C_10
REMARK    5  A    between atoms: C_10  and  N_11
REMARK    6  A    between atoms: C_12  and  C_14
REMARK    7  A    between atoms: N_16  and  C_17
REMARK                            x       y       z     vdW  Elec       q    Type
REMARK                         _______ _______ _______ _____ _____    ______ ____
ROOT
ATOM      1  N   UNL     1       0.584  10.087  18.169  0.00  0.00    +0.000 N 
ATOM      2  C   UNL     1       0.177  11.321  18.633  0.00  0.00    +0.000 C 
ATOM      3  O   UNL     1       0.960  12.195  19.000  0.00  0.00    +0.000 OA
ATOM      4  H   UNL     1      -0.142   9.509  17.759  0.00  0.00    +0.000 HD
ENDROOT
BRANCH   2   5
ATOM      5  C   UNL     1      -1.285  11.524  18.621  0.00  0.00    +0.000 A 
ATOM      6  N   UNL     1      -1.934  12.203  19.605  0.00  0.00    +0.000 NA
ATOM      7  N   UNL     1      -3.267  12.105  19.291  0.00  0.00    +0.000 N 
ATOM      8  C   UNL     1      -3.432  11.437  18.118  0.00  0.00    +0.000 A 
ATOM      9  C   UNL     1      -2.201  11.094  17.650  0.00  0.00    +0.000 A 
ATOM     10  C   UNL     1      -2.290  10.450  16.326  0.00  0.00    +0.000 C 
ATOM     11  C   UNL     1      -3.756  10.820  15.894  0.00  0.00    +0.000 C 
ATOM     12  C   UNL     1      -4.549  11.150  17.203  0.00  0.00    +0.000 C 
BRANCH   7  13
ATOM     13  C   UNL     1      -4.277  12.679  20.101  0.00  0.00    +0.000 A 
ATOM     14  C   UNL     1      -5.524  12.051  20.207  0.00  0.00    +0.000 A 
ATOM     15  C   UNL     1      -6.482  12.568  21.084  0.00  0.00    +0.000 A 
ATOM     16  C   UNL     1      -6.204  13.724  21.807  0.00  0.00    +0.000 A 
ATOM     17  F   UNL     1      -7.124  14.214  22.650  0.00  0.00    +0.000 F 
ATOM     18  C   UNL     1      -4.989  14.381  21.673  0.00  0.00    +0.000 A 
ATOM     19  C   UNL     1      -4.016  13.853  20.825  0.00  0.00    +0.000 A 
ENDBRANCH   7  13
ENDBRANCH   2   5
BRANCH   1  20
ATOM     20  C   UNL     1       1.978   9.769  17.962  0.00  0.00    +0.000 C 
BRANCH  20  24
ATOM     21  C   UNL     1       2.869   5.657  19.047  0.00  0.00    +0.000 A 
ATOM     22  C   UNL     1       2.104   6.469  19.895  0.00  0.00    +0.000 A 
ATOM     23  C   UNL     1       1.832   7.802  19.558  0.00  0.00    +0.000 A 
ATOM     24  C   UNL     1       2.323   8.356  18.367  0.00  0.00    +0.000 A 
ATOM     25  C   UNL     1       3.085   7.541  17.519  0.00  0.00    +0.000 A 
ATOM     26  C   UNL     1       3.356   6.209  17.854  0.00  0.00    +0.000 A 
BRANCH  21  27
ATOM     27  C   UNL     1       3.177   4.226  19.415  0.00  0.00    +0.000 C 
BRANCH  27  28
ATOM     28  S   UNL     1       1.820   3.130  18.967  0.00  0.00    +0.000 S 
ATOM     29  O   UNL     1       1.198   3.632  17.759  0.00  0.00    +0.000 OA
ATOM     30  O   UNL     1       1.031   2.792  20.124  0.00  0.00    +0.000 OA
BRANCH  28  31
ATOM     31  N   UNL     1       2.585   1.710  18.503  0.00  0.00    +0.000 NA
ATOM     32  H   UNL     1       2.498   1.020  19.252  0.00  0.00    +0.000 HD
ATOM     33  H   UNL     1       3.554   1.902  18.248  0.00  0.00    +0.000 HD
ENDBRANCH  28  31
ENDBRANCH  27  28
ENDBRANCH  21  27
ENDBRANCH  20  24
ENDBRANCH   1  20
TORSDOF 7
ENDMDL
