MODEL 1
REMARK VINA RESULT:      -8.1      0.000      0.000
REMARK  Name = 
REMARK  6 active torsions:
REMARK  status: ('A' for Active; 'I' for Inactive)
REMARK    1  A    between atoms: C_1  and  C_2
REMARK    2  A    between atoms: C_2  and  N_3
REMARK    3  A    between atoms: C_2  and  C_17
REMARK    4  A    between atoms: N_6  and  C_7
REMARK    5  A    between atoms: C_15  and  O_16
REMARK    6  A    between atoms: C_21  and  N_22
REMARK                            x       y       z     vdW  Elec       q    Type
REMARK                         _______ _______ _______ _____ _____    ______ ____
ROOT
ATOM      1  N   UNL     1       1.258   9.143  19.282  0.00  0.00    +0.000 N 
ATOM      2  C   UNL     1       1.994   8.378  18.430  0.00  0.00    +0.000 C 
ATOM      3  O   UNL     1       2.397   8.785  17.349  0.00  0.00    +0.000 OA
ATOM      4  N   UNL     1       2.239   7.117  18.916  0.00  0.00    +0.000 N 
ATOM      5  H   UNL     1       1.111   8.795  20.218  0.00  0.00    +0.000 HD
ATOM      6  H   UNL     1       1.685   6.756  19.683  0.00  0.00    +0.000 HD
ENDROOT
BRANCH   4   7
ATOM      7  C   UNL     1       2.942   6.173  18.085  0.00  0.00    +0.000 C 
ATOM      8  C   UNL     1       2.545   4.729  18.254  0.00  0.00    +0.000 A 
ATOM      9  C   UNL     1       1.367   4.173  18.718  0.00  0.00    +0.000 A 
ATOM     10  C   UNL     1       1.207   2.790  18.608  0.00  0.00    +0.000 A 
ATOM     11  C   UNL     1       2.201   1.997  18.011  0.00  0.00    +0.000 A 
ATOM     12  C   UNL     1       3.413   2.557  17.606  0.00  0.00    +0.000 A 
ATOM     13  C   UNL     1       3.593   3.915  17.792  0.00  0.00    +0.000 A 
ATOM     14  C   UNL     1       4.836   4.736  17.557  0.00  0.00    +0.000 C 
ATOM     15  C   UNL     1       4.468   6.038  18.318  0.00  0.00    +0.000 C 
BRANCH  15  16
ATOM     16  O   UNL     1       4.791   5.912  19.721  0.00  0.00    +0.000 OA
ATOM     17  H   UNL     1       4.104   6.389  20.221  0.00  0.00    +0.000 HD
ENDBRANCH  15  16
ENDBRANCH   4   7
BRANCH   1  19
ATOM     18  C   UNL     1       1.219  11.440  20.208  0.00  0.00    +0.000 C 
ATOM     19  C   UNL     1       0.942  10.539  19.001  0.00  0.00    +0.000 C 
BRANCH  19  20
ATOM     20  C   UNL     1      -0.498  10.644  18.549  0.00  0.00    +0.000 A 
ATOM     21  C   UNL     1      -1.018   9.770  17.593  0.00  0.00    +0.000 A 
ATOM     22  C   UNL     1      -2.362   9.850  17.241  0.00  0.00    +0.000 A 
ATOM     23  C   UNL     1      -3.207  10.769  17.879  0.00  0.00    +0.000 A 
ATOM     24  C   UNL     1      -2.742  11.623  18.888  0.00  0.00    +0.000 A 
ATOM     25  C   UNL     1      -1.361  11.588  19.137  0.00  0.00    +0.000 A 
BRANCH  24  26
ATOM     26  N   UNL     1      -3.570  12.466  19.615  0.00  0.00    +0.000 N 
ATOM     27  C   UNL     1      -3.081  13.064  20.865  0.00  0.00    +0.000 C 
ATOM     28  C   UNL     1      -4.218  12.849  21.854  0.00  0.00    +0.000 C 
ATOM     29  C   UNL     1      -5.450  12.953  20.977  0.00  0.00    +0.000 C 
ATOM     30  C   UNL     1      -5.021  12.255  19.687  0.00  0.00    +0.000 C 
ENDBRANCH  24  26
ENDBRANCH  19  20
ENDBRANCH   1  19
TORSDOF 5
ENDMDL
MODEL 2
REMARK VINA RESULT:      -7.9      2.092      2.697
REMARK  Name = 
REMARK  6 active torsions:
REMARK  status: ('A' for Active; 'I' for Inactive)
REMARK    1  A    between atoms: C_1  and  C_2
REMARK    2  A    between atoms: C_2  and  N_3
REMARK    3  A    between atoms: C_2  and  C_17
REMARK    4  A    between atoms: N_6  and  C_7
REMARK    5  A    between atoms: C_15  and  O_16
REMARK    6  A    between atoms: C_21  and  N_22
REMARK                            x       y       z     vdW  Elec       q    Type
REMARK                         _______ _______ _______ _____ _____    ______ ____
ROOT
ATOM      1  N   UNL     1       1.875   8.915  19.454  0.00  0.00    +0.000 N 
ATOM      2  C   UNL     1       1.993   7.938  18.513  0.00  0.00    +0.000 C 
ATOM      3  O   UNL     1       1.229   7.832  17.565  0.00  0.00    +0.000 OA
ATOM      4  N   UNL     1       3.057   7.100  18.740  0.00  0.00    +0.000 N 
ATOM      5  H   UNL     1       2.639   9.036  20.104  0.00  0.00    +0.000 HD
ATOM      6  H   UNL     1       3.496   7.078  19.652  0.00  0.00    +0.000 HD
ENDROOT
BRANCH   4   7
ATOM      7  C   UNL     1       3.257   5.973  17.865  0.00  0.00    +0.000 C 
ATOM      8  C   UNL     1       2.662   4.668  18.330  0.00  0.00    +0.000 A 
ATOM      9  C   UNL     1       1.611   4.422  19.194  0.00  0.00    +0.000 A 
ATOM     10  C   UNL     1       1.158   3.107  19.317  0.00  0.00    +0.000 A 
ATOM     11  C   UNL     1       1.733   2.075  18.556  0.00  0.00    +0.000 A 
ATOM     12  C   UNL     1       2.835   2.322  17.737  0.00  0.00    +0.000 A 
ATOM     13  C   UNL     1       3.327   3.613  17.683  0.00  0.00    +0.000 A 
ATOM     14  C   UNL     1       4.562   4.117  16.982  0.00  0.00    +0.000 C 
ATOM     15  C   UNL     1       4.720   5.512  17.644  0.00  0.00    +0.000 C 
BRANCH  15  16
ATOM     16  O   UNL     1       5.445   5.402  18.888  0.00  0.00    +0.000 OA
ATOM     17  H   UNL     1       5.079   6.068  19.498  0.00  0.00    +0.000 HD
ENDBRANCH  15  16
ENDBRANCH   4   7
BRANCH   1  19
ATOM     18  C   UNL     1       1.452  11.295  18.915  0.00  0.00    +0.000 C 
ATOM     19  C   UNL     1       0.860   9.959  19.371  0.00  0.00    +0.000 C 
BRANCH  19  20
ATOM     20  C   UNL     1       0.165  10.087  20.710  0.00  0.00    +0.000 A 
ATOM     21  C   UNL     1       0.308   9.105  21.692  0.00  0.00    +0.000 A 
ATOM     22  C   UNL     1      -0.292   9.279  22.936  0.00  0.00    +0.000 A 
ATOM     23  C   UNL     1      -0.995  10.457  23.224  0.00  0.00    +0.000 A 
ATOM     24  C   UNL     1      -1.113  11.495  22.289  0.00  0.00    +0.000 A 
ATOM     25  C   UNL     1      -0.588  11.237  21.013  0.00  0.00    +0.000 A 
BRANCH  24  26
ATOM     26  N   UNL     1      -1.705  12.716  22.576  0.00  0.00    +0.000 N 
ATOM     27  C   UNL     1      -0.861  13.891  22.834  0.00  0.00    +0.000 C 
ATOM     28  C   UNL     1      -1.463  14.517  24.084  0.00  0.00    +0.000 C 
ATOM     29  C   UNL     1      -2.941  14.220  23.931  0.00  0.00    +0.000 C 
ATOM     30  C   UNL     1      -2.955  12.812  23.340  0.00  0.00    +0.000 C 
ENDBRANCH  24  26
ENDBRANCH  19  20
ENDBRANCH   1  19
TORSDOF 5
ENDMDL
MODEL 3
REMARK VINA RESULT:      -7.9      1.657      2.300
REMARK  Name = 
REMARK  6 active torsions:
REMARK  status: ('A' for Active; 'I' for Inactive)
REMARK    1  A    between atoms: C_1  and  C_2
REMARK    2  A    between atoms: C_2  and  N_3
REMARK    3  A    between atoms: C_2  and  C_17
REMARK    4  A    between atoms: N_6  and  C_7
REMARK    5  A    between atoms: C_15  and  O_16
REMARK    6  A    between atoms: C_21  and  N_22
REMARK                            x       y       z     vdW  Elec       q    Type
REMARK                         _______ _______ _______ _____ _____    ______ ____
ROOT
ATOM      1  N   UNL     1       1.819   8.812  19.592  0.00  0.00    +0.000 N 
ATOM      2  C   UNL     1       2.066   7.884  18.627  0.00  0.00    +0.000 C 
ATOM      3  O   UNL     1       1.466   7.855  17.562  0.00  0.00    +0.000 OA
ATOM      4  N   UNL     1       3.058   6.999  18.974  0.00  0.00    +0.000 N 
ATOM      5  H   UNL     1       2.468   8.872  20.363  0.00  0.00    +0.000 HD
ATOM      6  H   UNL     1       3.340   6.913  19.943  0.00  0.00    +0.000 HD
ENDROOT
BRANCH   4   7
ATOM      7  C   UNL     1       3.371   5.914  18.079  0.00  0.00    +0.000 C 
ATOM      8  C   UNL     1       2.736   4.588  18.409  0.00  0.00    +0.000 A 
ATOM      9  C   UNL     1       1.591   4.298  19.128  0.00  0.00    +0.000 A 
ATOM     10  C   UNL     1       1.137   2.978  19.135  0.00  0.00    +0.000 A 
ATOM     11  C   UNL     1       1.808   1.985  18.402  0.00  0.00    +0.000 A 
ATOM     12  C   UNL     1       2.999   2.272  17.733  0.00  0.00    +0.000 A 
ATOM     13  C   UNL     1       3.482   3.566  17.799  0.00  0.00    +0.000 A 
ATOM     14  C   UNL     1       4.789   4.105  17.275  0.00  0.00    +0.000 C 
ATOM     15  C   UNL     1       4.854   5.469  18.014  0.00  0.00    +0.000 C 
BRANCH  15  16
ATOM     16  O   UNL     1       5.425   5.303  19.331  0.00  0.00    +0.000 OA
ATOM     17  H   UNL     1       4.706   5.029  19.928  0.00  0.00    +0.000 HD
ENDBRANCH  15  16
ENDBRANCH   4   7
BRANCH   1  19
ATOM     18  C   UNL     1       1.527  11.167  18.886  0.00  0.00    +0.000 C 
ATOM     19  C   UNL     1       0.857   9.892  19.406  0.00  0.00    +0.000 C 
BRANCH  19  20
ATOM     20  C   UNL     1       0.128  10.140  20.709  0.00  0.00    +0.000 A 
ATOM     21  C   UNL     1       0.478   9.454  21.872  0.00  0.00    +0.000 A 
ATOM     22  C   UNL     1      -0.170   9.746  23.069  0.00  0.00    +0.000 A 
ATOM     23  C   UNL     1      -1.135  10.761  23.122  0.00  0.00    +0.000 A 
ATOM     24  C   UNL     1      -1.474  11.517  21.992  0.00  0.00    +0.000 A 
ATOM     25  C   UNL     1      -0.880  11.121  20.784  0.00  0.00    +0.000 A 
BRANCH  24  26
ATOM     26  N   UNL     1      -2.342  12.598  22.031  0.00  0.00    +0.000 N 
ATOM     27  C   UNL     1      -3.326  12.703  23.118  0.00  0.00    +0.000 C 
ATOM     28  C   UNL     1      -4.629  13.050  22.412  0.00  0.00    +0.000 C 
ATOM     29  C   UNL     1      -4.164  13.899  21.246  0.00  0.00    +0.000 C 
ATOM     30  C   UNL     1      -2.872  13.213  20.807  0.00  0.00    +0.000 C 
ENDBRANCH  24  26
ENDBRANCH  19  20
ENDBRANCH   1  19
TORSDOF 5
ENDMDL
MODEL 4
REMARK VINA RESULT:      -7.9      3.101      8.968
REMARK  Name = 
REMARK  6 active torsions:
REMARK  status: ('A' for Active; 'I' for Inactive)
REMARK    1  A    between atoms: C_1  and  C_2
REMARK    2  A    between atoms: C_2  and  N_3
REMARK    3  A    between atoms: C_2  and  C_17
REMARK    4  A    between atoms: N_6  and  C_7
REMARK    5  A    between atoms: C_15  and  O_16
REMARK    6  A    between atoms: C_21  and  N_22
REMARK                            x       y       z     vdW  Elec       q    Type
REMARK                         _______ _______ _______ _____ _____    ______ ____
ROOT
ATOM      1  N   UNL     1       2.663   5.214  20.628  0.00  0.00    +0.000 N 
ATOM      2  C   UNL     1       1.540   5.978  20.720  0.00  0.00    +0.000 C 
ATOM      3  O   UNL     1       0.439   5.591  20.354  0.00  0.00    +0.000 OA
ATOM      4  N   UNL     1       1.775   7.214  21.271  0.00  0.00    +0.000 N 
ATOM      5  H   UNL     1       3.492   5.539  21.103  0.00  0.00    +0.000 HD
ATOM      6  H   UNL     1       2.721   7.571  21.322  0.00  0.00    +0.000 HD
ENDROOT
BRANCH   4   7
ATOM      7  C   UNL     1       0.689   8.157  21.359  0.00  0.00    +0.000 C 
ATOM      8  C   UNL     1       0.693   9.259  20.330  0.00  0.00    +0.000 A 
ATOM      9  C   UNL     1       1.267   9.307  19.073  0.00  0.00    +0.000 A 
ATOM     10  C   UNL     1       0.967  10.400  18.257  0.00  0.00    +0.000 A 
ATOM     11  C   UNL     1       0.080  11.399  18.692  0.00  0.00    +0.000 A 
ATOM     12  C   UNL     1      -0.442  11.376  19.986  0.00  0.00    +0.000 A 
ATOM     13  C   UNL     1      -0.076  10.331  20.813  0.00  0.00    +0.000 A 
ATOM     14  C   UNL     1      -0.397  10.135  22.273  0.00  0.00    +0.000 C 
ATOM     15  C   UNL     1       0.617   9.020  22.644  0.00  0.00    +0.000 C 
BRANCH  15  16
ATOM     16  O   UNL     1       1.899   9.595  22.981  0.00  0.00    +0.000 OA
ATOM     17  H   UNL     1       2.478   8.865  23.267  0.00  0.00    +0.000 HD
ENDBRANCH  15  16
ENDBRANCH   4   7
BRANCH   1  19
ATOM     18  C   UNL     1       3.151   2.852  21.189  0.00  0.00    +0.000 C 
ATOM     19  C   UNL     1       2.633   3.840  20.140  0.00  0.00    +0.000 C 
BRANCH  19  20
ATOM     20  C   UNL     1       3.424   3.749  18.853  0.00  0.00    +0.000 A 
ATOM     21  C   UNL     1       2.940   3.032  17.758  0.00  0.00    +0.000 A 
ATOM     22  C   UNL     1       3.661   3.017  16.568  0.00  0.00    +0.000 A 
ATOM     23  C   UNL     1       4.843   3.760  16.447  0.00  0.00    +0.000 A 
ATOM     24  C   UNL     1       5.334   4.543  17.500  0.00  0.00    +0.000 A 
ATOM     25  C   UNL     1       4.640   4.447  18.716  0.00  0.00    +0.000 A 
BRANCH  24  26
ATOM     26  N   UNL     1       6.438   5.375  17.381  0.00  0.00    +0.000 N 
ATOM     27  C   UNL     1       7.624   5.132  18.214  0.00  0.00    +0.000 C 
ATOM     28  C   UNL     1       7.988   6.507  18.758  0.00  0.00    +0.000 C 
ATOM     29  C   UNL     1       7.593   7.432  17.625  0.00  0.00    +0.000 C 
ATOM     30  C   UNL     1       6.302   6.809  17.098  0.00  0.00    +0.000 C 
ENDBRANCH  24  26
ENDBRANCH  19  20
ENDBRANCH   1  19
TORSDOF 5
ENDMDL
MODEL 5
REMARK VINA RESULT:      -7.7      1.819      3.361
REMARK  Name = 
REMARK  6 active torsions:
REMARK  status: ('A' for Active; 'I' for Inactive)
REMARK    1  A    between atoms: C_1  and  C_2
REMARK    2  A    between atoms: C_2  and  N_3
REMARK    3  A    between atoms: C_2  and  C_17
REMARK    4  A    between atoms: N_6  and  C_7
REMARK    5  A    between atoms: C_15  and  O_16
REMARK    6  A    between atoms: C_21  and  N_22
REMARK                            x       y       z     vdW  Elec       q    Type
REMARK                         _______ _______ _______ _____ _____    ______ ____
ROOT
ATOM      1  N   UNL     1       1.420   8.613  19.515  0.00  0.00    +0.000 N 
ATOM      2  C   UNL     1       2.058   7.418  19.648  0.00  0.00    +0.000 C 
ATOM      3  O   UNL     1       2.281   6.899  20.732  0.00  0.00    +0.000 OA
ATOM      4  N   UNL     1       2.413   6.862  18.443  0.00  0.00    +0.000 N 
ATOM      5  H   UNL     1       1.126   8.888  18.589  0.00  0.00    +0.000 HD
ATOM      6  H   UNL     1       2.431   7.436  17.609  0.00  0.00    +0.000 HD
ENDROOT
BRANCH   4   7
ATOM      7  C   UNL     1       3.165   5.633  18.435  0.00  0.00    +0.000 C 
ATOM      8  C   UNL     1       4.077   5.430  17.253  0.00  0.00    +0.000 A 
ATOM      9  C   UNL     1       4.660   6.352  16.403  0.00  0.00    +0.000 A 
ATOM     10  C   UNL     1       5.606   5.891  15.486  0.00  0.00    +0.000 A 
ATOM     11  C   UNL     1       5.976   4.536  15.454  0.00  0.00    +0.000 A 
ATOM     12  C   UNL     1       5.335   3.602  16.269  0.00  0.00    +0.000 A 
ATOM     13  C   UNL     1       4.343   4.057  17.118  0.00  0.00    +0.000 A 
ATOM     14  C   UNL     1       3.425   3.251  18.002  0.00  0.00    +0.000 C 
ATOM     15  C   UNL     1       2.351   4.317  18.349  0.00  0.00    +0.000 C 
BRANCH  15  16
ATOM     16  O   UNL     1       1.343   4.374  17.316  0.00  0.00    +0.000 OA
ATOM     17  H   UNL     1       1.782   4.664  16.496  0.00  0.00    +0.000 HD
ENDBRANCH  15  16
ENDBRANCH   4   7
BRANCH   1  19
ATOM     18  C   UNL     1      -0.153   8.526  21.426  0.00  0.00    +0.000 C 
ATOM     19  C   UNL     1       0.890   9.345  20.660  0.00  0.00    +0.000 C 
BRANCH  19  20
ATOM     20  C   UNL     1       0.322  10.666  20.189  0.00  0.00    +0.000 A 
ATOM     21  C   UNL     1       1.001  11.864  20.415  0.00  0.00    +0.000 A 
ATOM     22  C   UNL     1       0.485  13.056  19.917  0.00  0.00    +0.000 A 
ATOM     23  C   UNL     1      -0.685  13.053  19.145  0.00  0.00    +0.000 A 
ATOM     24  C   UNL     1      -1.367  11.867  18.841  0.00  0.00    +0.000 A 
ATOM     25  C   UNL     1      -0.877  10.701  19.451  0.00  0.00    +0.000 A 
BRANCH  24  26
ATOM     26  N   UNL     1      -2.462  11.813  17.993  0.00  0.00    +0.000 N 
ATOM     27  C   UNL     1      -3.818  11.755  18.558  0.00  0.00    +0.000 C 
ATOM     28  C   UNL     1      -4.505  10.647  17.772  0.00  0.00    +0.000 C 
ATOM     29  C   UNL     1      -3.876  10.768  16.400  0.00  0.00    +0.000 C 
ATOM     30  C   UNL     1      -2.417  11.098  16.711  0.00  0.00    +0.000 C 
ENDBRANCH  24  26
ENDBRANCH  19  20
ENDBRANCH   1  19
TORSDOF 5
ENDMDL
MODEL 6
REMARK VINA RESULT:      -7.6      2.141      8.463
REMARK  Name = 
REMARK  6 active torsions:
REMARK  status: ('A' for Active; 'I' for Inactive)
REMARK    1  A    between atoms: C_1  and  C_2
REMARK    2  A    between atoms: C_2  and  N_3
REMARK    3  A    between atoms: C_2  and  C_17
REMARK    4  A    between atoms: N_6  and  C_7
REMARK    5  A    between atoms: C_15  and  O_16
REMARK    6  A    between atoms: C_21  and  N_22
REMARK                            x       y       z     vdW  Elec       q    Type
REMARK                         _______ _______ _______ _____ _____    ______ ____
ROOT
ATOM      1  N   UNL     1       2.974   8.029  17.400  0.00  0.00    +0.000 N 
ATOM      2  C   UNL     1       2.094   8.582  18.279  0.00  0.00    +0.000 C 
ATOM      3  O   UNL     1       2.208   8.474  19.492  0.00  0.00    +0.000 OA
ATOM      4  N   UNL     1       1.080   9.273  17.661  0.00  0.00    +0.000 N 
ATOM      5  H   UNL     1       2.906   8.305  16.430  0.00  0.00    +0.000 HD
ATOM      6  H   UNL     1       0.895   9.123  16.677  0.00  0.00    +0.000 HD
ENDROOT
BRANCH   4   7
ATOM      7  C   UNL     1       0.033   9.845  18.468  0.00  0.00    +0.000 C 
ATOM      8  C   UNL     1      -1.252  10.161  17.747  0.00  0.00    +0.000 A 
ATOM      9  C   UNL     1      -1.781   9.627  16.586  0.00  0.00    +0.000 A 
ATOM     10  C   UNL     1      -3.083   9.987  16.232  0.00  0.00    +0.000 A 
ATOM     11  C   UNL     1      -3.841  10.839  17.053  0.00  0.00    +0.000 A 
ATOM     12  C   UNL     1      -3.277  11.425  18.187  0.00  0.00    +0.000 A 
ATOM     13  C   UNL     1      -1.961  11.123  18.485  0.00  0.00    +0.000 A 
ATOM     14  C   UNL     1      -1.088  11.707  19.567  0.00  0.00    +0.000 C 
ATOM     15  C   UNL     1       0.313  11.236  19.092  0.00  0.00    +0.000 C 
BRANCH  15  16
ATOM     16  O   UNL     1       0.856  12.162  18.125  0.00  0.00    +0.000 OA
ATOM     17  H   UNL     1       0.104  12.600  17.688  0.00  0.00    +0.000 HD
ENDBRANCH  15  16
ENDBRANCH   4   7
BRANCH   1  19
ATOM     18  C   UNL     1       5.433   7.851  17.164  0.00  0.00    +0.000 C 
ATOM     19  C   UNL     1       4.167   7.313  17.837  0.00  0.00    +0.000 C 
BRANCH  19  20
ATOM     20  C   UNL     1       3.985   5.833  17.576  0.00  0.00    +0.000 A 
ATOM     21  C   UNL     1       4.593   5.214  16.483  0.00  0.00    +0.000 A 
ATOM     22  C   UNL     1       4.457   3.841  16.302  0.00  0.00    +0.000 A 
ATOM     23  C   UNL     1       3.757   3.070  17.239  0.00  0.00    +0.000 A 
ATOM     24  C   UNL     1       3.181   3.640  18.383  0.00  0.00    +0.000 A 
ATOM     25  C   UNL     1       3.246   5.039  18.473  0.00  0.00    +0.000 A 
BRANCH  24  26
ATOM     26  N   UNL     1       2.577   2.894  19.384  0.00  0.00    +0.000 N 
ATOM     27  C   UNL     1       1.110   2.856  19.477  0.00  0.00    +0.000 C 
ATOM     28  C   UNL     1       0.822   3.088  20.954  0.00  0.00    +0.000 C 
ATOM     29  C   UNL     1       1.999   2.420  21.636  0.00  0.00    +0.000 C 
ATOM     30  C   UNL     1       3.173   2.759  20.719  0.00  0.00    +0.000 C 
ENDBRANCH  24  26
ENDBRANCH  19  20
ENDBRANCH   1  19
TORSDOF 5
ENDMDL
MODEL 7
REMARK VINA RESULT:      -7.6      0.988      1.904
REMARK  Name = 
REMARK  6 active torsions:
REMARK  status: ('A' for Active; 'I' for Inactive)
REMARK    1  A    between atoms: C_1  and  C_2
REMARK    2  A    between atoms: C_2  and  N_3
REMARK    3  A    between atoms: C_2  and  C_17
REMARK    4  A    between atoms: N_6  and  C_7
REMARK    5  A    between atoms: C_15  and  O_16
REMARK    6  A    between atoms: C_21  and  N_22
REMARK                            x       y       z     vdW  Elec       q    Type
REMARK                         _______ _______ _______ _____ _____    ______ ____
ROOT
ATOM      1  N   UNL     1       1.653   9.105  18.931  0.00  0.00    +0.000 N 
ATOM      2  C   UNL     1       2.255   8.184  18.129  0.00  0.00    +0.000 C 
ATOM      3  O   UNL     1       2.434   8.358  16.932  0.00  0.00    +0.000 OA
ATOM      4  N   UNL     1       2.643   7.054  18.807  0.00  0.00    +0.000 N 
ATOM      5  H   UNL     1       1.696   8.958  19.929  0.00  0.00    +0.000 HD
ATOM      6  H   UNL     1       2.255   6.857  19.721  0.00  0.00    +0.000 HD
ENDROOT
BRANCH   4   7
ATOM      7  C   UNL     1       3.224   5.961  18.069  0.00  0.00    +0.000 C 
ATOM      8  C   UNL     1       2.661   4.595  18.366  0.00  0.00    +0.000 A 
ATOM      9  C   UNL     1       1.429   4.226  18.873  0.00  0.00    +0.000 A 
ATOM     10  C   UNL     1       1.106   2.868  18.889  0.00  0.00    +0.000 A 
ATOM     11  C   UNL     1       1.997   1.913  18.370  0.00  0.00    +0.000 A 
ATOM     12  C   UNL     1       3.264   2.287  17.922  0.00  0.00    +0.000 A 
ATOM     13  C   UNL     1       3.604   3.626  17.985  0.00  0.00    +0.000 A 
ATOM     14  C   UNL     1       4.933   4.270  17.682  0.00  0.00    +0.000 C 
ATOM     15  C   UNL     1       4.725   5.670  18.320  0.00  0.00    +0.000 C 
BRANCH  15  16
ATOM     16  O   UNL     1       5.039   5.635  19.729  0.00  0.00    +0.000 OA
ATOM     17  H   UNL     1       5.937   5.267  19.818  0.00  0.00    +0.000 HD
ENDBRANCH  15  16
ENDBRANCH   4   7
BRANCH   1  19
ATOM     18  C   UNL     1       2.387  11.408  18.393  0.00  0.00    +0.000 C 
ATOM     19  C   UNL     1       1.227  10.409  18.436  0.00  0.00    +0.000 C 
BRANCH  19  20
ATOM     20  C   UNL     1       0.086  10.919  19.290  0.00  0.00    +0.000 A 
ATOM     21  C   UNL     1       0.289  11.278  20.623  0.00  0.00    +0.000 A 
ATOM     22  C   UNL     1      -0.765  11.800  21.367  0.00  0.00    +0.000 A 
ATOM     23  C   UNL     1      -2.014  12.016  20.769  0.00  0.00    +0.000 A 
ATOM     24  C   UNL     1      -2.246  11.727  19.417  0.00  0.00    +0.000 A 
ATOM     25  C   UNL     1      -1.193  11.102  18.732  0.00  0.00    +0.000 A 
BRANCH  24  26
ATOM     26  N   UNL     1      -3.433  12.028  18.766  0.00  0.00    +0.000 N 
ATOM     27  C   UNL     1      -4.645  12.300  19.553  0.00  0.00    +0.000 C 
ATOM     28  C   UNL     1      -5.727  11.474  18.871  0.00  0.00    +0.000 C 
ATOM     29  C   UNL     1      -5.313  11.514  17.414  0.00  0.00    +0.000 C 
ATOM     30  C   UNL     1      -3.790  11.417  17.480  0.00  0.00    +0.000 C 
ENDBRANCH  24  26
ENDBRANCH  19  20
ENDBRANCH   1  19
TORSDOF 5
ENDMDL
MODEL 8
REMARK VINA RESULT:      -7.5      3.323      9.222
REMARK  Name = 
REMARK  6 active torsions:
REMARK  status: ('A' for Active; 'I' for Inactive)
REMARK    1  A    between atoms: C_1  and  C_2
REMARK    2  A    between atoms: C_2  and  N_3
REMARK    3  A    between atoms: C_2  and  C_17
REMARK    4  A    between atoms: N_6  and  C_7
REMARK    5  A    between atoms: C_15  and  O_16
REMARK    6  A    between atoms: C_21  and  N_22
REMARK                            x       y       z     vdW  Elec       q    Type
REMARK                         _______ _______ _______ _____ _____    ______ ____
ROOT
ATOM      1  N   UNL     1       1.965   6.667  20.457  0.00  0.00    +0.000 N 
ATOM      2  C   UNL     1       0.908   7.411  20.885  0.00  0.00    +0.000 C 
ATOM      3  O   UNL     1      -0.186   6.929  21.139  0.00  0.00    +0.000 OA
ATOM      4  N   UNL     1       1.206   8.747  21.006  0.00  0.00    +0.000 N 
ATOM      5  H   UNL     1       2.872   7.110  20.433  0.00  0.00    +0.000 HD
ATOM      6  H   UNL     1       2.031   9.122  20.553  0.00  0.00    +0.000 HD
ENDROOT
BRANCH   4   7
ATOM      7  C   UNL     1       0.160   9.665  21.375  0.00  0.00    +0.000 C 
ATOM      8  C   UNL     1       0.504  11.129  21.270  0.00  0.00    +0.000 A 
ATOM      9  C   UNL     1       1.451  11.772  20.495  0.00  0.00    +0.000 A 
ATOM     10  C   UNL     1       1.440  13.168  20.470  0.00  0.00    +0.000 A 
ATOM     11  C   UNL     1       0.470  13.891  21.183  0.00  0.00    +0.000 A 
ATOM     12  C   UNL     1      -0.440  13.237  22.015  0.00  0.00    +0.000 A 
ATOM     13  C   UNL     1      -0.369  11.858  22.095  0.00  0.00    +0.000 A 
ATOM     14  C   UNL     1      -1.143  10.931  22.997  0.00  0.00    +0.000 C 
ATOM     15  C   UNL     1      -0.313   9.628  22.851  0.00  0.00    +0.000 C 
BRANCH  15  16
ATOM     16  O   UNL     1       0.799   9.631  23.774  0.00  0.00    +0.000 OA
ATOM     17  H   UNL     1       1.541   9.175  23.337  0.00  0.00    +0.000 HD
ENDBRANCH  15  16
ENDBRANCH   4   7
BRANCH   1  19
ATOM     18  C   UNL     1       2.417   4.507  21.581  0.00  0.00    +0.000 C 
ATOM     19  C   UNL     1       1.895   5.216  20.328  0.00  0.00    +0.000 C 
BRANCH  19  20
ATOM     20  C   UNL     1       2.654   4.788  19.090  0.00  0.00    +0.000 A 
ATOM     21  C   UNL     1       2.037   4.030  18.093  0.00  0.00    +0.000 A 
ATOM     22  C   UNL     1       2.742   3.703  16.939  0.00  0.00    +0.000 A 
ATOM     23  C   UNL     1       4.048   4.174  16.749  0.00  0.00    +0.000 A 
ATOM     24  C   UNL     1       4.685   4.988  17.696  0.00  0.00    +0.000 A 
ATOM     25  C   UNL     1       3.984   5.205  18.892  0.00  0.00    +0.000 A 
BRANCH  24  26
ATOM     26  N   UNL     1       5.932   5.560  17.494  0.00  0.00    +0.000 N 
ATOM     27  C   UNL     1       7.098   5.039  18.221  0.00  0.00    +0.000 C 
ATOM     28  C   UNL     1       7.798   6.284  18.748  0.00  0.00    +0.000 C 
ATOM     29  C   UNL     1       7.529   7.306  17.662  0.00  0.00    +0.000 C 
ATOM     30  C   UNL     1       6.094   6.997  17.238  0.00  0.00    +0.000 C 
ENDBRANCH  24  26
ENDBRANCH  19  20
ENDBRANCH   1  19
TORSDOF 5
ENDMDL
MODEL 9
REMARK VINA RESULT:      -7.4      2.745      9.746
REMARK  Name = 
REMARK  6 active torsions:
REMARK  status: ('A' for Active; 'I' for Inactive)
REMARK    1  A    between atoms: C_1  and  C_2
REMARK    2  A    between atoms: C_2  and  N_3
REMARK    3  A    between atoms: C_2  and  C_17
REMARK    4  A    between atoms: N_6  and  C_7
REMARK    5  A    between atoms: C_15  and  O_16
REMARK    6  A    between atoms: C_21  and  N_22
REMARK                            x       y       z     vdW  Elec       q    Type
REMARK                         _______ _______ _______ _____ _____    ______ ____
ROOT
ATOM      1  N   UNL     1       3.065   7.203  17.803  0.00  0.00    +0.000 N 
ATOM      2  C   UNL     1       2.346   8.032  18.609  0.00  0.00    +0.000 C 
ATOM      3  O   UNL     1       1.912   7.689  19.699  0.00  0.00    +0.000 OA
ATOM      4  N   UNL     1       2.169   9.283  18.071  0.00  0.00    +0.000 N 
ATOM      5  H   UNL     1       3.527   7.610  17.003  0.00  0.00    +0.000 HD
ATOM      6  H   UNL     1       2.327   9.433  17.082  0.00  0.00    +0.000 HD
ENDROOT
BRANCH   4   7
ATOM      7  C   UNL     1       1.360  10.241  18.780  0.00  0.00    +0.000 C 
ATOM      8  C   UNL     1      -0.030  10.455  18.238  0.00  0.00    +0.000 A 
ATOM      9  C   UNL     1      -0.831   9.624  17.476  0.00  0.00    +0.000 A 
ATOM     10  C   UNL     1      -2.154  10.011  17.255  0.00  0.00    +0.000 A 
ATOM     11  C   UNL     1      -2.661  11.193  17.821  0.00  0.00    +0.000 A 
ATOM     12  C   UNL     1      -1.828  12.058  18.533  0.00  0.00    +0.000 A 
ATOM     13  C   UNL     1      -0.500  11.704  18.679  0.00  0.00    +0.000 A 
ATOM     14  C   UNL     1       0.622  12.505  19.288  0.00  0.00    +0.000 C 
ATOM     15  C   UNL     1       1.854  11.710  18.779  0.00  0.00    +0.000 C 
BRANCH  15  16
ATOM     16  O   UNL     1       2.229  12.152  17.456  0.00  0.00    +0.000 OA
ATOM     17  H   UNL     1       2.967  12.780  17.558  0.00  0.00    +0.000 HD
ENDBRANCH  15  16
ENDBRANCH   4   7
BRANCH   1  19
ATOM     18  C   UNL     1       3.432   5.691  19.730  0.00  0.00    +0.000 C 
ATOM     19  C   UNL     1       3.434   5.851  18.207  0.00  0.00    +0.000 C 
BRANCH  19  20
ATOM     20  C   UNL     1       4.783   5.503  17.613  0.00  0.00    +0.000 A 
ATOM     21  C   UNL     1       5.844   5.100  18.425  0.00  0.00    +0.000 A 
ATOM     22  C   UNL     1       7.054   4.729  17.846  0.00  0.00    +0.000 A 
ATOM     23  C   UNL     1       7.195   4.707  16.451  0.00  0.00    +0.000 A 
ATOM     24  C   UNL     1       6.137   5.046  15.597  0.00  0.00    +0.000 A 
ATOM     25  C   UNL     1       4.970   5.519  16.218  0.00  0.00    +0.000 A 
BRANCH  24  26
ATOM     26  N   UNL     1       6.205   4.932  14.217  0.00  0.00    +0.000 N 
ATOM     27  C   UNL     1       5.280   4.032  13.514  0.00  0.00    +0.000 C 
ATOM     28  C   UNL     1       6.168   3.258  12.551  0.00  0.00    +0.000 C 
ATOM     29  C   UNL     1       7.228   4.275  12.179  0.00  0.00    +0.000 C 
ATOM     30  C   UNL     1       7.481   5.013  13.493  0.00  0.00    +0.000 C 
ENDBRANCH  24  26
ENDBRANCH  19  20
ENDBRANCH   1  19
TORSDOF 5
ENDMDL
