MODEL 1
REMARK VINA RESULT:      -8.6      0.000      0.000
REMARK  Name = 
REMARK  4 active torsions:
REMARK  status: ('A' for Active; 'I' for Inactive)
REMARK    1  A    between atoms: C_1  and  N_2
REMARK    2  A    between atoms: C_6  and  C_7
REMARK    3  A    between atoms: C_7  and  C_8
REMARK    4  A    between atoms: C_20  and  C_21
REMARK                            x       y       z     vdW  Elec       q    Type
REMARK                         _______ _______ _______ _____ _____    ______ ____
ROOT
ATOM      1  C   UNL     1       4.564   4.713  17.799  0.00  0.00    +0.000 A 
ATOM      2  C   UNL     1       3.678   3.635  17.719  0.00  0.00    +0.000 A 
ATOM      3  C   UNL     1       2.343   3.855  18.026  0.00  0.00    +0.000 A 
ATOM      4  N   UNL     1       1.853   5.037  18.470  0.00  0.00    +0.000 NA
ATOM      5  C   UNL     1       2.710   6.078  18.508  0.00  0.00    +0.000 A 
ATOM      6  N   UNL     1       2.221   7.317  18.922  0.00  0.00    +0.000 N 
ATOM      7  C   UNL     1       1.549   7.479  20.191  0.00  0.00    +0.000 C 
ATOM      8  C   UNL     1       1.174   8.932  20.175  0.00  0.00    +0.000 A 
ATOM      9  C   UNL     1       1.547   9.494  18.952  0.00  0.00    +0.000 A 
ATOM     10  C   UNL     1       1.279  10.806  18.612  0.00  0.00    +0.000 A 
ATOM     11  C   UNL     1       0.630  11.591  19.561  0.00  0.00    +0.000 A 
ATOM     12  C   UNL     1       0.280  11.054  20.814  0.00  0.00    +0.000 A 
ATOM     13  C   UNL     1       0.564   9.716  21.151  0.00  0.00    +0.000 A 
ATOM     14  C   UNL     1       2.239   8.468  18.148  0.00  0.00    +0.000 C 
ATOM     15  O   UNL     1       2.686   8.664  17.042  0.00  0.00    +0.000 OA
ATOM     16  C   UNL     1       4.057   5.958  18.186  0.00  0.00    +0.000 A 
ENDROOT
BRANCH  13  17
ATOM     17  C   UNL     1       0.205   9.188  22.513  0.00  0.00    +0.000 C 
ATOM     18  F   UNL     1      -0.155  10.175  23.379  0.00  0.00    +0.000 F 
ATOM     19  F   UNL     1      -0.847   8.321  22.489  0.00  0.00    +0.000 F 
ENDBRANCH  13  17
BRANCH   1  20
ATOM     20  C   UNL     1       6.020   4.580  17.407  0.00  0.00    +0.000 C 
BRANCH  20  26
ATOM     21  C   UNL     1       7.978   5.633  19.784  0.00  0.00    +0.000 C 
ATOM     22  N   UNL     1       7.632   6.261  18.538  0.00  0.00    +0.000 N 
ATOM     23  C   UNL     1       8.082   7.498  18.174  0.00  0.00    +0.000 A 
ATOM     24  N   UNL     1       7.617   7.810  16.991  0.00  0.00    +0.000 NA
ATOM     25  N   UNL     1       6.830   6.768  16.571  0.00  0.00    +0.000 NA
ATOM     26  C   UNL     1       6.834   5.827  17.498  0.00  0.00    +0.000 A 
ENDBRANCH  20  26
ENDBRANCH   1  20
TORSDOF 3
ENDMDL
MODEL 2
REMARK VINA RESULT:      -8.5      1.200      1.732
REMARK  Name = 
REMARK  4 active torsions:
REMARK  status: ('A' for Active; 'I' for Inactive)
REMARK    1  A    between atoms: C_1  and  N_2
REMARK    2  A    between atoms: C_6  and  C_7
REMARK    3  A    between atoms: C_7  and  C_8
REMARK    4  A    between atoms: C_20  and  C_21
REMARK                            x       y       z     vdW  Elec       q    Type
REMARK                         _______ _______ _______ _____ _____    ______ ____
ROOT
ATOM      1  C   UNL     1       4.725   4.715  19.149  0.00  0.00    +0.000 A 
ATOM      2  C   UNL     1       3.930   3.577  19.314  0.00  0.00    +0.000 A 
ATOM      3  C   UNL     1       2.574   3.749  19.557  0.00  0.00    +0.000 A 
ATOM      4  N   UNL     1       1.980   4.955  19.715  0.00  0.00    +0.000 NA
ATOM      5  C   UNL     1       2.750   6.046  19.518  0.00  0.00    +0.000 A 
ATOM      6  N   UNL     1       2.153   7.301  19.635  0.00  0.00    +0.000 N 
ATOM      7  C   UNL     1       1.441   7.691  20.830  0.00  0.00    +0.000 C 
ATOM      8  C   UNL     1       0.951   9.066  20.480  0.00  0.00    +0.000 A 
ATOM      9  C   UNL     1       1.306   9.364  19.162  0.00  0.00    +0.000 A 
ATOM     10  C   UNL     1       0.943  10.536  18.529  0.00  0.00    +0.000 A 
ATOM     11  C   UNL     1       0.210  11.459  19.270  0.00  0.00    +0.000 A 
ATOM     12  C   UNL     1      -0.126  11.195  20.611  0.00  0.00    +0.000 A 
ATOM     13  C   UNL     1       0.257   9.998  21.247  0.00  0.00    +0.000 A 
ATOM     14  C   UNL     1       2.098   8.243  18.618  0.00  0.00    +0.000 C 
ATOM     15  O   UNL     1       2.555   8.218  17.499  0.00  0.00    +0.000 OA
ATOM     16  C   UNL     1       4.110   5.969  19.239  0.00  0.00    +0.000 A 
ENDROOT
BRANCH  13  17
ATOM     17  C   UNL     1      -0.092   9.766  22.691  0.00  0.00    +0.000 C 
ATOM     18  F   UNL     1      -0.690  10.846  23.266  0.00  0.00    +0.000 F 
ATOM     19  F   UNL     1      -0.958   8.729  22.873  0.00  0.00    +0.000 F 
ENDBRANCH  13  17
BRANCH   1  20
ATOM     20  C   UNL     1       6.196   4.619  18.806  0.00  0.00    +0.000 C 
BRANCH  20  26
ATOM     21  C   UNL     1       5.231   3.360  15.963  0.00  0.00    +0.000 C 
ATOM     22  N   UNL     1       6.160   4.427  16.225  0.00  0.00    +0.000 N 
ATOM     23  C   UNL     1       6.845   5.079  15.240  0.00  0.00    +0.000 A 
ATOM     24  N   UNL     1       7.606   6.004  15.766  0.00  0.00    +0.000 NA
ATOM     25  N   UNL     1       7.436   5.953  17.125  0.00  0.00    +0.000 NA
ATOM     26  C   UNL     1       6.563   5.003  17.412  0.00  0.00    +0.000 A 
ENDBRANCH  20  26
ENDBRANCH   1  20
TORSDOF 3
ENDMDL
MODEL 3
REMARK VINA RESULT:      -8.4      1.413      1.889
REMARK  Name = 
REMARK  4 active torsions:
REMARK  status: ('A' for Active; 'I' for Inactive)
REMARK    1  A    between atoms: C_1  and  N_2
REMARK    2  A    between atoms: C_6  and  C_7
REMARK    3  A    between atoms: C_7  and  C_8
REMARK    4  A    between atoms: C_20  and  C_21
REMARK                            x       y       z     vdW  Elec       q    Type
REMARK                         _______ _______ _______ _____ _____    ______ ____
ROOT
ATOM      1  C   UNL     1       4.875   5.156  19.192  0.00  0.00    +0.000 A 
ATOM      2  C   UNL     1       4.191   3.939  19.251  0.00  0.00    +0.000 A 
ATOM      3  C   UNL     1       2.818   3.963  19.454  0.00  0.00    +0.000 A 
ATOM      4  N   UNL     1       2.105   5.093  19.670  0.00  0.00    +0.000 NA
ATOM      5  C   UNL     1       2.770   6.264  19.575  0.00  0.00    +0.000 A 
ATOM      6  N   UNL     1       2.050   7.445  19.753  0.00  0.00    +0.000 N 
ATOM      7  C   UNL     1       1.267   7.681  20.944  0.00  0.00    +0.000 C 
ATOM      8  C   UNL     1       0.656   9.024  20.668  0.00  0.00    +0.000 A 
ATOM      9  C   UNL     1       1.020   9.445  19.387  0.00  0.00    +0.000 A 
ATOM     10  C   UNL     1       0.564  10.619  18.820  0.00  0.00    +0.000 A 
ATOM     11  C   UNL     1      -0.278  11.414  19.593  0.00  0.00    +0.000 A 
ATOM     12  C   UNL     1      -0.627  11.026  20.900  0.00  0.00    +0.000 A 
ATOM     13  C   UNL     1      -0.149   9.830  21.469  0.00  0.00    +0.000 A 
ATOM     14  C   UNL     1       1.934   8.446  18.799  0.00  0.00    +0.000 C 
ATOM     15  O   UNL     1       2.425   8.543  17.699  0.00  0.00    +0.000 OA
ATOM     16  C   UNL     1       4.138   6.336  19.342  0.00  0.00    +0.000 A 
ENDROOT
BRANCH  13  17
ATOM     17  C   UNL     1      -0.517   9.465  22.881  0.00  0.00    +0.000 C 
ATOM     18  F   UNL     1       0.562   9.433  23.712  0.00  0.00    +0.000 F 
ATOM     19  F   UNL     1      -1.391  10.343  23.450  0.00  0.00    +0.000 F 
ENDBRANCH  13  17
BRANCH   1  20
ATOM     20  C   UNL     1       6.358   5.225  18.897  0.00  0.00    +0.000 C 
BRANCH  20  26
ATOM     21  C   UNL     1       4.994   6.581  16.272  0.00  0.00    +0.000 C 
ATOM     22  N   UNL     1       6.120   5.689  16.362  0.00  0.00    +0.000 N 
ATOM     23  C   UNL     1       6.795   5.225  15.270  0.00  0.00    +0.000 A 
ATOM     24  N   UNL     1       7.773   4.444  15.651  0.00  0.00    +0.000 NA
ATOM     25  N   UNL     1       7.735   4.376  17.020  0.00  0.00    +0.000 NA
ATOM     26  C   UNL     1       6.740   5.126  17.459  0.00  0.00    +0.000 A 
ENDBRANCH  20  26
ENDBRANCH   1  20
TORSDOF 3
ENDMDL
MODEL 4
REMARK VINA RESULT:      -8.4      1.108      1.489
REMARK  Name = 
REMARK  4 active torsions:
REMARK  status: ('A' for Active; 'I' for Inactive)
REMARK    1  A    between atoms: C_1  and  N_2
REMARK    2  A    between atoms: C_6  and  C_7
REMARK    3  A    between atoms: C_7  and  C_8
REMARK    4  A    between atoms: C_20  and  C_21
REMARK                            x       y       z     vdW  Elec       q    Type
REMARK                         _______ _______ _______ _____ _____    ______ ____
ROOT
ATOM      1  C   UNL     1       4.492   4.479  19.122  0.00  0.00    +0.000 A 
ATOM      2  C   UNL     1       3.639   3.373  19.169  0.00  0.00    +0.000 A 
ATOM      3  C   UNL     1       2.286   3.593  19.387  0.00  0.00    +0.000 A 
ATOM      4  N   UNL     1       1.745   4.811  19.628  0.00  0.00    +0.000 NA
ATOM      5  C   UNL     1       2.573   5.874  19.543  0.00  0.00    +0.000 A 
ATOM      6  N   UNL     1       2.033   7.144  19.747  0.00  0.00    +0.000 N 
ATOM      7  C   UNL     1       1.302   7.471  20.948  0.00  0.00    +0.000 C 
ATOM      8  C   UNL     1       0.890   8.893  20.699  0.00  0.00    +0.000 A 
ATOM      9  C   UNL     1       1.302   9.278  19.421  0.00  0.00    +0.000 A 
ATOM     10  C   UNL     1       1.016  10.515  18.877  0.00  0.00    +0.000 A 
ATOM     11  C   UNL     1       0.304  11.411  19.671  0.00  0.00    +0.000 A 
ATOM     12  C   UNL     1      -0.087  11.056  20.975  0.00  0.00    +0.000 A 
ATOM     13  C   UNL     1       0.217   9.793  21.521  0.00  0.00    +0.000 A 
ATOM     14  C   UNL     1       2.056   8.166  18.809  0.00  0.00    +0.000 C 
ATOM     15  O   UNL     1       2.547   8.210  17.706  0.00  0.00    +0.000 OA
ATOM     16  C   UNL     1       3.935   5.751  19.298  0.00  0.00    +0.000 A 
ENDROOT
BRANCH  13  17
ATOM     17  C   UNL     1      -0.189   9.463  22.931  0.00  0.00    +0.000 C 
ATOM     18  F   UNL     1       0.873   9.399  23.781  0.00  0.00    +0.000 F 
ATOM     19  F   UNL     1      -1.036  10.383  23.473  0.00  0.00    +0.000 F 
ENDBRANCH  13  17
BRANCH   1  20
ATOM     20  C   UNL     1       5.967   4.337  18.814  0.00  0.00    +0.000 C 
BRANCH  20  26
ATOM     21  C   UNL     1       5.621   6.206  16.172  0.00  0.00    +0.000 C 
ATOM     22  N   UNL     1       6.525   6.347  17.281  0.00  0.00    +0.000 N 
ATOM     23  C   UNL     1       7.460   7.339  17.362  0.00  0.00    +0.000 A 
ATOM     24  N   UNL     1       8.132   7.227  18.479  0.00  0.00    +0.000 NA
ATOM     25  N   UNL     1       7.645   6.131  19.143  0.00  0.00    +0.000 NA
ATOM     26  C   UNL     1       6.673   5.593  18.427  0.00  0.00    +0.000 A 
ENDBRANCH  20  26
ENDBRANCH   1  20
TORSDOF 3
ENDMDL
MODEL 5
REMARK VINA RESULT:      -8.1      0.873      1.408
REMARK  Name = 
REMARK  4 active torsions:
REMARK  status: ('A' for Active; 'I' for Inactive)
REMARK    1  A    between atoms: C_1  and  N_2
REMARK    2  A    between atoms: C_6  and  C_7
REMARK    3  A    between atoms: C_7  and  C_8
REMARK    4  A    between atoms: C_20  and  C_21
REMARK                            x       y       z     vdW  Elec       q    Type
REMARK                         _______ _______ _______ _____ _____    ______ ____
ROOT
ATOM      1  C   UNL     1       4.207   5.276  17.491  0.00  0.00    +0.000 A 
ATOM      2  C   UNL     1       3.338   4.184  17.421  0.00  0.00    +0.000 A 
ATOM      3  C   UNL     1       2.028   4.355  17.848  0.00  0.00    +0.000 A 
ATOM      4  N   UNL     1       1.554   5.498  18.397  0.00  0.00    +0.000 NA
ATOM      5  C   UNL     1       2.392   6.556  18.426  0.00  0.00    +0.000 A 
ATOM      6  N   UNL     1       1.915   7.757  18.950  0.00  0.00    +0.000 N 
ATOM      7  C   UNL     1       1.348   7.832  20.276  0.00  0.00    +0.000 C 
ATOM      8  C   UNL     1       0.946   9.275  20.375  0.00  0.00    +0.000 A 
ATOM      9  C   UNL     1       1.205   9.913  19.160  0.00  0.00    +0.000 A 
ATOM     10  C   UNL     1       0.886  11.235  18.918  0.00  0.00    +0.000 A 
ATOM     11  C   UNL     1       0.303  11.950  19.961  0.00  0.00    +0.000 A 
ATOM     12  C   UNL     1       0.067  11.336  21.205  0.00  0.00    +0.000 A 
ATOM     13  C   UNL     1       0.403   9.988  21.440  0.00  0.00    +0.000 A 
ATOM     14  C   UNL     1       1.849   8.950  18.244  0.00  0.00    +0.000 C 
ATOM     15  O   UNL     1       2.200   9.218  17.119  0.00  0.00    +0.000 OA
ATOM     16  C   UNL     1       3.710   6.485  17.990  0.00  0.00    +0.000 A 
ENDROOT
BRANCH  13  17
ATOM     17  C   UNL     1       0.167   9.376  22.794  0.00  0.00    +0.000 C 
ATOM     18  F   UNL     1       1.312   9.253  23.520  0.00  0.00    +0.000 F 
ATOM     19  F   UNL     1      -0.681  10.108  23.570  0.00  0.00    +0.000 F 
ENDBRANCH  13  17
BRANCH   1  20
ATOM     20  C   UNL     1       5.628   5.200  16.975  0.00  0.00    +0.000 C 
BRANCH  20  26
ATOM     21  C   UNL     1       7.371   7.920  17.369  0.00  0.00    +0.000 C 
ATOM     22  N   UNL     1       7.441   6.676  18.087  0.00  0.00    +0.000 N 
ATOM     23  C   UNL     1       8.346   6.436  19.081  0.00  0.00    +0.000 A 
ATOM     24  N   UNL     1       8.172   5.231  19.560  0.00  0.00    +0.000 NA
ATOM     25  N   UNL     1       7.145   4.655  18.858  0.00  0.00    +0.000 NA
ATOM     26  C   UNL     1       6.696   5.520  17.966  0.00  0.00    +0.000 A 
ENDBRANCH  20  26
ENDBRANCH   1  20
TORSDOF 3
ENDMDL
MODEL 6
REMARK VINA RESULT:      -7.9      3.289      7.649
REMARK  Name = 
REMARK  4 active torsions:
REMARK  status: ('A' for Active; 'I' for Inactive)
REMARK    1  A    between atoms: C_1  and  N_2
REMARK    2  A    between atoms: C_6  and  C_7
REMARK    3  A    between atoms: C_7  and  C_8
REMARK    4  A    between atoms: C_20  and  C_21
REMARK                            x       y       z     vdW  Elec       q    Type
REMARK                         _______ _______ _______ _____ _____    ______ ____
ROOT
ATOM      1  C   UNL     1       0.633  10.016  19.563  0.00  0.00    +0.000 A 
ATOM      2  C   UNL     1       0.720  10.159  20.951  0.00  0.00    +0.000 A 
ATOM      3  C   UNL     1       1.334   9.151  21.681  0.00  0.00    +0.000 A 
ATOM      4  N   UNL     1       1.795   7.998  21.141  0.00  0.00    +0.000 NA
ATOM      5  C   UNL     1       1.738   7.887  19.797  0.00  0.00    +0.000 A 
ATOM      6  N   UNL     1       2.244   6.726  19.212  0.00  0.00    +0.000 N 
ATOM      7  C   UNL     1       1.779   5.417  19.606  0.00  0.00    +0.000 C 
ATOM      8  C   UNL     1       2.620   4.506  18.759  0.00  0.00    +0.000 A 
ATOM      9  C   UNL     1       3.528   5.268  18.020  0.00  0.00    +0.000 A 
ATOM     10  C   UNL     1       4.481   4.711  17.190  0.00  0.00    +0.000 A 
ATOM     11  C   UNL     1       4.499   3.323  17.082  0.00  0.00    +0.000 A 
ATOM     12  C   UNL     1       3.568   2.539  17.790  0.00  0.00    +0.000 A 
ATOM     13  C   UNL     1       2.597   3.121  18.628  0.00  0.00    +0.000 A 
ATOM     14  C   UNL     1       3.279   6.698  18.289  0.00  0.00    +0.000 C 
ATOM     15  O   UNL     1       3.905   7.600  17.783  0.00  0.00    +0.000 OA
ATOM     16  C   UNL     1       1.171   8.861  18.984  0.00  0.00    +0.000 A 
ENDROOT
BRANCH  13  17
ATOM     17  C   UNL     1       1.598   2.252  19.342  0.00  0.00    +0.000 C 
ATOM     18  F   UNL     1       1.662   2.384  20.696  0.00  0.00    +0.000 F 
ATOM     19  F   UNL     1       0.307   2.535  19.007  0.00  0.00    +0.000 F 
ENDBRANCH  13  17
BRANCH   1  20
ATOM     20  C   UNL     1       0.050  11.100  18.683  0.00  0.00    +0.000 C 
BRANCH  20  26
ATOM     21  C   UNL     1      -2.765  12.362  19.721  0.00  0.00    +0.000 C 
ATOM     22  N   UNL     1      -2.522  11.395  18.685  0.00  0.00    +0.000 N 
ATOM     23  C   UNL     1      -3.521  10.800  17.969  0.00  0.00    +0.000 A 
ATOM     24  N   UNL     1      -3.008   9.975  17.092  0.00  0.00    +0.000 NA
ATOM     25  N   UNL     1      -1.646  10.011  17.241  0.00  0.00    +0.000 NA
ATOM     26  C   UNL     1      -1.342  10.866  18.201  0.00  0.00    +0.000 A 
ENDBRANCH  20  26
ENDBRANCH   1  20
TORSDOF 3
ENDMDL
MODEL 7
REMARK VINA RESULT:      -7.9      3.327      7.722
REMARK  Name = 
REMARK  4 active torsions:
REMARK  status: ('A' for Active; 'I' for Inactive)
REMARK    1  A    between atoms: C_1  and  N_2
REMARK    2  A    between atoms: C_6  and  C_7
REMARK    3  A    between atoms: C_7  and  C_8
REMARK    4  A    between atoms: C_20  and  C_21
REMARK                            x       y       z     vdW  Elec       q    Type
REMARK                         _______ _______ _______ _____ _____    ______ ____
ROOT
ATOM      1  C   UNL     1       0.646  10.107  19.630  0.00  0.00    +0.000 A 
ATOM      2  C   UNL     1       0.722  10.212  21.022  0.00  0.00    +0.000 A 
ATOM      3  C   UNL     1       1.310   9.174  21.731  0.00  0.00    +0.000 A 
ATOM      4  N   UNL     1       1.755   8.027  21.165  0.00  0.00    +0.000 NA
ATOM      5  C   UNL     1       1.710   7.952  19.818  0.00  0.00    +0.000 A 
ATOM      6  N   UNL     1       2.200   6.798  19.208  0.00  0.00    +0.000 N 
ATOM      7  C   UNL     1       1.707   5.488  19.563  0.00  0.00    +0.000 C 
ATOM      8  C   UNL     1       2.540   4.584  18.700  0.00  0.00    +0.000 A 
ATOM      9  C   UNL     1       3.469   5.348  17.990  0.00  0.00    +0.000 A 
ATOM     10  C   UNL     1       4.419   4.795  17.155  0.00  0.00    +0.000 A 
ATOM     11  C   UNL     1       4.413   3.410  17.011  0.00  0.00    +0.000 A 
ATOM     12  C   UNL     1       3.461   2.625  17.689  0.00  0.00    +0.000 A 
ATOM     13  C   UNL     1       2.492   3.203  18.533  0.00  0.00    +0.000 A 
ATOM     14  C   UNL     1       3.243   6.775  18.295  0.00  0.00    +0.000 C 
ATOM     15  O   UNL     1       3.890   7.678  17.818  0.00  0.00    +0.000 OA
ATOM     16  C   UNL     1       1.168   8.957  19.025  0.00  0.00    +0.000 A 
ENDROOT
BRANCH  13  17
ATOM     17  C   UNL     1       1.470   2.335  19.214  0.00  0.00    +0.000 C 
ATOM     18  F   UNL     1       1.485   2.472  20.569  0.00  0.00    +0.000 F 
ATOM     19  F   UNL     1       0.191   2.614  18.833  0.00  0.00    +0.000 F 
ENDBRANCH  13  17
BRANCH   1  20
ATOM     20  C   UNL     1       0.092  11.224  18.773  0.00  0.00    +0.000 C 
BRANCH  20  26
ATOM     21  C   UNL     1      -2.170   9.912  16.836  0.00  0.00    +0.000 C 
ATOM     22  N   UNL     1      -2.324  10.833  17.930  0.00  0.00    +0.000 N 
ATOM     23  C   UNL     1      -3.530  11.350  18.308  0.00  0.00    +0.000 A 
ATOM     24  N   UNL     1      -3.370  12.147  19.333  0.00  0.00    +0.000 NA
ATOM     25  N   UNL     1      -2.032  12.171  19.630  0.00  0.00    +0.000 NA
ATOM     26  C   UNL     1      -1.391  11.380  18.788  0.00  0.00    +0.000 A 
ENDBRANCH  20  26
ENDBRANCH   1  20
TORSDOF 3
ENDMDL
MODEL 8
REMARK VINA RESULT:      -7.9      3.015      4.665
REMARK  Name = 
REMARK  4 active torsions:
REMARK  status: ('A' for Active; 'I' for Inactive)
REMARK    1  A    between atoms: C_1  and  N_2
REMARK    2  A    between atoms: C_6  and  C_7
REMARK    3  A    between atoms: C_7  and  C_8
REMARK    4  A    between atoms: C_20  and  C_21
REMARK                            x       y       z     vdW  Elec       q    Type
REMARK                         _______ _______ _______ _____ _____    ______ ____
ROOT
ATOM      1  C   UNL     1       2.585   5.339  18.048  0.00  0.00    +0.000 A 
ATOM      2  C   UNL     1       3.757   5.697  17.376  0.00  0.00    +0.000 A 
ATOM      3  C   UNL     1       4.128   7.034  17.363  0.00  0.00    +0.000 A 
ATOM      4  N   UNL     1       3.387   8.031  17.904  0.00  0.00    +0.000 NA
ATOM      5  C   UNL     1       2.278   7.669  18.582  0.00  0.00    +0.000 A 
ATOM      6  N   UNL     1       1.519   8.673  19.183  0.00  0.00    +0.000 N 
ATOM      7  C   UNL     1       1.014   9.795  18.427  0.00  0.00    +0.000 C 
ATOM      8  C   UNL     1       0.318  10.608  19.480  0.00  0.00    +0.000 A 
ATOM      9  C   UNL     1       0.503  10.007  20.727  0.00  0.00    +0.000 A 
ATOM     10  C   UNL     1       0.031  10.552  21.905  0.00  0.00    +0.000 A 
ATOM     11  C   UNL     1      -0.681  11.745  21.814  0.00  0.00    +0.000 A 
ATOM     12  C   UNL     1      -0.911  12.348  20.563  0.00  0.00    +0.000 A 
ATOM     13  C   UNL     1      -0.430  11.777  19.368  0.00  0.00    +0.000 A 
ATOM     14  C   UNL     1       1.256   8.750  20.543  0.00  0.00    +0.000 C 
ATOM     15  O   UNL     1       1.558   8.005  21.446  0.00  0.00    +0.000 OA
ATOM     16  C   UNL     1       1.847   6.351  18.674  0.00  0.00    +0.000 A 
ENDROOT
BRANCH  13  17
ATOM     17  C   UNL     1      -0.723  12.432  18.047  0.00  0.00    +0.000 C 
ATOM     18  F   UNL     1      -1.974  12.148  17.588  0.00  0.00    +0.000 F 
ATOM     19  F   UNL     1      -0.653  13.793  18.097  0.00  0.00    +0.000 F 
ENDBRANCH  13  17
BRANCH   1  20
ATOM     20  C   UNL     1       2.147   3.896  18.177  0.00  0.00    +0.000 C 
BRANCH  20  26
ATOM     21  C   UNL     1       4.436   2.466  19.995  0.00  0.00    +0.000 C 
ATOM     22  N   UNL     1       3.056   2.730  20.301  0.00  0.00    +0.000 N 
ATOM     23  C   UNL     1       2.465   2.351  21.472  0.00  0.00    +0.000 A 
ATOM     24  N   UNL     1       1.212   2.729  21.480  0.00  0.00    +0.000 NA
ATOM     25  N   UNL     1       0.964   3.355  20.286  0.00  0.00    +0.000 NA
ATOM     26  C   UNL     1       2.072   3.361  19.567  0.00  0.00    +0.000 A 
ENDBRANCH  20  26
ENDBRANCH   1  20
TORSDOF 3
ENDMDL
MODEL 9
REMARK VINA RESULT:      -7.9      1.315      1.560
REMARK  Name = 
REMARK  4 active torsions:
REMARK  status: ('A' for Active; 'I' for Inactive)
REMARK    1  A    between atoms: C_1  and  N_2
REMARK    2  A    between atoms: C_6  and  C_7
REMARK    3  A    between atoms: C_7  and  C_8
REMARK    4  A    between atoms: C_20  and  C_21
REMARK                            x       y       z     vdW  Elec       q    Type
REMARK                         _______ _______ _______ _____ _____    ______ ____
ROOT
ATOM      1  C   UNL     1       4.001   4.182  19.452  0.00  0.00    +0.000 A 
ATOM      2  C   UNL     1       3.050   3.160  19.516  0.00  0.00    +0.000 A 
ATOM      3  C   UNL     1       1.719   3.509  19.701  0.00  0.00    +0.000 A 
ATOM      4  N   UNL     1       1.288   4.778  19.894  0.00  0.00    +0.000 NA
ATOM      5  C   UNL     1       2.211   5.759  19.794  0.00  0.00    +0.000 A 
ATOM      6  N   UNL     1       1.786   7.078  19.948  0.00  0.00    +0.000 N 
ATOM      7  C   UNL     1       1.068   7.509  21.126  0.00  0.00    +0.000 C 
ATOM      8  C   UNL     1       0.792   8.953  20.826  0.00  0.00    +0.000 A 
ATOM      9  C   UNL     1       1.259   9.259  19.545  0.00  0.00    +0.000 A 
ATOM     10  C   UNL     1       1.096  10.498  18.959  0.00  0.00    +0.000 A 
ATOM     11  C   UNL     1       0.456  11.480  19.711  0.00  0.00    +0.000 A 
ATOM     12  C   UNL     1       0.012  11.204  21.018  0.00  0.00    +0.000 A 
ATOM     13  C   UNL     1       0.191   9.936  21.607  0.00  0.00    +0.000 A 
ATOM     14  C   UNL     1       1.918   8.064  18.982  0.00  0.00    +0.000 C 
ATOM     15  O   UNL     1       2.429   8.028  17.887  0.00  0.00    +0.000 OA
ATOM     16  C   UNL     1       3.560   5.504  19.578  0.00  0.00    +0.000 A 
ENDROOT
BRANCH  13  17
ATOM     17  C   UNL     1      -0.267   9.689  23.018  0.00  0.00    +0.000 C 
ATOM     18  F   UNL     1       0.771   9.504  23.881  0.00  0.00    +0.000 F 
ATOM     19  F   UNL     1      -0.992  10.722  23.534  0.00  0.00    +0.000 F 
ENDBRANCH  13  17
BRANCH   1  20
ATOM     20  C   UNL     1       5.462   3.897  19.176  0.00  0.00    +0.000 C 
BRANCH  20  26
ATOM     21  C   UNL     1       7.825   6.130  19.022  0.00  0.00    +0.000 C 
ATOM     22  N   UNL     1       7.031   5.562  17.966  0.00  0.00    +0.000 N 
ATOM     23  C   UNL     1       7.143   5.943  16.659  0.00  0.00    +0.000 A 
ATOM     24  N   UNL     1       6.309   5.255  15.922  0.00  0.00    +0.000 NA
ATOM     25  N   UNL     1       5.618   4.416  16.758  0.00  0.00    +0.000 NA
ATOM     26  C   UNL     1       6.048   4.594  17.995  0.00  0.00    +0.000 A 
ENDBRANCH  20  26
ENDBRANCH   1  20
TORSDOF 3
ENDMDL
