MODEL 1
REMARK VINA RESULT:      -9.6      0.000      0.000
REMARK  Name = 
REMARK  3 active torsions:
REMARK  status: ('A' for Active; 'I' for Inactive)
REMARK    1  A    between atoms: C_1  and  C_2
REMARK    2  A    between atoms: C_14  and  C_16
REMARK    3  A    between atoms: C_16  and  N_17
REMARK                            x       y       z     vdW  Elec       q    Type
REMARK                         _______ _______ _______ _____ _____    ______ ____
ROOT
ATOM      1  C   UNL     1       0.973   2.939  18.631  0.00  0.00    +0.000 C 
ATOM      2  C   UNL     1       2.482   3.222  18.726  0.00  0.00    +0.000 C 
ATOM      3  C   UNL     1       3.073   2.516  19.927  0.00  0.00    +0.000 C 
ATOM      4  C   UNL     1       4.570   2.402  19.914  0.00  0.00    +0.000 C 
ATOM      5  O   UNL     1       5.116   1.340  20.241  0.00  0.00    +0.000 OA
ATOM      6  N   UNL     1       5.385   3.465  19.669  0.00  0.00    +0.000 N 
ATOM      7  C   UNL     1       5.272   4.363  18.583  0.00  0.00    +0.000 A 
ATOM      8  C   UNL     1       6.477   4.655  17.930  0.00  0.00    +0.000 A 
ATOM      9  C   UNL     1       6.484   5.399  16.752  0.00  0.00    +0.000 A 
ATOM     10  C   UNL     1       5.295   5.902  16.240  0.00  0.00    +0.000 A 
ATOM     11  C   UNL     1       4.093   5.684  16.921  0.00  0.00    +0.000 A 
ATOM     12  C   UNL     1       4.078   4.923  18.100  0.00  0.00    +0.000 A 
ATOM     13  N   UNL     1       2.829   4.656  18.710  0.00  0.00    +0.000 N 
ATOM     14  C   UNL     1       2.206   5.584  19.556  0.00  0.00    +0.000 C 
ATOM     15  O   UNL     1       1.235   5.273  20.260  0.00  0.00    +0.000 OA
ATOM     16  H   UNL     1       6.340   3.200  19.890  0.00  0.00    +0.000 HD
ENDROOT
BRANCH  14  17
ATOM     17  C   UNL     1       2.756   7.016  19.660  0.00  0.00    +0.000 C 
BRANCH  17  18
ATOM     18  N   UNL     1       1.837   8.118  19.494  0.00  0.00    +0.000 N 
ATOM     19  C   UNL     1       1.796   8.894  18.355  0.00  0.00    +0.000 A 
ATOM     20  O   UNL     1       2.372   8.646  17.297  0.00  0.00    +0.000 OA
ATOM     21  O   UNL     1       1.022  10.041  18.540  0.00  0.00    +0.000 OA
ATOM     22  C   UNL     1       0.632   9.915  19.862  0.00  0.00    +0.000 A 
ATOM     23  C   UNL     1      -0.023  10.893  20.580  0.00  0.00    +0.000 A 
ATOM     24  C   UNL     1      -0.294  10.618  21.919  0.00  0.00    +0.000 A 
ATOM     25 CL   UNL     1      -0.998  11.840  22.906  0.00  0.00    +0.000 Cl
ATOM     26  C   UNL     1       0.029   9.371  22.485  0.00  0.00    +0.000 A 
ATOM     27  C   UNL     1       0.699   8.399  21.732  0.00  0.00    +0.000 A 
ATOM     28  C   UNL     1       1.040   8.727  20.438  0.00  0.00    +0.000 A 
ENDBRANCH  17  18
ENDBRANCH  14  17
TORSDOF 2
ENDMDL
MODEL 2
REMARK VINA RESULT:      -8.5      3.762      7.444
REMARK  Name = 
REMARK  3 active torsions:
REMARK  status: ('A' for Active; 'I' for Inactive)
REMARK    1  A    between atoms: C_1  and  C_2
REMARK    2  A    between atoms: C_14  and  C_16
REMARK    3  A    between atoms: C_16  and  N_17
REMARK                            x       y       z     vdW  Elec       q    Type
REMARK                         _______ _______ _______ _____ _____    ______ ____
ROOT
ATOM      1  C   UNL     1       2.356   8.382  17.258  0.00  0.00    +0.000 C 
ATOM      2  C   UNL     1       2.024   7.414  18.407  0.00  0.00    +0.000 C 
ATOM      3  C   UNL     1       2.081   8.137  19.735  0.00  0.00    +0.000 C 
ATOM      4  C   UNL     1       1.419   7.415  20.872  0.00  0.00    +0.000 C 
ATOM      5  O   UNL     1       0.701   8.034  21.668  0.00  0.00    +0.000 OA
ATOM      6  N   UNL     1       1.665   6.105  21.152  0.00  0.00    +0.000 N 
ATOM      7  C   UNL     1       1.626   5.039  20.225  0.00  0.00    +0.000 A 
ATOM      8  C   UNL     1       0.945   3.896  20.667  0.00  0.00    +0.000 A 
ATOM      9  C   UNL     1       0.698   2.836  19.798  0.00  0.00    +0.000 A 
ATOM     10  C   UNL     1       1.171   2.882  18.492  0.00  0.00    +0.000 A 
ATOM     11  C   UNL     1       1.918   3.981  18.058  0.00  0.00    +0.000 A 
ATOM     12  C   UNL     1       2.157   5.059  18.925  0.00  0.00    +0.000 A 
ATOM     13  N   UNL     1       2.845   6.187  18.418  0.00  0.00    +0.000 N 
ATOM     14  C   UNL     1       4.244   6.224  18.332  0.00  0.00    +0.000 C 
ATOM     15  O   UNL     1       4.853   7.277  18.102  0.00  0.00    +0.000 OA
ATOM     16  H   UNL     1       1.258   5.885  22.055  0.00  0.00    +0.000 HD
ENDROOT
BRANCH  14  17
ATOM     17  C   UNL     1       5.060   4.944  18.574  0.00  0.00    +0.000 C 
BRANCH  17  18
ATOM     18  N   UNL     1       6.082   4.591  17.616  0.00  0.00    +0.000 N 
ATOM     19  C   UNL     1       7.430   4.725  17.876  0.00  0.00    +0.000 A 
ATOM     20  O   UNL     1       7.929   4.963  18.974  0.00  0.00    +0.000 OA
ATOM     21  O   UNL     1       8.195   4.574  16.718  0.00  0.00    +0.000 OA
ATOM     22  C   UNL     1       7.222   4.374  15.753  0.00  0.00    +0.000 A 
ATOM     23  C   UNL     1       7.464   4.335  14.397  0.00  0.00    +0.000 A 
ATOM     24  C   UNL     1       6.358   4.177  13.563  0.00  0.00    +0.000 A 
ATOM     25 CL   UNL     1       6.570   4.244  11.857  0.00  0.00    +0.000 Cl
ATOM     26  C   UNL     1       5.067   3.999  14.095  0.00  0.00    +0.000 A 
ATOM     27  C   UNL     1       4.852   4.048  15.478  0.00  0.00    +0.000 A 
ATOM     28  C   UNL     1       5.946   4.298  16.278  0.00  0.00    +0.000 A 
ENDBRANCH  17  18
ENDBRANCH  14  17
TORSDOF 2
ENDMDL
MODEL 3
REMARK VINA RESULT:      -7.9      1.587      2.166
REMARK  Name = 
REMARK  3 active torsions:
REMARK  status: ('A' for Active; 'I' for Inactive)
REMARK    1  A    between atoms: C_1  and  C_2
REMARK    2  A    between atoms: C_14  and  C_16
REMARK    3  A    between atoms: C_16  and  N_17
REMARK                            x       y       z     vdW  Elec       q    Type
REMARK                         _______ _______ _______ _____ _____    ______ ____
ROOT
ATOM      1  C   UNL     1       2.629   2.810  16.555  0.00  0.00    +0.000 C 
ATOM      2  C   UNL     1       3.683   3.354  17.534  0.00  0.00    +0.000 C 
ATOM      3  C   UNL     1       3.471   2.770  18.913  0.00  0.00    +0.000 C 
ATOM      4  C   UNL     1       4.637   2.921  19.846  0.00  0.00    +0.000 C 
ATOM      5  O   UNL     1       4.989   1.973  20.560  0.00  0.00    +0.000 OA
ATOM      6  N   UNL     1       5.272   4.110  20.040  0.00  0.00    +0.000 N 
ATOM      7  C   UNL     1       5.751   4.969  19.025  0.00  0.00    +0.000 A 
ATOM      8  C   UNL     1       7.045   5.465  19.234  0.00  0.00    +0.000 A 
ATOM      9  C   UNL     1       7.695   6.193  18.239  0.00  0.00    +0.000 A 
ATOM     10  C   UNL     1       7.043   6.476  17.046  0.00  0.00    +0.000 A 
ATOM     11  C   UNL     1       5.724   6.054  16.852  0.00  0.00    +0.000 A 
ATOM     12  C   UNL     1       5.069   5.307  17.844  0.00  0.00    +0.000 A 
ATOM     13  N   UNL     1       3.766   4.828  17.572  0.00  0.00    +0.000 N 
ATOM     14  C   UNL     1       2.632   5.635  17.734  0.00  0.00    +0.000 C 
ATOM     15  O   UNL     1       1.488   5.161  17.713  0.00  0.00    +0.000 OA
ATOM     16  H   UNL     1       5.897   4.018  20.835  0.00  0.00    +0.000 HD
ENDROOT
BRANCH  14  17
ATOM     17  C   UNL     1       2.795   7.142  17.993  0.00  0.00    +0.000 C 
BRANCH  17  18
ATOM     18  N   UNL     1       2.195   7.702  19.181  0.00  0.00    +0.000 N 
ATOM     19  C   UNL     1       2.054   6.991  20.355  0.00  0.00    +0.000 A 
ATOM     20  O   UNL     1       2.572   5.903  20.601  0.00  0.00    +0.000 OA
ATOM     21  O   UNL     1       1.218   7.649  21.259  0.00  0.00    +0.000 OA
ATOM     22  C   UNL     1       0.848   8.774  20.543  0.00  0.00    +0.000 A 
ATOM     23  C   UNL     1      -0.115   9.675  20.945  0.00  0.00    +0.000 A 
ATOM     24  C   UNL     1      -0.400  10.725  20.075  0.00  0.00    +0.000 A 
ATOM     25 CL   UNL     1      -1.676  11.815  20.456  0.00  0.00    +0.000 Cl
ATOM     26  C   UNL     1       0.315  10.889  18.874  0.00  0.00    +0.000 A 
ATOM     27  C   UNL     1       1.285   9.955  18.489  0.00  0.00    +0.000 A 
ATOM     28  C   UNL     1       1.485   8.874  19.320  0.00  0.00    +0.000 A 
ENDBRANCH  17  18
ENDBRANCH  14  17
TORSDOF 2
ENDMDL
MODEL 4
REMARK VINA RESULT:      -7.8      2.081      3.882
REMARK  Name = 
REMARK  3 active torsions:
REMARK  status: ('A' for Active; 'I' for Inactive)
REMARK    1  A    between atoms: C_1  and  C_2
REMARK    2  A    between atoms: C_14  and  C_16
REMARK    3  A    between atoms: C_16  and  N_17
REMARK                            x       y       z     vdW  Elec       q    Type
REMARK                         _______ _______ _______ _____ _____    ______ ____
ROOT
ATOM      1  C   UNL     1       7.052   6.891  17.732  0.00  0.00    +0.000 C 
ATOM      2  C   UNL     1       6.205   5.665  17.353  0.00  0.00    +0.000 C 
ATOM      3  C   UNL     1       6.170   5.496  15.850  0.00  0.00    +0.000 C 
ATOM      4  C   UNL     1       5.706   4.148  15.380  0.00  0.00    +0.000 C 
ATOM      5  O   UNL     1       6.298   3.574  14.456  0.00  0.00    +0.000 OA
ATOM      6  N   UNL     1       4.569   3.560  15.846  0.00  0.00    +0.000 N 
ATOM      7  C   UNL     1       4.219   3.398  17.206  0.00  0.00    +0.000 A 
ATOM      8  C   UNL     1       3.738   2.126  17.544  0.00  0.00    +0.000 A 
ATOM      9  C   UNL     1       3.505   1.785  18.875  0.00  0.00    +0.000 A 
ATOM     10  C   UNL     1       3.702   2.727  19.878  0.00  0.00    +0.000 A 
ATOM     11  C   UNL     1       4.108   4.024  19.550  0.00  0.00    +0.000 A 
ATOM     12  C   UNL     1       4.358   4.368  18.212  0.00  0.00    +0.000 A 
ATOM     13  N   UNL     1       4.848   5.666  17.934  0.00  0.00    +0.000 N 
ATOM     14  C   UNL     1       3.995   6.774  17.835  0.00  0.00    +0.000 C 
ATOM     15  O   UNL     1       4.385   7.856  17.378  0.00  0.00    +0.000 OA
ATOM     16  H   UNL     1       4.359   2.755  15.265  0.00  0.00    +0.000 HD
ENDROOT
BRANCH  14  17
ATOM     17  C   UNL     1       2.521   6.645  18.255  0.00  0.00    +0.000 C 
BRANCH  17  18
ATOM     18  N   UNL     1       2.037   7.490  19.322  0.00  0.00    +0.000 N 
ATOM     19  C   UNL     1       1.678   7.000  20.561  0.00  0.00    +0.000 A 
ATOM     20  O   UNL     1       1.895   5.862  20.972  0.00  0.00    +0.000 OA
ATOM     21  O   UNL     1       1.001   7.958  21.318  0.00  0.00    +0.000 OA
ATOM     22  C   UNL     1       0.953   9.033  20.446  0.00  0.00    +0.000 A 
ATOM     23  C   UNL     1       0.234  10.187  20.669  0.00  0.00    +0.000 A 
ATOM     24  C   UNL     1       0.255  11.148  19.659  0.00  0.00    +0.000 A 
ATOM     25 CL   UNL     1      -0.719  12.558  19.816  0.00  0.00    +0.000 Cl
ATOM     26  C   UNL     1       1.033  10.968  18.501  0.00  0.00    +0.000 A 
ATOM     27  C   UNL     1       1.751   9.782  18.301  0.00  0.00    +0.000 A 
ATOM     28  C   UNL     1       1.641   8.807  19.268  0.00  0.00    +0.000 A 
ENDBRANCH  17  18
ENDBRANCH  14  17
TORSDOF 2
ENDMDL
MODEL 5
REMARK VINA RESULT:      -7.5      1.806      2.384
REMARK  Name = 
REMARK  3 active torsions:
REMARK  status: ('A' for Active; 'I' for Inactive)
REMARK    1  A    between atoms: C_1  and  C_2
REMARK    2  A    between atoms: C_14  and  C_16
REMARK    3  A    between atoms: C_16  and  N_17
REMARK                            x       y       z     vdW  Elec       q    Type
REMARK                         _______ _______ _______ _____ _____    ______ ____
ROOT
ATOM      1  C   UNL     1       0.775   3.441  18.976  0.00  0.00    +0.000 C 
ATOM      2  C   UNL     1       2.285   3.735  18.988  0.00  0.00    +0.000 C 
ATOM      3  C   UNL     1       2.964   2.948  20.088  0.00  0.00    +0.000 C 
ATOM      4  C   UNL     1       4.457   2.853  19.962  0.00  0.00    +0.000 C 
ATOM      5  O   UNL     1       5.031   1.776  20.169  0.00  0.00    +0.000 OA
ATOM      6  N   UNL     1       5.245   3.943  19.744  0.00  0.00    +0.000 N 
ATOM      7  C   UNL     1       5.049   4.918  18.741  0.00  0.00    +0.000 A 
ATOM      8  C   UNL     1       6.204   5.274  18.030  0.00  0.00    +0.000 A 
ATOM      9  C   UNL     1       6.124   6.105  16.915  0.00  0.00    +0.000 A 
ATOM     10  C   UNL     1       4.897   6.631  16.526  0.00  0.00    +0.000 A 
ATOM     11  C   UNL     1       3.748   6.347  17.270  0.00  0.00    +0.000 A 
ATOM     12  C   UNL     1       3.820   5.498  18.386  0.00  0.00    +0.000 A 
ATOM     13  N   UNL     1       2.619   5.171  19.058  0.00  0.00    +0.000 N 
ATOM     14  C   UNL     1       2.050   6.024  20.013  0.00  0.00    +0.000 C 
ATOM     15  O   UNL     1       1.133   5.648  20.757  0.00  0.00    +0.000 OA
ATOM     16  H   UNL     1       6.214   3.673  19.878  0.00  0.00    +0.000 HD
ENDROOT
BRANCH  14  17
ATOM     17  C   UNL     1       2.596   7.451  20.189  0.00  0.00    +0.000 C 
BRANCH  17  18
ATOM     18  N   UNL     1       1.652   8.531  20.350  0.00  0.00    +0.000 N 
ATOM     19  C   UNL     1       1.213   8.966  21.584  0.00  0.00    +0.000 A 
ATOM     20  O   UNL     1       1.692   8.642  22.669  0.00  0.00    +0.000 OA
ATOM     21  O   UNL     1       0.120   9.827  21.469  0.00  0.00    +0.000 OA
ATOM     22  C   UNL     1      -0.083   9.853  20.100  0.00  0.00    +0.000 A 
ATOM     23  C   UNL     1      -1.165  10.443  19.482  0.00  0.00    +0.000 A 
ATOM     24  C   UNL     1      -1.239  10.329  18.095  0.00  0.00    +0.000 A 
ATOM     25 CL   UNL     1      -2.623  10.933  17.271  0.00  0.00    +0.000 Cl
ATOM     26  C   UNL     1      -0.217   9.699  17.362  0.00  0.00    +0.000 A 
ATOM     27  C   UNL     1       0.869   9.104  18.018  0.00  0.00    +0.000 A 
ATOM     28  C   UNL     1       0.874   9.147  19.395  0.00  0.00    +0.000 A 
ENDBRANCH  17  18
ENDBRANCH  14  17
TORSDOF 2
ENDMDL
MODEL 6
REMARK VINA RESULT:      -7.3      3.166      8.045
REMARK  Name = 
REMARK  3 active torsions:
REMARK  status: ('A' for Active; 'I' for Inactive)
REMARK    1  A    between atoms: C_1  and  C_2
REMARK    2  A    between atoms: C_14  and  C_16
REMARK    3  A    between atoms: C_16  and  N_17
REMARK                            x       y       z     vdW  Elec       q    Type
REMARK                         _______ _______ _______ _____ _____    ______ ____
ROOT
ATOM      1  C   UNL     1      -1.582   9.818  17.078  0.00  0.00    +0.000 C 
ATOM      2  C   UNL     1      -1.101  10.460  18.390  0.00  0.00    +0.000 C 
ATOM      3  C   UNL     1      -0.621  11.872  18.138  0.00  0.00    +0.000 C 
ATOM      4  C   UNL     1      -0.487  12.720  19.369  0.00  0.00    +0.000 C 
ATOM      5  O   UNL     1      -0.886  13.892  19.364  0.00  0.00    +0.000 OA
ATOM      6  N   UNL     1       0.172  12.297  20.483  0.00  0.00    +0.000 N 
ATOM      7  C   UNL     1      -0.026  11.063  21.144  0.00  0.00    +0.000 A 
ATOM      8  C   UNL     1      -0.125  11.150  22.540  0.00  0.00    +0.000 A 
ATOM      9  C   UNL     1      -0.475  10.035  23.297  0.00  0.00    +0.000 A 
ATOM     10  C   UNL     1      -0.682   8.809  22.676  0.00  0.00    +0.000 A 
ATOM     11  C   UNL     1      -0.512   8.689  21.294  0.00  0.00    +0.000 A 
ATOM     12  C   UNL     1      -0.174   9.812  20.523  0.00  0.00    +0.000 A 
ATOM     13  N   UNL     1      -0.095   9.663  19.118  0.00  0.00    +0.000 N 
ATOM     14  C   UNL     1       1.051   9.155  18.491  0.00  0.00    +0.000 C 
ATOM     15  O   UNL     1       1.209   9.230  17.265  0.00  0.00    +0.000 OA
ATOM     16  H   UNL     1       0.293  13.088  21.108  0.00  0.00    +0.000 HD
ENDROOT
BRANCH  14  17
ATOM     17  C   UNL     1       2.173   8.529  19.336  0.00  0.00    +0.000 C 
BRANCH  17  18
ATOM     18  N   UNL     1       2.556   7.163  19.063  0.00  0.00    +0.000 N 
ATOM     19  C   UNL     1       2.244   6.115  19.905  0.00  0.00    +0.000 A 
ATOM     20  O   UNL     1       1.466   6.167  20.855  0.00  0.00    +0.000 OA
ATOM     21  O   UNL     1       2.941   4.955  19.564  0.00  0.00    +0.000 OA
ATOM     22  C   UNL     1       3.706   5.383  18.492  0.00  0.00    +0.000 A 
ATOM     23  C   UNL     1       4.702   4.638  17.896  0.00  0.00    +0.000 A 
ATOM     24  C   UNL     1       5.410   5.246  16.861  0.00  0.00    +0.000 A 
ATOM     25 CL   UNL     1       6.746   4.422  16.155  0.00  0.00    +0.000 Cl
ATOM     26  C   UNL     1       5.072   6.534  16.407  0.00  0.00    +0.000 A 
ATOM     27  C   UNL     1       4.059   7.269  17.036  0.00  0.00    +0.000 A 
ATOM     28  C   UNL     1       3.435   6.686  18.117  0.00  0.00    +0.000 A 
ENDBRANCH  17  18
ENDBRANCH  14  17
TORSDOF 2
ENDMDL
MODEL 7
REMARK VINA RESULT:      -7.2      5.374      8.108
REMARK  Name = 
REMARK  3 active torsions:
REMARK  status: ('A' for Active; 'I' for Inactive)
REMARK    1  A    between atoms: C_1  and  C_2
REMARK    2  A    between atoms: C_14  and  C_16
REMARK    3  A    between atoms: C_16  and  N_17
REMARK                            x       y       z     vdW  Elec       q    Type
REMARK                         _______ _______ _______ _____ _____    ______ ____
ROOT
ATOM      1  C   UNL     1       1.465   9.202  18.667  0.00  0.00    +0.000 C 
ATOM      2  C   UNL     1       0.913  10.250  19.649  0.00  0.00    +0.000 C 
ATOM      3  C   UNL     1       0.261   9.569  20.832  0.00  0.00    +0.000 C 
ATOM      4  C   UNL     1       0.029  10.458  22.019  0.00  0.00    +0.000 C 
ATOM      5  O   UNL     1       0.281  10.049  23.160  0.00  0.00    +0.000 OA
ATOM      6  N   UNL     1      -0.569  11.677  21.916  0.00  0.00    +0.000 N 
ATOM      7  C   UNL     1      -0.218  12.697  21.004  0.00  0.00    +0.000 A 
ATOM      8  C   UNL     1      -0.126  13.981  21.560  0.00  0.00    +0.000 A 
ATOM      9  C   UNL     1       0.363  15.047  20.808  0.00  0.00    +0.000 A 
ATOM     10  C   UNL     1       0.716  14.855  19.477  0.00  0.00    +0.000 A 
ATOM     11  C   UNL     1       0.558  13.598  18.886  0.00  0.00    +0.000 A 
ATOM     12  C   UNL     1       0.081  12.517  19.643  0.00  0.00    +0.000 A 
ATOM     13  N   UNL     1       0.016  11.244  19.028  0.00  0.00    +0.000 N 
ATOM     14  C   UNL     1      -1.061  10.871  18.212  0.00  0.00    +0.000 C 
ATOM     15  O   UNL     1      -1.231   9.696  17.857  0.00  0.00    +0.000 OA
ATOM     16  H   UNL     1      -0.784  12.011  22.850  0.00  0.00    +0.000 HD
ENDROOT
BRANCH  14  17
ATOM     17  C   UNL     1      -2.094  11.924  17.777  0.00  0.00    +0.000 C 
BRANCH  17  18
ATOM     18  N   UNL     1      -3.488  11.674  18.061  0.00  0.00    +0.000 N 
ATOM     19  C   UNL     1      -4.372  11.200  17.114  0.00  0.00    +0.000 A 
ATOM     20  O   UNL     1      -4.069  10.759  16.007  0.00  0.00    +0.000 OA
ATOM     21  O   UNL     1      -5.695  11.293  17.551  0.00  0.00    +0.000 OA
ATOM     22  C   UNL     1      -5.546  11.877  18.797  0.00  0.00    +0.000 A 
ATOM     23  C   UNL     1      -6.589  12.332  19.576  0.00  0.00    +0.000 A 
ATOM     24  C   UNL     1      -6.255  12.942  20.784  0.00  0.00    +0.000 A 
ATOM     25 CL   UNL     1      -7.496  13.643  21.747  0.00  0.00    +0.000 Cl
ATOM     26  C   UNL     1      -4.916  13.024  21.211  0.00  0.00    +0.000 A 
ATOM     27  C   UNL     1      -3.878  12.557  20.396  0.00  0.00    +0.000 A 
ATOM     28  C   UNL     1      -4.224  12.042  19.165  0.00  0.00    +0.000 A 
ENDBRANCH  17  18
ENDBRANCH  14  17
TORSDOF 2
ENDMDL
MODEL 8
REMARK VINA RESULT:      -7.2      6.142      8.919
REMARK  Name = 
REMARK  3 active torsions:
REMARK  status: ('A' for Active; 'I' for Inactive)
REMARK    1  A    between atoms: C_1  and  C_2
REMARK    2  A    between atoms: C_14  and  C_16
REMARK    3  A    between atoms: C_16  and  N_17
REMARK                            x       y       z     vdW  Elec       q    Type
REMARK                         _______ _______ _______ _____ _____    ______ ____
ROOT
ATOM      1  C   UNL     1       0.598  10.037  19.006  0.00  0.00    +0.000 C 
ATOM      2  C   UNL     1       0.137  10.797  20.261  0.00  0.00    +0.000 C 
ATOM      3  C   UNL     1      -0.288   9.823  21.338  0.00  0.00    +0.000 C 
ATOM      4  C   UNL     1      -0.393  10.414  22.714  0.00  0.00    +0.000 C 
ATOM      5  O   UNL     1       0.051   9.798  23.691  0.00  0.00    +0.000 OA
ATOM      6  N   UNL     1      -1.073  11.567  22.966  0.00  0.00    +0.000 N 
ATOM      7  C   UNL     1      -0.925  12.786  22.266  0.00  0.00    +0.000 A 
ATOM      8  C   UNL     1      -0.828  13.925  23.077  0.00  0.00    +0.000 A 
ATOM      9  C   UNL     1      -0.524  15.167  22.524  0.00  0.00    +0.000 A 
ATOM     10  C   UNL     1      -0.363  15.295  21.150  0.00  0.00    +0.000 A 
ATOM     11  C   UNL     1      -0.532  14.183  20.320  0.00  0.00    +0.000 A 
ATOM     12  C   UNL     1      -0.823  12.927  20.873  0.00  0.00    +0.000 A 
ATOM     13  N   UNL     1      -0.902  11.813  20.003  0.00  0.00    +0.000 N 
ATOM     14  C   UNL     1      -2.065  11.524  19.275  0.00  0.00    +0.000 C 
ATOM     15  O   UNL     1      -2.215  10.441  18.692  0.00  0.00    +0.000 OA
ATOM     16  H   UNL     1      -1.166  11.675  23.971  0.00  0.00    +0.000 HD
ENDROOT
BRANCH  14  17
ATOM     17  C   UNL     1      -3.213  12.546  19.227  0.00  0.00    +0.000 C 
BRANCH  17  18
ATOM     18  N   UNL     1      -4.491  12.165  19.782  0.00  0.00    +0.000 N 
ATOM     19  C   UNL     1      -5.523  11.667  19.013  0.00  0.00    +0.000 A 
ATOM     20  O   UNL     1      -5.435  11.310  17.840  0.00  0.00    +0.000 OA
ATOM     21  O   UNL     1      -6.723  11.626  19.724  0.00  0.00    +0.000 OA
ATOM     22  C   UNL     1      -6.351  12.157  20.947  0.00  0.00    +0.000 A 
ATOM     23  C   UNL     1      -7.231  12.483  21.958  0.00  0.00    +0.000 A 
ATOM     24  C   UNL     1      -6.689  13.059  23.105  0.00  0.00    +0.000 A 
ATOM     25 CL   UNL     1      -7.740  13.603  24.354  0.00  0.00    +0.000 Cl
ATOM     26  C   UNL     1      -5.300  13.231  23.245  0.00  0.00    +0.000 A 
ATOM     27  C   UNL     1      -4.430  12.895  22.199  0.00  0.00    +0.000 A 
ATOM     28  C   UNL     1      -4.996  12.415  21.038  0.00  0.00    +0.000 A 
ENDBRANCH  17  18
ENDBRANCH  14  17
TORSDOF 2
ENDMDL
MODEL 9
REMARK VINA RESULT:      -7.2      3.133      7.653
REMARK  Name = 
REMARK  3 active torsions:
REMARK  status: ('A' for Active; 'I' for Inactive)
REMARK    1  A    between atoms: C_1  and  C_2
REMARK    2  A    between atoms: C_14  and  C_16
REMARK    3  A    between atoms: C_16  and  N_17
REMARK                            x       y       z     vdW  Elec       q    Type
REMARK                         _______ _______ _______ _____ _____    ______ ____
ROOT
ATOM      1  C   UNL     1      -1.674   9.833  17.121  0.00  0.00    +0.000 C 
ATOM      2  C   UNL     1      -1.195  10.467  18.438  0.00  0.00    +0.000 C 
ATOM      3  C   UNL     1      -0.773  11.901  18.206  0.00  0.00    +0.000 C 
ATOM      4  C   UNL     1      -0.650  12.728  19.453  0.00  0.00    +0.000 C 
ATOM      5  O   UNL     1      -1.094  13.884  19.478  0.00  0.00    +0.000 OA
ATOM      6  N   UNL     1       0.044  12.309  20.547  0.00  0.00    +0.000 N 
ATOM      7  C   UNL     1      -0.095  11.056  21.185  0.00  0.00    +0.000 A 
ATOM      8  C   UNL     1      -0.173  11.111  22.584  0.00  0.00    +0.000 A 
ATOM      9  C   UNL     1      -0.467   9.968  23.324  0.00  0.00    +0.000 A 
ATOM     10  C   UNL     1      -0.638   8.747  22.681  0.00  0.00    +0.000 A 
ATOM     11  C   UNL     1      -0.488   8.661  21.294  0.00  0.00    +0.000 A 
ATOM     12  C   UNL     1      -0.206   9.812  20.541  0.00  0.00    +0.000 A 
ATOM     13  N   UNL     1      -0.146   9.694  19.132  0.00  0.00    +0.000 N 
ATOM     14  C   UNL     1       1.007   9.243  18.476  0.00  0.00    +0.000 C 
ATOM     15  O   UNL     1       1.140   9.349  17.249  0.00  0.00    +0.000 OA
ATOM     16  H   UNL     1       0.146  13.091  21.186  0.00  0.00    +0.000 HD
ENDROOT
BRANCH  14  17
ATOM     17  C   UNL     1       2.167   8.644  19.289  0.00  0.00    +0.000 C 
BRANCH  17  18
ATOM     18  N   UNL     1       2.671   7.345  18.908  0.00  0.00    +0.000 N 
ATOM     19  C   UNL     1       3.480   7.149  17.808  0.00  0.00    +0.000 A 
ATOM     20  O   UNL     1       4.019   8.035  17.147  0.00  0.00    +0.000 OA
ATOM     21  O   UNL     1       3.613   5.793  17.502  0.00  0.00    +0.000 OA
ATOM     22  C   UNL     1       2.813   5.200  18.463  0.00  0.00    +0.000 A 
ATOM     23  C   UNL     1       2.479   3.863  18.485  0.00  0.00    +0.000 A 
ATOM     24  C   UNL     1       1.618   3.444  19.498  0.00  0.00    +0.000 A 
ATOM     25 CL   UNL     1       1.062   1.816  19.513  0.00  0.00    +0.000 Cl
ATOM     26  C   UNL     1       1.170   4.339  20.487  0.00  0.00    +0.000 A 
ATOM     27  C   UNL     1       1.522   5.694  20.436  0.00  0.00    +0.000 A 
ATOM     28  C   UNL     1       2.298   6.104  19.373  0.00  0.00    +0.000 A 
ENDBRANCH  17  18
ENDBRANCH  14  17
TORSDOF 2
ENDMDL
