MODEL 1
REMARK VINA RESULT:      -8.1      0.000      0.000
REMARK  Name = 
REMARK  8 active torsions:
REMARK  status: ('A' for Active; 'I' for Inactive)
REMARK    1  A    between atoms: C_1  and  N_2
REMARK    2  A    between atoms: C_6  and  C_7
REMARK    3  A    between atoms: C_7  and  C_8
REMARK    4  A    between atoms: C_8  and  C_9
REMARK    5  A    between atoms: C_11  and  C_12
REMARK    6  A    between atoms: C_12  and  O_13
REMARK    7  A    between atoms: C_15  and  N_16
REMARK    8  A    between atoms: C_23  and  C_24
REMARK                            x       y       z     vdW  Elec       q    Type
REMARK                         _______ _______ _______ _____ _____    ______ ____
ROOT
ATOM      1  C   UNL     1      -4.094  11.420  18.097  0.00  0.00    +0.000 A 
ATOM      2  C   UNL     1      -4.163  11.032  16.750  0.00  0.00    +0.000 A 
ATOM      3  C   UNL     1      -3.137  10.267  16.173  0.00  0.00    +0.000 A 
ATOM      4  C   UNL     1      -2.069   9.869  16.968  0.00  0.00    +0.000 A 
ATOM      5  C   UNL     1      -1.834  10.562  18.165  0.00  0.00    +0.000 A 
ATOM      6  C   UNL     1      -2.903  11.197  18.802  0.00  0.00    +0.000 A 
ENDROOT
BRANCH   5   7
ATOM      7  N   UNL     1      -0.487  11.099  18.375  0.00  0.00    +0.000 N 
ATOM      8  C   UNL     1       0.226  10.325  19.427  0.00  0.00    +0.000 C 
ATOM      9  C   UNL     1      -0.098  11.095  20.676  0.00  0.00    +0.000 A 
ATOM     10  C   UNL     1      -0.389  12.407  20.297  0.00  0.00    +0.000 A 
ATOM     11  C   UNL     1      -0.928  13.337  21.171  0.00  0.00    +0.000 A 
ATOM     12  C   UNL     1      -1.176  12.920  22.478  0.00  0.00    +0.000 A 
ATOM     13  C   UNL     1      -0.866  11.607  22.880  0.00  0.00    +0.000 A 
ATOM     14  C   UNL     1      -0.305  10.669  21.985  0.00  0.00    +0.000 A 
ATOM     15  C   UNL     1      -0.446  12.451  18.816  0.00  0.00    +0.000 C 
ATOM     16  O   UNL     1      -0.659  13.465  18.175  0.00  0.00    +0.000 OA
BRANCH  14  17
ATOM     17  C   UNL     1      -0.042   9.264  22.460  0.00  0.00    +0.000 C 
ATOM     18  F   UNL     1      -0.116   9.113  23.810  0.00  0.00    +0.000 F 
ATOM     19  F   UNL     1      -0.934   8.375  21.942  0.00  0.00    +0.000 F 
ATOM     20  F   UNL     1       1.190   8.812  22.098  0.00  0.00    +0.000 F 
ENDBRANCH  14  17
ENDBRANCH   5   7
BRANCH   1  21
ATOM     21  C   UNL     1      -5.194  12.264  18.702  0.00  0.00    +0.000 C 
BRANCH  21  22
ATOM     22  C   UNL     1      -4.946  12.591  20.178  0.00  0.00    +0.000 C 
BRANCH  22  28
ATOM     23  C   UNL     1      -6.133  14.280  22.475  0.00  0.00    +0.000 C 
ATOM     24  N   UNL     1      -6.600  12.987  22.053  0.00  0.00    +0.000 N 
ATOM     25  C   UNL     1      -7.632  12.292  22.594  0.00  0.00    +0.000 A 
ATOM     26  N   UNL     1      -7.785  11.157  21.954  0.00  0.00    +0.000 NA
ATOM     27  N   UNL     1      -6.819  11.106  20.972  0.00  0.00    +0.000 NA
ATOM     28  C   UNL     1      -6.103  12.212  21.036  0.00  0.00    +0.000 A 
ENDBRANCH  22  28
ENDBRANCH  21  22
ENDBRANCH   1  21
BRANCH   3  29
ATOM     29  C   UNL     1      -2.997  10.140  14.676  0.00  0.00    +0.000 C 
BRANCH  29  30
ATOM     30  O   UNL     1      -4.244   9.929  14.048  0.00  0.00    +0.000 OA
ATOM     31  H   UNL     1      -4.345  10.639  13.393  0.00  0.00    +0.000 HD
ENDBRANCH  29  30
ENDBRANCH   3  29
TORSDOF 7
ENDMDL
MODEL 2
REMARK VINA RESULT:      -8.0     10.633     12.357
REMARK  Name = 
REMARK  8 active torsions:
REMARK  status: ('A' for Active; 'I' for Inactive)
REMARK    1  A    between atoms: C_1  and  N_2
REMARK    2  A    between atoms: C_6  and  C_7
REMARK    3  A    between atoms: C_7  and  C_8
REMARK    4  A    between atoms: C_8  and  C_9
REMARK    5  A    between atoms: C_11  and  C_12
REMARK    6  A    between atoms: C_12  and  O_13
REMARK    7  A    between atoms: C_15  and  N_16
REMARK    8  A    between atoms: C_23  and  C_24
REMARK                            x       y       z     vdW  Elec       q    Type
REMARK                         _______ _______ _______ _____ _____    ______ ____
ROOT
ATOM      1  C   UNL     1       9.052  10.392  18.316  0.00  0.00    +0.000 A 
ATOM      2  C   UNL     1       8.070  11.280  17.851  0.00  0.00    +0.000 A 
ATOM      3  C   UNL     1       8.399  12.609  17.539  0.00  0.00    +0.000 A 
ATOM      4  C   UNL     1       9.722  13.019  17.663  0.00  0.00    +0.000 A 
ATOM      5  C   UNL     1      10.584  12.256  18.464  0.00  0.00    +0.000 A 
ATOM      6  C   UNL     1      10.317  10.897  18.644  0.00  0.00    +0.000 A 
ENDROOT
BRANCH   5   7
ATOM      7  N   UNL     1      11.319  12.961  19.517  0.00  0.00    +0.000 N 
ATOM      8  C   UNL     1      10.895  12.483  20.861  0.00  0.00    +0.000 C 
ATOM      9  C   UNL     1       9.794  13.440  21.217  0.00  0.00    +0.000 A 
ATOM     10  C   UNL     1      10.012  14.617  20.498  0.00  0.00    +0.000 A 
ATOM     11  C   UNL     1       9.076  15.636  20.429  0.00  0.00    +0.000 A 
ATOM     12  C   UNL     1       7.878  15.455  21.118  0.00  0.00    +0.000 A 
ATOM     13  C   UNL     1       7.654  14.283  21.866  0.00  0.00    +0.000 A 
ATOM     14  C   UNL     1       8.619  13.255  21.941  0.00  0.00    +0.000 A 
ATOM     15  C   UNL     1      11.120  14.369  19.544  0.00  0.00    +0.000 C 
ATOM     16  O   UNL     1      11.563  15.213  18.785  0.00  0.00    +0.000 OA
BRANCH  14  17
ATOM     17  C   UNL     1       8.302  12.002  22.716  0.00  0.00    +0.000 C 
ATOM     18  F   UNL     1       8.697  10.855  22.099  0.00  0.00    +0.000 F 
ATOM     19  F   UNL     1       8.907  11.991  23.936  0.00  0.00    +0.000 F 
ATOM     20  F   UNL     1       6.970  11.860  22.958  0.00  0.00    +0.000 F 
ENDBRANCH  14  17
ENDBRANCH   5   7
BRANCH   1  21
ATOM     21  C   UNL     1       8.680   8.969  18.671  0.00  0.00    +0.000 C 
BRANCH  21  22
ATOM     22  C   UNL     1       7.832   8.291  17.590  0.00  0.00    +0.000 C 
BRANCH  22  28
ATOM     23  C   UNL     1       5.457   6.689  16.436  0.00  0.00    +0.000 C 
ATOM     24  N   UNL     1       6.374   6.227  17.442  0.00  0.00    +0.000 N 
ATOM     25  C   UNL     1       6.347   5.017  18.057  0.00  0.00    +0.000 A 
ATOM     26  N   UNL     1       7.339   4.933  18.911  0.00  0.00    +0.000 NA
ATOM     27  N   UNL     1       8.028   6.125  18.859  0.00  0.00    +0.000 NA
ATOM     28  C   UNL     1       7.441   6.906  17.973  0.00  0.00    +0.000 A 
ENDBRANCH  22  28
ENDBRANCH  21  22
ENDBRANCH   1  21
BRANCH   3  29
ATOM     29  C   UNL     1       7.335  13.669  17.388  0.00  0.00    +0.000 C 
BRANCH  29  30
ATOM     30  O   UNL     1       7.894  14.949  17.181  0.00  0.00    +0.000 OA
ATOM     31  H   UNL     1       8.811  14.902  17.499  0.00  0.00    +0.000 HD
ENDBRANCH  29  30
ENDBRANCH   3  29
TORSDOF 7
ENDMDL
MODEL 3
REMARK VINA RESULT:      -8.0      9.158     12.212
REMARK  Name = 
REMARK  8 active torsions:
REMARK  status: ('A' for Active; 'I' for Inactive)
REMARK    1  A    between atoms: C_1  and  N_2
REMARK    2  A    between atoms: C_6  and  C_7
REMARK    3  A    between atoms: C_7  and  C_8
REMARK    4  A    between atoms: C_8  and  C_9
REMARK    5  A    between atoms: C_11  and  C_12
REMARK    6  A    between atoms: C_12  and  O_13
REMARK    7  A    between atoms: C_15  and  N_16
REMARK    8  A    between atoms: C_23  and  C_24
REMARK                            x       y       z     vdW  Elec       q    Type
REMARK                         _______ _______ _______ _____ _____    ______ ____
ROOT
ATOM      1  C   UNL     1       7.890   7.895  17.687  0.00  0.00    +0.000 A 
ATOM      2  C   UNL     1       7.839   7.115  18.852  0.00  0.00    +0.000 A 
ATOM      3  C   UNL     1       7.629   5.728  18.775  0.00  0.00    +0.000 A 
ATOM      4  C   UNL     1       7.510   5.137  17.523  0.00  0.00    +0.000 A 
ATOM      5  C   UNL     1       7.191   5.952  16.428  0.00  0.00    +0.000 A 
ATOM      6  C   UNL     1       7.541   7.304  16.465  0.00  0.00    +0.000 A 
ENDROOT
BRANCH   5   7
ATOM      7  N   UNL     1       6.040   5.558  15.612  0.00  0.00    +0.000 N 
ATOM      8  C   UNL     1       4.854   6.395  15.942  0.00  0.00    +0.000 C 
ATOM      9  C   UNL     1       4.169   5.585  17.006  0.00  0.00    +0.000 A 
ATOM     10  C   UNL     1       4.548   4.253  16.830  0.00  0.00    +0.000 A 
ATOM     11  C   UNL     1       4.265   3.265  17.758  0.00  0.00    +0.000 A 
ATOM     12  C   UNL     1       3.568   3.643  18.905  0.00  0.00    +0.000 A 
ATOM     13  C   UNL     1       3.160   4.978  19.085  0.00  0.00    +0.000 A 
ATOM     14  C   UNL     1       3.442   5.976  18.127  0.00  0.00    +0.000 A 
ATOM     15  C   UNL     1       5.610   4.215  15.796  0.00  0.00    +0.000 C 
ATOM     16  O   UNL     1       6.136   3.189  15.401  0.00  0.00    +0.000 OA
BRANCH  14  17
ATOM     17  C   UNL     1       3.023   7.398  18.399  0.00  0.00    +0.000 C 
ATOM     18  F   UNL     1       3.982   8.321  18.116  0.00  0.00    +0.000 F 
ATOM     19  F   UNL     1       1.937   7.759  17.661  0.00  0.00    +0.000 F 
ATOM     20  F   UNL     1       2.676   7.601  19.699  0.00  0.00    +0.000 F 
ENDBRANCH  14  17
ENDBRANCH   5   7
BRANCH   1  21
ATOM     21  C   UNL     1       8.093   9.391  17.783  0.00  0.00    +0.000 C 
BRANCH  21  22
ATOM     22  C   UNL     1       8.925   9.798  19.004  0.00  0.00    +0.000 C 
BRANCH  22  28
ATOM     23  C   UNL     1       9.586  12.004  21.062  0.00  0.00    +0.000 C 
ATOM     24  N   UNL     1      10.001  11.986  19.686  0.00  0.00    +0.000 N 
ATOM     25  C   UNL     1      10.744  12.933  19.060  0.00  0.00    +0.000 A 
ATOM     26  N   UNL     1      10.942  12.586  17.810  0.00  0.00    +0.000 NA
ATOM     27  N   UNL     1      10.303  11.382  17.612  0.00  0.00    +0.000 NA
ATOM     28  C   UNL     1       9.733  11.023  18.746  0.00  0.00    +0.000 A 
ENDBRANCH  22  28
ENDBRANCH  21  22
ENDBRANCH   1  21
BRANCH   3  29
ATOM     29  C   UNL     1       7.215   4.927  19.985  0.00  0.00    +0.000 C 
BRANCH  29  30
ATOM     30  O   UNL     1       8.098   5.120  21.070  0.00  0.00    +0.000 OA
ATOM     31  H   UNL     1       8.734   5.797  20.788  0.00  0.00    +0.000 HD
ENDBRANCH  29  30
ENDBRANCH   3  29
TORSDOF 7
ENDMDL
MODEL 4
REMARK VINA RESULT:      -7.9      0.918      1.193
REMARK  Name = 
REMARK  8 active torsions:
REMARK  status: ('A' for Active; 'I' for Inactive)
REMARK    1  A    between atoms: C_1  and  N_2
REMARK    2  A    between atoms: C_6  and  C_7
REMARK    3  A    between atoms: C_7  and  C_8
REMARK    4  A    between atoms: C_8  and  C_9
REMARK    5  A    between atoms: C_11  and  C_12
REMARK    6  A    between atoms: C_12  and  O_13
REMARK    7  A    between atoms: C_15  and  N_16
REMARK    8  A    between atoms: C_23  and  C_24
REMARK                            x       y       z     vdW  Elec       q    Type
REMARK                         _______ _______ _______ _____ _____    ______ ____
ROOT
ATOM      1  C   UNL     1      -4.121  11.394  17.831  0.00  0.00    +0.000 A 
ATOM      2  C   UNL     1      -4.078  10.881  16.525  0.00  0.00    +0.000 A 
ATOM      3  C   UNL     1      -2.992  10.099  16.100  0.00  0.00    +0.000 A 
ATOM      4  C   UNL     1      -1.978   9.810  17.006  0.00  0.00    +0.000 A 
ATOM      5  C   UNL     1      -1.853  10.617  18.146  0.00  0.00    +0.000 A 
ATOM      6  C   UNL     1      -2.983  11.274  18.640  0.00  0.00    +0.000 A 
ENDROOT
BRANCH   5   7
ATOM      7  N   UNL     1      -0.540  11.213  18.404  0.00  0.00    +0.000 N 
ATOM      8  C   UNL     1       0.199  10.427  19.429  0.00  0.00    +0.000 C 
ATOM      9  C   UNL     1      -0.182  11.117  20.707  0.00  0.00    +0.000 A 
ATOM     10  C   UNL     1      -0.538  12.429  20.388  0.00  0.00    +0.000 A 
ATOM     11  C   UNL     1      -1.137  13.285  21.297  0.00  0.00    +0.000 A 
ATOM     12  C   UNL     1      -1.380  12.792  22.578  0.00  0.00    +0.000 A 
ATOM     13  C   UNL     1      -1.006  11.479  22.921  0.00  0.00    +0.000 A 
ATOM     14  C   UNL     1      -0.385  10.617  21.992  0.00  0.00    +0.000 A 
ATOM     15  C   UNL     1      -0.576  12.542  18.910  0.00  0.00    +0.000 C 
ATOM     16  O   UNL     1      -0.835  13.574  18.315  0.00  0.00    +0.000 OA
BRANCH  14  17
ATOM     17  C   UNL     1      -0.053   9.206  22.402  0.00  0.00    +0.000 C 
ATOM     18  F   UNL     1       1.206   8.814  22.067  0.00  0.00    +0.000 F 
ATOM     19  F   UNL     1      -0.146   9.032  23.749  0.00  0.00    +0.000 F 
ATOM     20  F   UNL     1      -0.893   8.289  21.848  0.00  0.00    +0.000 F 
ENDBRANCH  14  17
ENDBRANCH   5   7
BRANCH   1  21
ATOM     21  C   UNL     1      -5.284  12.254  18.270  0.00  0.00    +0.000 C 
BRANCH  21  22
ATOM     22  C   UNL     1      -6.609  11.485  18.309  0.00  0.00    +0.000 C 
BRANCH  22  28
ATOM     23  C   UNL     1      -7.793  13.651  20.165  0.00  0.00    +0.000 C 
ATOM     24  N   UNL     1      -7.608  12.266  20.500  0.00  0.00    +0.000 N 
ATOM     25  C   UNL     1      -7.916  11.679  21.685  0.00  0.00    +0.000 A 
ATOM     26  N   UNL     1      -7.626  10.401  21.634  0.00  0.00    +0.000 NA
ATOM     27  N   UNL     1      -7.105  10.147  20.384  0.00  0.00    +0.000 NA
ATOM     28  C   UNL     1      -7.093  11.276  19.702  0.00  0.00    +0.000 A 
ENDBRANCH  22  28
ENDBRANCH  21  22
ENDBRANCH   1  21
BRANCH   3  29
ATOM     29  C   UNL     1      -2.735   9.839  14.636  0.00  0.00    +0.000 C 
BRANCH  29  30
ATOM     30  O   UNL     1      -3.569  10.623  13.809  0.00  0.00    +0.000 OA
ATOM     31  H   UNL     1      -3.604  11.505  14.214  0.00  0.00    +0.000 HD
ENDBRANCH  29  30
ENDBRANCH   3  29
TORSDOF 7
ENDMDL
MODEL 5
REMARK VINA RESULT:      -7.8      5.948      9.456
REMARK  Name = 
REMARK  8 active torsions:
REMARK  status: ('A' for Active; 'I' for Inactive)
REMARK    1  A    between atoms: C_1  and  N_2
REMARK    2  A    between atoms: C_6  and  C_7
REMARK    3  A    between atoms: C_7  and  C_8
REMARK    4  A    between atoms: C_8  and  C_9
REMARK    5  A    between atoms: C_11  and  C_12
REMARK    6  A    between atoms: C_12  and  O_13
REMARK    7  A    between atoms: C_15  and  N_16
REMARK    8  A    between atoms: C_23  and  C_24
REMARK                            x       y       z     vdW  Elec       q    Type
REMARK                         _______ _______ _______ _____ _____    ______ ____
ROOT
ATOM      1  C   UNL     1       2.270   4.064  18.155  0.00  0.00    +0.000 A 
ATOM      2  C   UNL     1       2.232   3.470  19.426  0.00  0.00    +0.000 A 
ATOM      3  C   UNL     1       1.869   4.222  20.555  0.00  0.00    +0.000 A 
ATOM      4  C   UNL     1       1.512   5.555  20.387  0.00  0.00    +0.000 A 
ATOM      5  C   UNL     1       1.911   6.209  19.213  0.00  0.00    +0.000 A 
ATOM      6  C   UNL     1       2.127   5.455  18.056  0.00  0.00    +0.000 A 
ENDROOT
BRANCH   5   7
ATOM      7  N   UNL     1       2.644   7.468  19.363  0.00  0.00    +0.000 N 
ATOM      8  C   UNL     1       2.217   8.177  20.600  0.00  0.00    +0.000 C 
ATOM      9  C   UNL     1       1.114   9.068  20.104  0.00  0.00    +0.000 A 
ATOM     10  C   UNL     1       1.332   9.288  18.742  0.00  0.00    +0.000 A 
ATOM     11  C   UNL     1       0.396   9.896  17.923  0.00  0.00    +0.000 A 
ATOM     12  C   UNL     1      -0.804  10.299  18.509  0.00  0.00    +0.000 A 
ATOM     13  C   UNL     1      -1.028  10.104  19.885  0.00  0.00    +0.000 A 
ATOM     14  C   UNL     1      -0.062   9.494  20.715  0.00  0.00    +0.000 A 
ATOM     15  C   UNL     1       2.443   8.405  18.311  0.00  0.00    +0.000 C 
ATOM     16  O   UNL     1       2.887   8.378  17.176  0.00  0.00    +0.000 OA
BRANCH  14  17
ATOM     17  C   UNL     1      -0.379   9.267  22.170  0.00  0.00    +0.000 C 
ATOM     18  F   UNL     1       0.714   9.266  22.981  0.00  0.00    +0.000 F 
ATOM     19  F   UNL     1      -1.205  10.228  22.668  0.00  0.00    +0.000 F 
ATOM     20  F   UNL     1      -1.011   8.081  22.389  0.00  0.00    +0.000 F 
ENDBRANCH  14  17
ENDBRANCH   5   7
BRANCH   1  21
ATOM     21  C   UNL     1       2.685   3.251  16.949  0.00  0.00    +0.000 C 
BRANCH  21  22
ATOM     22  C   UNL     1       4.182   2.921  16.943  0.00  0.00    +0.000 C 
BRANCH  22  28
ATOM     23  C   UNL     1       5.765   4.830  18.783  0.00  0.00    +0.000 C 
ATOM     24  N   UNL     1       5.694   4.910  17.350  0.00  0.00    +0.000 N 
ATOM     25  C   UNL     1       6.302   5.838  16.568  0.00  0.00    +0.000 A 
ATOM     26  N   UNL     1       6.028   5.601  15.307  0.00  0.00    +0.000 NA
ATOM     27  N   UNL     1       5.210   4.493  15.265  0.00  0.00    +0.000 NA
ATOM     28  C   UNL     1       5.008   4.079  16.501  0.00  0.00    +0.000 A 
ENDBRANCH  22  28
ENDBRANCH  21  22
ENDBRANCH   1  21
BRANCH   3  29
ATOM     29  C   UNL     1       2.160   3.731  21.952  0.00  0.00    +0.000 C 
BRANCH  29  30
ATOM     30  O   UNL     1       2.784   2.465  21.946  0.00  0.00    +0.000 OA
ATOM     31  H   UNL     1       2.175   1.862  21.488  0.00  0.00    +0.000 HD
ENDBRANCH  29  30
ENDBRANCH   3  29
TORSDOF 7
ENDMDL
MODEL 6
REMARK VINA RESULT:      -7.7      9.117     11.891
REMARK  Name = 
REMARK  8 active torsions:
REMARK  status: ('A' for Active; 'I' for Inactive)
REMARK    1  A    between atoms: C_1  and  N_2
REMARK    2  A    between atoms: C_6  and  C_7
REMARK    3  A    between atoms: C_7  and  C_8
REMARK    4  A    between atoms: C_8  and  C_9
REMARK    5  A    between atoms: C_11  and  C_12
REMARK    6  A    between atoms: C_12  and  O_13
REMARK    7  A    between atoms: C_15  and  N_16
REMARK    8  A    between atoms: C_23  and  C_24
REMARK                            x       y       z     vdW  Elec       q    Type
REMARK                         _______ _______ _______ _____ _____    ______ ____
ROOT
ATOM      1  C   UNL     1       7.779   7.975  17.702  0.00  0.00    +0.000 A 
ATOM      2  C   UNL     1       7.801   7.190  18.865  0.00  0.00    +0.000 A 
ATOM      3  C   UNL     1       7.668   5.794  18.788  0.00  0.00    +0.000 A 
ATOM      4  C   UNL     1       7.552   5.200  17.536  0.00  0.00    +0.000 A 
ATOM      5  C   UNL     1       7.161   5.999  16.452  0.00  0.00    +0.000 A 
ATOM      6  C   UNL     1       7.435   7.369  16.486  0.00  0.00    +0.000 A 
ENDROOT
BRANCH   5   7
ATOM      7  N   UNL     1       6.015   5.543  15.662  0.00  0.00    +0.000 N 
ATOM      8  C   UNL     1       4.812   6.364  15.964  0.00  0.00    +0.000 C 
ATOM      9  C   UNL     1       4.153   5.586  17.067  0.00  0.00    +0.000 A 
ATOM     10  C   UNL     1       4.562   4.257  16.946  0.00  0.00    +0.000 A 
ATOM     11  C   UNL     1       4.308   3.304  17.919  0.00  0.00    +0.000 A 
ATOM     12  C   UNL     1       3.610   3.715  19.053  0.00  0.00    +0.000 A 
ATOM     13  C   UNL     1       3.171   5.047  19.178  0.00  0.00    +0.000 A 
ATOM     14  C   UNL     1       3.423   6.009  18.176  0.00  0.00    +0.000 A 
ATOM     15  C   UNL     1       5.619   4.199  15.907  0.00  0.00    +0.000 C 
ATOM     16  O   UNL     1       6.167   3.170  15.553  0.00  0.00    +0.000 OA
BRANCH  14  17
ATOM     17  C   UNL     1       2.972   7.430  18.388  0.00  0.00    +0.000 C 
ATOM     18  F   UNL     1       3.908   8.362  18.059  0.00  0.00    +0.000 F 
ATOM     19  F   UNL     1       1.873   7.733  17.643  0.00  0.00    +0.000 F 
ATOM     20  F   UNL     1       2.628   7.682  19.681  0.00  0.00    +0.000 F 
ENDBRANCH  14  17
ENDBRANCH   5   7
BRANCH   1  21
ATOM     21  C   UNL     1       7.900   9.479  17.799  0.00  0.00    +0.000 C 
BRANCH  21  22
ATOM     22  C   UNL     1       9.299   9.935  18.226  0.00  0.00    +0.000 C 
BRANCH  22  28
ATOM     23  C   UNL     1       9.129  12.989  17.797  0.00  0.00    +0.000 C 
ATOM     24  N   UNL     1       9.179  12.320  19.068  0.00  0.00    +0.000 N 
ATOM     25  C   UNL     1       9.165  12.914  20.288  0.00  0.00    +0.000 A 
ATOM     26  N   UNL     1       9.211  11.998  21.226  0.00  0.00    +0.000 NA
ATOM     27  N   UNL     1       9.265  10.772  20.601  0.00  0.00    +0.000 NA
ATOM     28  C   UNL     1       9.248  10.969  19.297  0.00  0.00    +0.000 A 
ENDBRANCH  22  28
ENDBRANCH  21  22
ENDBRANCH   1  21
BRANCH   3  29
ATOM     29  C   UNL     1       7.329   4.968  20.004  0.00  0.00    +0.000 C 
BRANCH  29  30
ATOM     30  O   UNL     1       8.249   5.177  21.054  0.00  0.00    +0.000 OA
ATOM     31  H   UNL     1       7.732   5.498  21.811  0.00  0.00    +0.000 HD
ENDBRANCH  29  30
ENDBRANCH   3  29
TORSDOF 7
ENDMDL
MODEL 7
REMARK VINA RESULT:      -7.5     11.165     13.154
REMARK  Name = 
REMARK  8 active torsions:
REMARK  status: ('A' for Active; 'I' for Inactive)
REMARK    1  A    between atoms: C_1  and  N_2
REMARK    2  A    between atoms: C_6  and  C_7
REMARK    3  A    between atoms: C_7  and  C_8
REMARK    4  A    between atoms: C_8  and  C_9
REMARK    5  A    between atoms: C_11  and  C_12
REMARK    6  A    between atoms: C_12  and  O_13
REMARK    7  A    between atoms: C_15  and  N_16
REMARK    8  A    between atoms: C_23  and  C_24
REMARK                            x       y       z     vdW  Elec       q    Type
REMARK                         _______ _______ _______ _____ _____    ______ ____
ROOT
ATOM      1  C   UNL     1       9.520  10.969  18.631  0.00  0.00    +0.000 A 
ATOM      2  C   UNL     1      10.417  11.502  17.692  0.00  0.00    +0.000 A 
ATOM      3  C   UNL     1      11.397  12.427  18.086  0.00  0.00    +0.000 A 
ATOM      4  C   UNL     1      11.488  12.778  19.428  0.00  0.00    +0.000 A 
ATOM      5  C   UNL     1      10.381  12.539  20.256  0.00  0.00    +0.000 A 
ATOM      6  C   UNL     1       9.494  11.512  19.922  0.00  0.00    +0.000 A 
ENDROOT
BRANCH   5   7
ATOM      7  N   UNL     1       9.869  13.670  21.032  0.00  0.00    +0.000 N 
ATOM      8  C   UNL     1       8.468  13.983  20.639  0.00  0.00    +0.000 C 
ATOM      9  C   UNL     1       8.654  15.016  19.564  0.00  0.00    +0.000 A 
ATOM     10  C   UNL     1       9.888  15.632  19.782  0.00  0.00    +0.000 A 
ATOM     11  C   UNL     1      10.469  16.489  18.862  0.00  0.00    +0.000 A 
ATOM     12  C   UNL     1       9.770  16.733  17.681  0.00  0.00    +0.000 A 
ATOM     13  C   UNL     1       8.514  16.137  17.458  0.00  0.00    +0.000 A 
ATOM     14  C   UNL     1       7.923  15.274  18.407  0.00  0.00    +0.000 A 
ATOM     15  C   UNL     1      10.584  14.887  20.858  0.00  0.00    +0.000 C 
ATOM     16  O   UNL     1      11.681  15.191  21.294  0.00  0.00    +0.000 OA
BRANCH  14  17
ATOM     17  C   UNL     1       6.600  14.627  18.091  0.00  0.00    +0.000 C 
ATOM     18  F   UNL     1       6.708  13.392  17.530  0.00  0.00    +0.000 F 
ATOM     19  F   UNL     1       5.835  14.458  19.205  0.00  0.00    +0.000 F 
ATOM     20  F   UNL     1       5.848  15.367  17.230  0.00  0.00    +0.000 F 
ENDBRANCH  14  17
ENDBRANCH   5   7
BRANCH   1  21
ATOM     21  C   UNL     1       8.454   9.991  18.191  0.00  0.00    +0.000 C 
BRANCH  21  22
ATOM     22  C   UNL     1       8.708   8.568  18.701  0.00  0.00    +0.000 C 
BRANCH  22  28
ATOM     23  C   UNL     1       8.071   5.711  19.684  0.00  0.00    +0.000 C 
ATOM     24  N   UNL     1       7.619   6.296  18.452  0.00  0.00    +0.000 N 
ATOM     25  C   UNL     1       6.845   5.693  17.514  0.00  0.00    +0.000 A 
ATOM     26  N   UNL     1       6.617   6.526  16.527  0.00  0.00    +0.000 NA
ATOM     27  N   UNL     1       7.269   7.704  16.824  0.00  0.00    +0.000 NA
ATOM     28  C   UNL     1       7.875   7.561  17.986  0.00  0.00    +0.000 A 
ENDBRANCH  22  28
ENDBRANCH  21  22
ENDBRANCH   1  21
BRANCH   3  29
ATOM     29  C   UNL     1      12.126  13.279  17.076  0.00  0.00    +0.000 C 
BRANCH  29  30
ATOM     30  O   UNL     1      11.255  13.775  16.081  0.00  0.00    +0.000 OA
ATOM     31  H   UNL     1      11.401  13.227  15.292  0.00  0.00    +0.000 HD
ENDBRANCH  29  30
ENDBRANCH   3  29
TORSDOF 7
ENDMDL
MODEL 8
REMARK VINA RESULT:      -7.5      5.861      8.110
REMARK  Name = 
REMARK  8 active torsions:
REMARK  status: ('A' for Active; 'I' for Inactive)
REMARK    1  A    between atoms: C_1  and  N_2
REMARK    2  A    between atoms: C_6  and  C_7
REMARK    3  A    between atoms: C_7  and  C_8
REMARK    4  A    between atoms: C_8  and  C_9
REMARK    5  A    between atoms: C_11  and  C_12
REMARK    6  A    between atoms: C_12  and  O_13
REMARK    7  A    between atoms: C_15  and  N_16
REMARK    8  A    between atoms: C_23  and  C_24
REMARK                            x       y       z     vdW  Elec       q    Type
REMARK                         _______ _______ _______ _____ _____    ______ ____
ROOT
ATOM      1  C   UNL     1       0.985   8.297  21.011  0.00  0.00    +0.000 A 
ATOM      2  C   UNL     1       1.421   8.884  19.813  0.00  0.00    +0.000 A 
ATOM      3  C   UNL     1       1.980   8.097  18.793  0.00  0.00    +0.000 A 
ATOM      4  C   UNL     1       2.058   6.721  18.975  0.00  0.00    +0.000 A 
ATOM      5  C   UNL     1       1.975   6.215  20.280  0.00  0.00    +0.000 A 
ATOM      6  C   UNL     1       1.287   6.949  21.249  0.00  0.00    +0.000 A 
ENDROOT
BRANCH   5   7
ATOM      7  N   UNL     1       3.050   5.323  20.723  0.00  0.00    +0.000 N 
ATOM      8  C   UNL     1       4.132   5.262  19.703  0.00  0.00    +0.000 C 
ATOM      9  C   UNL     1       3.724   4.085  18.864  0.00  0.00    +0.000 A 
ATOM     10  C   UNL     1       2.927   3.258  19.657  0.00  0.00    +0.000 A 
ATOM     11  C   UNL     1       2.212   2.189  19.143  0.00  0.00    +0.000 A 
ATOM     12  C   UNL     1       2.313   1.950  17.773  0.00  0.00    +0.000 A 
ATOM     13  C   UNL     1       3.131   2.761  16.965  0.00  0.00    +0.000 A 
ATOM     14  C   UNL     1       3.867   3.841  17.500  0.00  0.00    +0.000 A 
ATOM     15  C   UNL     1       2.656   3.972  20.929  0.00  0.00    +0.000 C 
ATOM     16  O   UNL     1       2.003   3.503  21.845  0.00  0.00    +0.000 OA
BRANCH  14  17
ATOM     17  C   UNL     1       4.685   4.705  16.576  0.00  0.00    +0.000 C 
ATOM     18  F   UNL     1       4.251   5.992  16.492  0.00  0.00    +0.000 F 
ATOM     19  F   UNL     1       5.987   4.781  16.969  0.00  0.00    +0.000 F 
ATOM     20  F   UNL     1       4.707   4.231  15.300  0.00  0.00    +0.000 F 
ENDBRANCH  14  17
ENDBRANCH   5   7
BRANCH   1  21
ATOM     21  C   UNL     1       0.407   9.157  22.112  0.00  0.00    +0.000 C 
BRANCH  21  22
ATOM     22  C   UNL     1      -0.702  10.091  21.614  0.00  0.00    +0.000 C 
BRANCH  22  28
ATOM     23  C   UNL     1      -2.448  12.126  23.145  0.00  0.00    +0.000 C 
ATOM     24  N   UNL     1      -1.178  12.402  22.530  0.00  0.00    +0.000 N 
ATOM     25  C   UNL     1      -0.538  13.599  22.514  0.00  0.00    +0.000 A 
ATOM     26  N   UNL     1       0.602  13.482  21.875  0.00  0.00    +0.000 NA
ATOM     27  N   UNL     1       0.705  12.174  21.455  0.00  0.00    +0.000 NA
ATOM     28  C   UNL     1      -0.373  11.524  21.849  0.00  0.00    +0.000 A 
ENDBRANCH  22  28
ENDBRANCH  21  22
ENDBRANCH   1  21
BRANCH   3  29
ATOM     29  C   UNL     1       2.774   8.715  17.669  0.00  0.00    +0.000 C 
BRANCH  29  30
ATOM     30  O   UNL     1       2.241   9.960  17.271  0.00  0.00    +0.000 OA
ATOM     31  H   UNL     1       1.673  10.260  18.000  0.00  0.00    +0.000 HD
ENDBRANCH  29  30
ENDBRANCH   3  29
TORSDOF 7
ENDMDL
MODEL 9
REMARK VINA RESULT:      -7.5     10.798     12.694
REMARK  Name = 
REMARK  8 active torsions:
REMARK  status: ('A' for Active; 'I' for Inactive)
REMARK    1  A    between atoms: C_1  and  N_2
REMARK    2  A    between atoms: C_6  and  C_7
REMARK    3  A    between atoms: C_7  and  C_8
REMARK    4  A    between atoms: C_8  and  C_9
REMARK    5  A    between atoms: C_11  and  C_12
REMARK    6  A    between atoms: C_12  and  O_13
REMARK    7  A    between atoms: C_15  and  N_16
REMARK    8  A    between atoms: C_23  and  C_24
REMARK                            x       y       z     vdW  Elec       q    Type
REMARK                         _______ _______ _______ _____ _____    ______ ____
ROOT
ATOM      1  C   UNL     1       9.018  10.491  18.202  0.00  0.00    +0.000 A 
ATOM      2  C   UNL     1       8.014  11.439  17.952  0.00  0.00    +0.000 A 
ATOM      3  C   UNL     1       8.346  12.743  17.550  0.00  0.00    +0.000 A 
ATOM      4  C   UNL     1       9.685  13.067  17.368  0.00  0.00    +0.000 A 
ATOM      5  C   UNL     1      10.656  12.254  17.969  0.00  0.00    +0.000 A 
ATOM      6  C   UNL     1      10.353  10.915  18.228  0.00  0.00    +0.000 A 
ENDROOT
BRANCH   5   7
ATOM      7  N   UNL     1      11.651  12.914  18.817  0.00  0.00    +0.000 N 
ATOM      8  C   UNL     1      11.282  12.786  20.253  0.00  0.00    +0.000 C 
ATOM      9  C   UNL     1      10.485  14.035  20.499  0.00  0.00    +0.000 A 
ATOM     10  C   UNL     1      10.890  14.984  19.559  0.00  0.00    +0.000 A 
ATOM     11  C   UNL     1      10.219  16.180  19.365  0.00  0.00    +0.000 A 
ATOM     12  C   UNL     1       9.098  16.422  20.158  0.00  0.00    +0.000 A 
ATOM     13  C   UNL     1       8.692  15.484  21.126  0.00  0.00    +0.000 A 
ATOM     14  C   UNL     1       9.389  14.273  21.325  0.00  0.00    +0.000 A 
ATOM     15  C   UNL     1      11.793  14.312  18.594  0.00  0.00    +0.000 C 
ATOM     16  O   UNL     1      12.333  14.880  17.661  0.00  0.00    +0.000 OA
BRANCH  14  17
ATOM     17  C   UNL     1       8.877  13.286  22.341  0.00  0.00    +0.000 C 
ATOM     18  F   UNL     1       8.889  13.751  23.620  0.00  0.00    +0.000 F 
ATOM     19  F   UNL     1       7.588  12.922  22.094  0.00  0.00    +0.000 F 
ATOM     20  F   UNL     1       9.596  12.129  22.355  0.00  0.00    +0.000 F 
ENDBRANCH  14  17
ENDBRANCH   5   7
BRANCH   1  21
ATOM     21  C   UNL     1       8.649   9.097  18.657  0.00  0.00    +0.000 C 
BRANCH  21  22
ATOM     22  C   UNL     1       7.901   8.301  17.582  0.00  0.00    +0.000 C 
BRANCH  22  28
ATOM     23  C   UNL     1       5.479   6.666  16.583  0.00  0.00    +0.000 C 
ATOM     24  N   UNL     1       6.407   6.258  17.601  0.00  0.00    +0.000 N 
ATOM     25  C   UNL     1       6.372   5.093  18.297  0.00  0.00    +0.000 A 
ATOM     26  N   UNL     1       7.379   5.049  19.137  0.00  0.00    +0.000 NA
ATOM     27  N   UNL     1       8.086   6.223  18.992  0.00  0.00    +0.000 NA
ATOM     28  C   UNL     1       7.495   6.952  18.066  0.00  0.00    +0.000 A 
ENDBRANCH  22  28
ENDBRANCH  21  22
ENDBRANCH   1  21
BRANCH   3  29
ATOM     29  C   UNL     1       7.342  13.867  17.622  0.00  0.00    +0.000 C 
BRANCH  29  30
ATOM     30  O   UNL     1       7.880  15.083  17.144  0.00  0.00    +0.000 OA
ATOM     31  H   UNL     1       8.777  14.881  16.831  0.00  0.00    +0.000 HD
ENDBRANCH  29  30
ENDBRANCH   3  29
TORSDOF 7
ENDMDL
