MODEL 1
REMARK VINA RESULT:      -8.8      0.000      0.000
REMARK  Name = 
REMARK  5 active torsions:
REMARK  status: ('A' for Active; 'I' for Inactive)
REMARK    1  A    between atoms: C_1  and  C_2
REMARK    2  A    between atoms: C_8  and  C_9
REMARK    3  A    between atoms: C_9  and  N_10
REMARK    4  A    between atoms: C_11  and  C_13
REMARK    5  A    between atoms: C_13  and  C_14
REMARK                            x       y       z     vdW  Elec       q    Type
REMARK                         _______ _______ _______ _____ _____    ______ ____
ROOT
ATOM      1  N   UNL     1       3.443   5.613  18.010  0.00  0.00    +0.000 N 
ATOM      2  C   UNL     1       4.303   4.535  17.948  0.00  0.00    +0.000 C 
ATOM      3  O   UNL     1       4.843   4.061  18.946  0.00  0.00    +0.000 OA
ATOM      4  H   UNL     1       3.096   6.030  17.156  0.00  0.00    +0.000 HD
ENDROOT
BRANCH   1   5
ATOM      5  C   UNL     1       3.170   6.256  19.281  0.00  0.00    +0.000 C 
BRANCH   5  13
ATOM      6  C   UNL     1      -0.293  11.704  22.065  0.00  0.00    +0.000 C 
ATOM      7  C   UNL     1      -1.043  12.196  20.832  0.00  0.00    +0.000 C 
ATOM      8  C   UNL     1      -1.106  11.155  19.699  0.00  0.00    +0.000 C 
ATOM      9  N   UNL     1       0.151  11.054  18.955  0.00  0.00    +0.000 N 
ATOM     10  C   UNL     1       0.906   9.899  19.045  0.00  0.00    +0.000 A 
ATOM     11  C   UNL     1       1.721   9.523  17.973  0.00  0.00    +0.000 A 
ATOM     12  C   UNL     1       2.450   8.334  18.021  0.00  0.00    +0.000 A 
ATOM     13  C   UNL     1       2.380   7.527  19.153  0.00  0.00    +0.000 A 
ATOM     14  C   UNL     1       1.548   7.969  20.174  0.00  0.00    +0.000 A 
ATOM     15  N   UNL     1       0.809   9.111  20.134  0.00  0.00    +0.000 NA
ATOM     16  C   UNL     1       0.796  12.324  18.606  0.00  0.00    +0.000 C 
ATOM     17  C   UNL     1       0.777  13.320  19.777  0.00  0.00    +0.000 C 
ATOM     18  O   UNL     1      -0.522  13.456  20.365  0.00  0.00    +0.000 OA
ENDBRANCH   5  13
ENDBRANCH   1   5
BRANCH   2  19
ATOM     19  C   UNL     1       4.484   3.935  16.557  0.00  0.00    +0.000 C 
BRANCH  19  20
ATOM     20  C   UNL     1       5.657   4.491  15.812  0.00  0.00    +0.000 A 
ATOM     21  C   UNL     1       6.581   5.398  16.303  0.00  0.00    +0.000 A 
ATOM     22  N   UNL     1       7.490   5.670  15.316  0.00  0.00    +0.000 N 
ATOM     23  C   UNL     1       7.155   5.001  14.163  0.00  0.00    +0.000 A 
ATOM     24  C   UNL     1       7.776   5.007  12.906  0.00  0.00    +0.000 A 
ATOM     25  C   UNL     1       7.197   4.236  11.895  0.00  0.00    +0.000 A 
ATOM     26  C   UNL     1       6.046   3.490  12.134  0.00  0.00    +0.000 A 
ATOM     27  C   UNL     1       5.444   3.491  13.398  0.00  0.00    +0.000 A 
ATOM     28  C   UNL     1       6.006   4.259  14.440  0.00  0.00    +0.000 A 
ATOM     29  H   UNL     1       8.280   6.294  15.405  0.00  0.00    +0.000 HD
ENDBRANCH  19  20
ENDBRANCH   2  19
TORSDOF 4
ENDMDL
MODEL 2
REMARK VINA RESULT:      -8.6      5.882      8.862
REMARK  Name = 
REMARK  5 active torsions:
REMARK  status: ('A' for Active; 'I' for Inactive)
REMARK    1  A    between atoms: C_1  and  C_2
REMARK    2  A    between atoms: C_8  and  C_9
REMARK    3  A    between atoms: C_9  and  N_10
REMARK    4  A    between atoms: C_11  and  C_13
REMARK    5  A    between atoms: C_13  and  C_14
REMARK                            x       y       z     vdW  Elec       q    Type
REMARK                         _______ _______ _______ _____ _____    ______ ____
ROOT
ATOM      1  N   UNL     1       8.453   8.399  18.287  0.00  0.00    +0.000 N 
ATOM      2  C   UNL     1       8.529   9.778  18.257  0.00  0.00    +0.000 C 
ATOM      3  O   UNL     1       7.890  10.459  17.457  0.00  0.00    +0.000 OA
ATOM      4  H   UNL     1       9.066   7.875  18.897  0.00  0.00    +0.000 HD
ENDROOT
BRANCH   1   5
ATOM      5  C   UNL     1       7.623   7.694  17.330  0.00  0.00    +0.000 C 
BRANCH   5  13
ATOM      6  C   UNL     1       1.517   4.218  17.557  0.00  0.00    +0.000 C 
ATOM      7  C   UNL     1       1.563   3.699  18.991  0.00  0.00    +0.000 C 
ATOM      8  C   UNL     1       2.586   4.437  19.874  0.00  0.00    +0.000 C 
ATOM      9  N   UNL     1       3.963   4.008  19.622  0.00  0.00    +0.000 N 
ATOM     10  C   UNL     1       4.856   4.889  19.043  0.00  0.00    +0.000 A 
ATOM     11  C   UNL     1       6.221   4.770  19.323  0.00  0.00    +0.000 A 
ATOM     12  C   UNL     1       7.135   5.681  18.791  0.00  0.00    +0.000 A 
ATOM     13  C   UNL     1       6.686   6.705  17.962  0.00  0.00    +0.000 A 
ATOM     14  C   UNL     1       5.317   6.757  17.734  0.00  0.00    +0.000 A 
ATOM     15  N   UNL     1       4.408   5.894  18.263  0.00  0.00    +0.000 NA
ATOM     16  C   UNL     1       4.172   2.562  19.491  0.00  0.00    +0.000 C 
ATOM     17  C   UNL     1       3.085   1.898  18.631  0.00  0.00    +0.000 C 
ATOM     18  O   UNL     1       1.760   2.273  19.029  0.00  0.00    +0.000 OA
ENDBRANCH   5  13
ENDBRANCH   1   5
BRANCH   2  19
ATOM     19  C   UNL     1       9.415  10.397  19.334  0.00  0.00    +0.000 C 
BRANCH  19  20
ATOM     20  C   UNL     1      10.366  11.426  18.808  0.00  0.00    +0.000 A 
ATOM     21  C   UNL     1      11.726  11.257  18.614  0.00  0.00    +0.000 A 
ATOM     22  N   UNL     1      12.246  12.429  18.134  0.00  0.00    +0.000 N 
ATOM     23  C   UNL     1      11.265  13.389  18.057  0.00  0.00    +0.000 A 
ATOM     24  C   UNL     1      11.346  14.729  17.655  0.00  0.00    +0.000 A 
ATOM     25  C   UNL     1      10.174  15.489  17.696  0.00  0.00    +0.000 A 
ATOM     26  C   UNL     1       8.973  14.929  18.121  0.00  0.00    +0.000 A 
ATOM     27  C   UNL     1       8.910  13.585  18.512  0.00  0.00    +0.000 A 
ATOM     28  C   UNL     1      10.076  12.793  18.479  0.00  0.00    +0.000 A 
ATOM     29  H   UNL     1      13.216  12.585  17.896  0.00  0.00    +0.000 HD
ENDBRANCH  19  20
ENDBRANCH   2  19
TORSDOF 4
ENDMDL
MODEL 3
REMARK VINA RESULT:      -8.6      7.049      8.483
REMARK  Name = 
REMARK  5 active torsions:
REMARK  status: ('A' for Active; 'I' for Inactive)
REMARK    1  A    between atoms: C_1  and  C_2
REMARK    2  A    between atoms: C_8  and  C_9
REMARK    3  A    between atoms: C_9  and  N_10
REMARK    4  A    between atoms: C_11  and  C_13
REMARK    5  A    between atoms: C_13  and  C_14
REMARK                            x       y       z     vdW  Elec       q    Type
REMARK                         _______ _______ _______ _____ _____    ______ ____
ROOT
ATOM      1  N   UNL     1       8.252   9.173  18.024  0.00  0.00    +0.000 N 
ATOM      2  C   UNL     1       7.913   7.836  17.950  0.00  0.00    +0.000 C 
ATOM      3  O   UNL     1       8.261   7.016  18.798  0.00  0.00    +0.000 OA
ATOM      4  H   UNL     1       8.025   9.793  17.258  0.00  0.00    +0.000 HD
ENDROOT
BRANCH   1   5
ATOM      5  C   UNL     1       9.079   9.656  19.114  0.00  0.00    +0.000 C 
BRANCH   5  13
ATOM      6  C   UNL     1       8.927  16.561  17.806  0.00  0.00    +0.000 C 
ATOM      7  C   UNL     1      10.339  16.757  17.262  0.00  0.00    +0.000 C 
ATOM      8  C   UNL     1      11.013  15.443  16.828  0.00  0.00    +0.000 C 
ATOM      9  N   UNL     1      11.505  14.658  17.962  0.00  0.00    +0.000 N 
ATOM     10  C   UNL     1      10.907  13.450  18.266  0.00  0.00    +0.000 A 
ATOM     11  C   UNL     1      11.657  12.446  18.886  0.00  0.00    +0.000 A 
ATOM     12  C   UNL     1      11.088  11.200  19.154  0.00  0.00    +0.000 A 
ATOM     13  C   UNL     1       9.759  10.962  18.818  0.00  0.00    +0.000 A 
ATOM     14  C   UNL     1       9.082  12.008  18.203  0.00  0.00    +0.000 A 
ATOM     15  N   UNL     1       9.627  13.219  17.911  0.00  0.00    +0.000 NA
ATOM     16  C   UNL     1      12.208  15.410  19.007  0.00  0.00    +0.000 C 
ATOM     17  C   UNL     1      11.492  16.726  19.350  0.00  0.00    +0.000 C 
ATOM     18  O   UNL     1      11.162  17.495  18.187  0.00  0.00    +0.000 OA
ENDBRANCH   5  13
ENDBRANCH   1   5
BRANCH   2  19
ATOM     19  C   UNL     1       7.018   7.463  16.771  0.00  0.00    +0.000 C 
BRANCH  19  20
ATOM     20  C   UNL     1       6.388   6.112  16.901  0.00  0.00    +0.000 A 
ATOM     21  C   UNL     1       6.981   4.901  16.588  0.00  0.00    +0.000 A 
ATOM     22  N   UNL     1       6.080   3.900  16.830  0.00  0.00    +0.000 N 
ATOM     23  C   UNL     1       4.882   4.429  17.247  0.00  0.00    +0.000 A 
ATOM     24  C   UNL     1       3.679   3.787  17.574  0.00  0.00    +0.000 A 
ATOM     25  C   UNL     1       2.600   4.589  17.953  0.00  0.00    +0.000 A 
ATOM     26  C   UNL     1       2.721   5.974  18.002  0.00  0.00    +0.000 A 
ATOM     27  C   UNL     1       3.933   6.598  17.679  0.00  0.00    +0.000 A 
ATOM     28  C   UNL     1       5.041   5.814  17.295  0.00  0.00    +0.000 A 
ATOM     29  H   UNL     1       6.252   2.913  16.697  0.00  0.00    +0.000 HD
ENDBRANCH  19  20
ENDBRANCH   2  19
TORSDOF 4
ENDMDL
MODEL 4
REMARK VINA RESULT:      -8.5      6.068      9.000
REMARK  Name = 
REMARK  5 active torsions:
REMARK  status: ('A' for Active; 'I' for Inactive)
REMARK    1  A    between atoms: C_1  and  C_2
REMARK    2  A    between atoms: C_8  and  C_9
REMARK    3  A    between atoms: C_9  and  N_10
REMARK    4  A    between atoms: C_11  and  C_13
REMARK    5  A    between atoms: C_13  and  C_14
REMARK                            x       y       z     vdW  Elec       q    Type
REMARK                         _______ _______ _______ _____ _____    ______ ____
ROOT
ATOM      1  N   UNL     1       8.187   8.848  17.867  0.00  0.00    +0.000 N 
ATOM      2  C   UNL     1       8.758   9.900  18.554  0.00  0.00    +0.000 C 
ATOM      3  O   UNL     1       9.387   9.745  19.600  0.00  0.00    +0.000 OA
ATOM      4  H   UNL     1       7.600   9.032  17.064  0.00  0.00    +0.000 HD
ENDROOT
BRANCH   1   5
ATOM      5  C   UNL     1       8.284   7.498  18.387  0.00  0.00    +0.000 C 
BRANCH   5  13
ATOM      6  C   UNL     1       3.785   2.400  20.172  0.00  0.00    +0.000 C 
ATOM      7  C   UNL     1       3.063   2.209  18.842  0.00  0.00    +0.000 C 
ATOM      8  C   UNL     1       3.823   2.808  17.644  0.00  0.00    +0.000 C 
ATOM      9  N   UNL     1       3.691   4.264  17.563  0.00  0.00    +0.000 N 
ATOM     10  C   UNL     1       4.797   5.062  17.784  0.00  0.00    +0.000 A 
ATOM     11  C   UNL     1       4.881   6.312  17.164  0.00  0.00    +0.000 A 
ATOM     12  C   UNL     1       6.012   7.111  17.332  0.00  0.00    +0.000 A 
ATOM     13  C   UNL     1       7.057   6.669  18.137  0.00  0.00    +0.000 A 
ATOM     14  C   UNL     1       6.899   5.416  18.716  0.00  0.00    +0.000 A 
ATOM     15  N   UNL     1       5.816   4.612  18.544  0.00  0.00    +0.000 NA
ATOM     16  C   UNL     1       2.344   4.802  17.786  0.00  0.00    +0.000 C 
ATOM     17  C   UNL     1       1.642   4.120  18.971  0.00  0.00    +0.000 C 
ATOM     18  O   UNL     1       1.707   2.690  18.904  0.00  0.00    +0.000 OA
ENDBRANCH   5  13
ENDBRANCH   1   5
BRANCH   2  19
ATOM     19  C   UNL     1       8.607  11.264  17.887  0.00  0.00    +0.000 C 
BRANCH  19  20
ATOM     20  C   UNL     1       9.901  11.996  17.720  0.00  0.00    +0.000 A 
ATOM     21  C   UNL     1      11.148  11.421  17.546  0.00  0.00    +0.000 A 
ATOM     22  N   UNL     1      12.078  12.421  17.444  0.00  0.00    +0.000 N 
ATOM     23  C   UNL     1      11.478  13.647  17.601  0.00  0.00    +0.000 A 
ATOM     24  C   UNL     1      12.039  14.931  17.604  0.00  0.00    +0.000 A 
ATOM     25  C   UNL     1      11.180  16.014  17.809  0.00  0.00    +0.000 A 
ATOM     26  C   UNL     1       9.816  15.817  18.002  0.00  0.00    +0.000 A 
ATOM     27  C   UNL     1       9.271  14.527  17.989  0.00  0.00    +0.000 A 
ATOM     28  C   UNL     1      10.114  13.414  17.783  0.00  0.00    +0.000 A 
ATOM     29  H   UNL     1      13.070  12.286  17.303  0.00  0.00    +0.000 HD
ENDBRANCH  19  20
ENDBRANCH   2  19
TORSDOF 4
ENDMDL
MODEL 5
REMARK VINA RESULT:      -8.5      3.021      9.516
REMARK  Name = 
REMARK  5 active torsions:
REMARK  status: ('A' for Active; 'I' for Inactive)
REMARK    1  A    between atoms: C_1  and  C_2
REMARK    2  A    between atoms: C_8  and  C_9
REMARK    3  A    between atoms: C_9  and  N_10
REMARK    4  A    between atoms: C_11  and  C_13
REMARK    5  A    between atoms: C_13  and  C_14
REMARK                            x       y       z     vdW  Elec       q    Type
REMARK                         _______ _______ _______ _____ _____    ______ ____
ROOT
ATOM      1  N   UNL     1       0.875   9.676  18.897  0.00  0.00    +0.000 N 
ATOM      2  C   UNL     1       0.491  10.954  19.254  0.00  0.00    +0.000 C 
ATOM      3  O   UNL     1       1.090  11.956  18.869  0.00  0.00    +0.000 OA
ATOM      4  H   UNL     1       0.412   8.878  19.312  0.00  0.00    +0.000 HD
ENDROOT
BRANCH   1   5
ATOM      5  C   UNL     1       2.044   9.471  18.065  0.00  0.00    +0.000 C 
BRANCH   5  13
ATOM      6  C   UNL     1       1.724   2.773  20.173  0.00  0.00    +0.000 C 
ATOM      7  C   UNL     1       3.183   2.369  19.987  0.00  0.00    +0.000 C 
ATOM      8  C   UNL     1       4.138   3.570  19.865  0.00  0.00    +0.000 C 
ATOM      9  N   UNL     1       4.092   4.197  18.543  0.00  0.00    +0.000 N 
ATOM     10  C   UNL     1       3.574   5.472  18.411  0.00  0.00    +0.000 A 
ATOM     11  C   UNL     1       4.031   6.299  17.380  0.00  0.00    +0.000 A 
ATOM     12  C   UNL     1       3.562   7.607  17.261  0.00  0.00    +0.000 A 
ATOM     13  C   UNL     1       2.616   8.086  18.163  0.00  0.00    +0.000 A 
ATOM     14  C   UNL     1       2.214   7.205  19.159  0.00  0.00    +0.000 A 
ATOM     15  N   UNL     1       2.679   5.936  19.307  0.00  0.00    +0.000 NA
ATOM     16  C   UNL     1       4.084   3.282  17.397  0.00  0.00    +0.000 C 
ATOM     17  C   UNL     1       3.139   2.091  17.618  0.00  0.00    +0.000 C 
ATOM     18  O   UNL     1       3.340   1.453  18.885  0.00  0.00    +0.000 OA
ENDBRANCH   5  13
ENDBRANCH   1   5
BRANCH   2  19
ATOM     19  C   UNL     1      -0.770  11.033  20.110  0.00  0.00    +0.000 C 
BRANCH  19  20
ATOM     20  C   UNL     1      -1.984  11.465  19.350  0.00  0.00    +0.000 A 
ATOM     21  C   UNL     1      -2.948  12.356  19.789  0.00  0.00    +0.000 A 
ATOM     22  N   UNL     1      -3.902  12.480  18.815  0.00  0.00    +0.000 N 
ATOM     23  C   UNL     1      -3.617  11.646  17.760  0.00  0.00    +0.000 A 
ATOM     24  C   UNL     1      -4.326  11.422  16.572  0.00  0.00    +0.000 A 
ATOM     25  C   UNL     1      -3.803  10.489  15.673  0.00  0.00    +0.000 A 
ATOM     26  C   UNL     1      -2.620   9.811  15.952  0.00  0.00    +0.000 A 
ATOM     27  C   UNL     1      -1.922  10.053  17.142  0.00  0.00    +0.000 A 
ATOM     28  C   UNL     1      -2.424  10.991  18.068  0.00  0.00    +0.000 A 
ATOM     29  H   UNL     1      -4.718  13.074  18.867  0.00  0.00    +0.000 HD
ENDBRANCH  19  20
ENDBRANCH   2  19
TORSDOF 4
ENDMDL
MODEL 6
REMARK VINA RESULT:      -8.5      6.082      9.204
REMARK  Name = 
REMARK  5 active torsions:
REMARK  status: ('A' for Active; 'I' for Inactive)
REMARK    1  A    between atoms: C_1  and  C_2
REMARK    2  A    between atoms: C_8  and  C_9
REMARK    3  A    between atoms: C_9  and  N_10
REMARK    4  A    between atoms: C_11  and  C_13
REMARK    5  A    between atoms: C_13  and  C_14
REMARK                            x       y       z     vdW  Elec       q    Type
REMARK                         _______ _______ _______ _____ _____    ______ ____
ROOT
ATOM      1  N   UNL     1       8.461   8.334  18.303  0.00  0.00    +0.000 N 
ATOM      2  C   UNL     1       8.578   9.709  18.351  0.00  0.00    +0.000 C 
ATOM      3  O   UNL     1       7.926  10.455  17.623  0.00  0.00    +0.000 OA
ATOM      4  H   UNL     1       9.084   7.757  18.852  0.00  0.00    +0.000 HD
ENDROOT
BRANCH   1   5
ATOM      5  C   UNL     1       7.568   7.711  17.346  0.00  0.00    +0.000 C 
BRANCH   5  13
ATOM      6  C   UNL     1       1.476   4.206  17.501  0.00  0.00    +0.000 C 
ATOM      7  C   UNL     1       1.518   3.670  18.929  0.00  0.00    +0.000 C 
ATOM      8  C   UNL     1       2.533   4.401  19.826  0.00  0.00    +0.000 C 
ATOM      9  N   UNL     1       3.913   3.981  19.575  0.00  0.00    +0.000 N 
ATOM     10  C   UNL     1       4.806   4.873  19.011  0.00  0.00    +0.000 A 
ATOM     11  C   UNL     1       6.170   4.757  19.296  0.00  0.00    +0.000 A 
ATOM     12  C   UNL     1       7.082   5.679  18.781  0.00  0.00    +0.000 A 
ATOM     13  C   UNL     1       6.632   6.710  17.961  0.00  0.00    +0.000 A 
ATOM     14  C   UNL     1       5.264   6.759  17.728  0.00  0.00    +0.000 A 
ATOM     15  N   UNL     1       4.357   5.885  18.242  0.00  0.00    +0.000 NA
ATOM     16  C   UNL     1       4.130   2.537  19.428  0.00  0.00    +0.000 C 
ATOM     17  C   UNL     1       3.050   1.880  18.554  0.00  0.00    +0.000 C 
ATOM     18  O   UNL     1       1.722   2.243  18.950  0.00  0.00    +0.000 OA
ENDBRANCH   5  13
ENDBRANCH   1   5
BRANCH   2  19
ATOM     19  C   UNL     1       9.530  10.238  19.419  0.00  0.00    +0.000 C 
BRANCH  19  20
ATOM     20  C   UNL     1      10.248  11.488  19.017  0.00  0.00    +0.000 A 
ATOM     21  C   UNL     1      10.990  11.668  17.863  0.00  0.00    +0.000 A 
ATOM     22  N   UNL     1      11.497  12.940  17.865  0.00  0.00    +0.000 N 
ATOM     23  C   UNL     1      11.149  13.589  19.026  0.00  0.00    +0.000 A 
ATOM     24  C   UNL     1      11.471  14.880  19.467  0.00  0.00    +0.000 A 
ATOM     25  C   UNL     1      10.990  15.275  20.718  0.00  0.00    +0.000 A 
ATOM     26  C   UNL     1      10.219  14.413  21.493  0.00  0.00    +0.000 A 
ATOM     27  C   UNL     1       9.902  13.129  21.032  0.00  0.00    +0.000 A 
ATOM     28  C   UNL     1      10.372  12.702  19.772  0.00  0.00    +0.000 A 
ATOM     29  H   UNL     1      12.070  13.343  17.136  0.00  0.00    +0.000 HD
ENDBRANCH  19  20
ENDBRANCH   2  19
TORSDOF 4
ENDMDL
MODEL 7
REMARK VINA RESULT:      -8.3      5.675      8.659
REMARK  Name = 
REMARK  5 active torsions:
REMARK  status: ('A' for Active; 'I' for Inactive)
REMARK    1  A    between atoms: C_1  and  C_2
REMARK    2  A    between atoms: C_8  and  C_9
REMARK    3  A    between atoms: C_9  and  N_10
REMARK    4  A    between atoms: C_11  and  C_13
REMARK    5  A    between atoms: C_13  and  C_14
REMARK                            x       y       z     vdW  Elec       q    Type
REMARK                         _______ _______ _______ _____ _____    ______ ____
ROOT
ATOM      1  N   UNL     1       7.966   7.784  17.931  0.00  0.00    +0.000 N 
ATOM      2  C   UNL     1       8.259   9.116  18.152  0.00  0.00    +0.000 C 
ATOM      3  O   UNL     1       7.680  10.027  17.562  0.00  0.00    +0.000 OA
ATOM      4  H   UNL     1       8.530   7.066  18.366  0.00  0.00    +0.000 HD
ENDROOT
BRANCH   1   5
ATOM      5  C   UNL     1       6.966   7.410  16.950  0.00  0.00    +0.000 C 
BRANCH   5  13
ATOM      6  C   UNL     1       2.333   4.120  21.089  0.00  0.00    +0.000 C 
ATOM      7  C   UNL     1       2.605   2.673  20.688  0.00  0.00    +0.000 C 
ATOM      8  C   UNL     1       3.948   2.483  19.961  0.00  0.00    +0.000 C 
ATOM      9  N   UNL     1       3.899   2.913  18.562  0.00  0.00    +0.000 N 
ATOM     10  C   UNL     1       4.623   4.020  18.163  0.00  0.00    +0.000 A 
ATOM     11  C   UNL     1       5.079   4.107  16.844  0.00  0.00    +0.000 A 
ATOM     12  C   UNL     1       5.857   5.190  16.434  0.00  0.00    +0.000 A 
ATOM     13  C   UNL     1       6.165   6.201  17.340  0.00  0.00    +0.000 A 
ATOM     14  C   UNL     1       5.678   6.040  18.630  0.00  0.00    +0.000 A 
ATOM     15  N   UNL     1       4.940   4.980  19.056  0.00  0.00    +0.000 NA
ATOM     16  C   UNL     1       2.711   2.504  17.805  0.00  0.00    +0.000 C 
ATOM     17  C   UNL     1       1.419   2.686  18.619  0.00  0.00    +0.000 C 
ATOM     18  O   UNL     1       1.509   2.121  19.932  0.00  0.00    +0.000 OA
ENDBRANCH   5  13
ENDBRANCH   1   5
BRANCH   2  19
ATOM     19  C   UNL     1       9.309   9.375  19.228  0.00  0.00    +0.000 C 
BRANCH  19  20
ATOM     20  C   UNL     1       9.484  10.824  19.558  0.00  0.00    +0.000 A 
ATOM     21  C   UNL     1       8.961  11.479  20.660  0.00  0.00    +0.000 A 
ATOM     22  N   UNL     1       9.331  12.795  20.599  0.00  0.00    +0.000 N 
ATOM     23  C   UNL     1      10.044  13.037  19.449  0.00  0.00    +0.000 A 
ATOM     24  C   UNL     1      10.589  14.233  18.962  0.00  0.00    +0.000 A 
ATOM     25  C   UNL     1      11.257  14.188  17.736  0.00  0.00    +0.000 A 
ATOM     26  C   UNL     1      11.374  12.995  17.029  0.00  0.00    +0.000 A 
ATOM     27  C   UNL     1      10.829  11.808  17.535  0.00  0.00    +0.000 A 
ATOM     28  C   UNL     1      10.151  11.822  18.772  0.00  0.00    +0.000 A 
ATOM     29  H   UNL     1       9.094  13.503  21.282  0.00  0.00    +0.000 HD
ENDBRANCH  19  20
ENDBRANCH   2  19
TORSDOF 4
ENDMDL
MODEL 8
REMARK VINA RESULT:      -8.3      5.977      9.200
REMARK  Name = 
REMARK  5 active torsions:
REMARK  status: ('A' for Active; 'I' for Inactive)
REMARK    1  A    between atoms: C_1  and  C_2
REMARK    2  A    between atoms: C_8  and  C_9
REMARK    3  A    between atoms: C_9  and  N_10
REMARK    4  A    between atoms: C_11  and  C_13
REMARK    5  A    between atoms: C_13  and  C_14
REMARK                            x       y       z     vdW  Elec       q    Type
REMARK                         _______ _______ _______ _____ _____    ______ ____
ROOT
ATOM      1  N   UNL     1       8.031   8.831  17.870  0.00  0.00    +0.000 N 
ATOM      2  C   UNL     1       8.708   9.880  18.458  0.00  0.00    +0.000 C 
ATOM      3  O   UNL     1       9.499   9.720  19.387  0.00  0.00    +0.000 OA
ATOM      4  H   UNL     1       7.321   9.017  17.174  0.00  0.00    +0.000 HD
ENDROOT
BRANCH   1   5
ATOM      5  C   UNL     1       8.210   7.479  18.362  0.00  0.00    +0.000 C 
BRANCH   5  13
ATOM      6  C   UNL     1       3.694   2.509  20.441  0.00  0.00    +0.000 C 
ATOM      7  C   UNL     1       3.069   2.143  19.099  0.00  0.00    +0.000 C 
ATOM      8  C   UNL     1       3.897   2.617  17.891  0.00  0.00    +0.000 C 
ATOM      9  N   UNL     1       3.744   4.050  17.628  0.00  0.00    +0.000 N 
ATOM     10  C   UNL     1       4.818   4.898  17.826  0.00  0.00    +0.000 A 
ATOM     11  C   UNL     1       4.920   6.068  17.068  0.00  0.00    +0.000 A 
ATOM     12  C   UNL     1       6.023   6.911  17.213  0.00  0.00    +0.000 A 
ATOM     13  C   UNL     1       7.018   6.594  18.133  0.00  0.00    +0.000 A 
ATOM     14  C   UNL     1       6.844   5.414  18.845  0.00  0.00    +0.000 A 
ATOM     15  N   UNL     1       5.791   4.567  18.699  0.00  0.00    +0.000 NA
ATOM     16  C   UNL     1       2.376   4.574  17.697  0.00  0.00    +0.000 C 
ATOM     17  C   UNL     1       1.606   4.019  18.906  0.00  0.00    +0.000 C 
ATOM     18  O   UNL     1       1.702   2.593  19.014  0.00  0.00    +0.000 OA
ENDBRANCH   5  13
ENDBRANCH   1   5
BRANCH   2  19
ATOM     19  C   UNL     1       8.452  11.246  17.829  0.00  0.00    +0.000 C 
BRANCH  19  20
ATOM     20  C   UNL     1       9.515  12.255  18.134  0.00  0.00    +0.000 A 
ATOM     21  C   UNL     1      10.605  12.559  17.337  0.00  0.00    +0.000 A 
ATOM     22  N   UNL     1      11.349  13.520  17.966  0.00  0.00    +0.000 N 
ATOM     23  C   UNL     1      10.802  13.821  19.191  0.00  0.00    +0.000 A 
ATOM     24  C   UNL     1      11.240  14.713  20.179  0.00  0.00    +0.000 A 
ATOM     25  C   UNL     1      10.486  14.802  21.351  0.00  0.00    +0.000 A 
ATOM     26  C   UNL     1       9.340  14.030  21.525  0.00  0.00    +0.000 A 
ATOM     27  C   UNL     1       8.914  13.149  20.524  0.00  0.00    +0.000 A 
ATOM     28  C   UNL     1       9.654  13.039  19.328  0.00  0.00    +0.000 A 
ATOM     29  H   UNL     1      12.198  13.935  17.604  0.00  0.00    +0.000 HD
ENDBRANCH  19  20
ENDBRANCH   2  19
TORSDOF 4
ENDMDL
MODEL 9
REMARK VINA RESULT:      -8.3      5.675      9.064
REMARK  Name = 
REMARK  5 active torsions:
REMARK  status: ('A' for Active; 'I' for Inactive)
REMARK    1  A    between atoms: C_1  and  C_2
REMARK    2  A    between atoms: C_8  and  C_9
REMARK    3  A    between atoms: C_9  and  N_10
REMARK    4  A    between atoms: C_11  and  C_13
REMARK    5  A    between atoms: C_13  and  C_14
REMARK                            x       y       z     vdW  Elec       q    Type
REMARK                         _______ _______ _______ _____ _____    ______ ____
ROOT
ATOM      1  N   UNL     1       8.038   7.846  17.998  0.00  0.00    +0.000 N 
ATOM      2  C   UNL     1       8.280   9.196  18.161  0.00  0.00    +0.000 C 
ATOM      3  O   UNL     1       7.730  10.055  17.474  0.00  0.00    +0.000 OA
ATOM      4  H   UNL     1       8.581   7.171  18.521  0.00  0.00    +0.000 HD
ENDROOT
BRANCH   1   5
ATOM      5  C   UNL     1       7.132   7.387  16.963  0.00  0.00    +0.000 C 
BRANCH   5  13
ATOM      6  C   UNL     1       2.350   4.188  21.003  0.00  0.00    +0.000 C 
ATOM      7  C   UNL     1       2.657   2.731  20.669  0.00  0.00    +0.000 C 
ATOM      8  C   UNL     1       4.034   2.532  20.012  0.00  0.00    +0.000 C 
ATOM      9  N   UNL     1       4.045   2.911  18.597  0.00  0.00    +0.000 N 
ATOM     10  C   UNL     1       4.774   4.012  18.192  0.00  0.00    +0.000 A 
ATOM     11  C   UNL     1       5.290   4.058  16.893  0.00  0.00    +0.000 A 
ATOM     12  C   UNL     1       6.073   5.136  16.479  0.00  0.00    +0.000 A 
ATOM     13  C   UNL     1       6.328   6.183  17.360  0.00  0.00    +0.000 A 
ATOM     14  C   UNL     1       5.782   6.062  18.632  0.00  0.00    +0.000 A 
ATOM     15  N   UNL     1       5.039   5.008  19.062  0.00  0.00    +0.000 NA
ATOM     16  C   UNL     1       2.898   2.459  17.802  0.00  0.00    +0.000 C 
ATOM     17  C   UNL     1       1.568   2.653  18.548  0.00  0.00    +0.000 C 
ATOM     18  O   UNL     1       1.604   2.138  19.884  0.00  0.00    +0.000 OA
ENDBRANCH   5  13
ENDBRANCH   1   5
BRANCH   2  19
ATOM     19  C   UNL     1       9.231   9.547  19.302  0.00  0.00    +0.000 C 
BRANCH  19  20
ATOM     20  C   UNL     1       9.831  10.912  19.182  0.00  0.00    +0.000 A 
ATOM     21  C   UNL     1      10.607  11.374  18.133  0.00  0.00    +0.000 A 
ATOM     22  N   UNL     1      10.976  12.665  18.400  0.00  0.00    +0.000 N 
ATOM     23  C   UNL     1      10.504  13.050  19.632  0.00  0.00    +0.000 A 
ATOM     24  C   UNL     1      10.664  14.261  20.320  0.00  0.00    +0.000 A 
ATOM     25  C   UNL     1      10.082  14.368  21.586  0.00  0.00    +0.000 A 
ATOM     26  C   UNL     1       9.368  13.308  22.137  0.00  0.00    +0.000 A 
ATOM     27  C   UNL     1       9.212  12.108  21.431  0.00  0.00    +0.000 A 
ATOM     28  C   UNL     1       9.788  11.971  20.151  0.00  0.00    +0.000 A 
ATOM     29  H   UNL     1      11.540  13.250  17.798  0.00  0.00    +0.000 HD
ENDBRANCH  19  20
ENDBRANCH   2  19
TORSDOF 4
ENDMDL
