MODEL 1
REMARK VINA RESULT:      -8.8      0.000      0.000
REMARK  Name = 
REMARK  4 active torsions:
REMARK  status: ('A' for Active; 'I' for Inactive)
REMARK    1  A    between atoms: C_2  and  C_12
REMARK    2  A    between atoms: N_3  and  C_4
REMARK    3  A    between atoms: C_14  and  C_15
REMARK    4  A    between atoms: N_19  and  C_20
REMARK                            x       y       z     vdW  Elec       q    Type
REMARK                         _______ _______ _______ _____ _____    ______ ____
ROOT
ATOM      1  C   UNL     1       5.316   4.606  16.067  0.00  0.00    +0.000 A 
ATOM      2  C   UNL     1       5.291   3.821  14.926  0.00  0.00    +0.000 A 
ATOM      3  C   UNL     1       6.455   4.161  14.224  0.00  0.00    +0.000 A 
ATOM      4  N   UNL     1       7.155   5.114  14.834  0.00  0.00    +0.000 NA
ATOM      5  N   UNL     1       6.516   5.308  16.022  0.00  0.00    +0.000 N 
ENDROOT
BRANCH   5   6
ATOM      6  C   UNL     1       7.161   6.070  17.041  0.00  0.00    +0.000 A 
ATOM      7  C   UNL     1       7.551   5.435  18.229  0.00  0.00    +0.000 A 
ATOM      8  C   UNL     1       8.204   6.160  19.232  0.00  0.00    +0.000 A 
ATOM      9  C   UNL     1       8.445   7.522  19.066  0.00  0.00    +0.000 A 
ATOM     10  C   UNL     1       8.027   8.167  17.905  0.00  0.00    +0.000 A 
ATOM     11  C   UNL     1       7.387   7.446  16.894  0.00  0.00    +0.000 A 
ENDBRANCH   5   6
BRANCH   1  13
ATOM     12  O   UNL     1       3.895   5.874  17.416  0.00  0.00    +0.000 OA
ATOM     13  C   UNL     1       4.296   4.769  17.071  0.00  0.00    +0.000 C 
ATOM     14  N   UNL     1       3.868   3.575  17.619  0.00  0.00    +0.000 N 
ATOM     15  H   UNL     1       4.328   2.726  17.308  0.00  0.00    +0.000 HD
BRANCH  14  16
ATOM     16  C   UNL     1       2.989   3.414  18.716  0.00  0.00    +0.000 A 
ATOM     17  C   UNL     1       3.381   2.965  19.978  0.00  0.00    +0.000 A 
ATOM     18  C   UNL     1       2.422   2.782  20.973  0.00  0.00    +0.000 A 
ATOM     19  F   UNL     1       2.804   2.338  22.178  0.00  0.00    +0.000 F 
ATOM     20  C   UNL     1       1.075   3.045  20.742  0.00  0.00    +0.000 A 
ATOM     21  C   UNL     1       0.677   3.518  19.495  0.00  0.00    +0.000 A 
ATOM     22  C   UNL     1       1.633   3.706  18.501  0.00  0.00    +0.000 A 
ATOM     23  F   UNL     1       1.239   4.148  17.296  0.00  0.00    +0.000 F 
ENDBRANCH  14  16
ENDBRANCH   1  13
BRANCH   3  24
ATOM     24  C   UNL     1       6.855   3.506  12.912  0.00  0.00    +0.000 C 
ATOM     25  C   UNL     1       6.784   4.348  11.651  0.00  0.00    +0.000 C 
ATOM     26  C   UNL     1       5.805   3.244  11.855  0.00  0.00    +0.000 C 
ENDBRANCH   3  24
TORSDOF 4
ENDMDL
MODEL 2
REMARK VINA RESULT:      -8.5      1.048      1.919
REMARK  Name = 
REMARK  4 active torsions:
REMARK  status: ('A' for Active; 'I' for Inactive)
REMARK    1  A    between atoms: C_2  and  C_12
REMARK    2  A    between atoms: N_3  and  C_4
REMARK    3  A    between atoms: C_14  and  C_15
REMARK    4  A    between atoms: N_19  and  C_20
REMARK                            x       y       z     vdW  Elec       q    Type
REMARK                         _______ _______ _______ _____ _____    ______ ____
ROOT
ATOM      1  C   UNL     1       5.197   4.472  15.830  0.00  0.00    +0.000 A 
ATOM      2  C   UNL     1       5.147   3.821  14.609  0.00  0.00    +0.000 A 
ATOM      3  C   UNL     1       6.293   4.244  13.923  0.00  0.00    +0.000 A 
ATOM      4  N   UNL     1       7.006   5.124  14.621  0.00  0.00    +0.000 NA
ATOM      5  N   UNL     1       6.395   5.180  15.837  0.00  0.00    +0.000 N 
ENDROOT
BRANCH   5   6
ATOM      6  C   UNL     1       7.063   5.825  16.920  0.00  0.00    +0.000 A 
ATOM      7  C   UNL     1       7.328   7.199  16.842  0.00  0.00    +0.000 A 
ATOM      8  C   UNL     1       7.963   7.854  17.902  0.00  0.00    +0.000 A 
ATOM      9  C   UNL     1       8.361   7.139  19.029  0.00  0.00    +0.000 A 
ATOM     10  C   UNL     1       8.137   5.766  19.097  0.00  0.00    +0.000 A 
ATOM     11  C   UNL     1       7.490   5.109  18.048  0.00  0.00    +0.000 A 
ENDBRANCH   5   6
BRANCH   1  13
ATOM     12  O   UNL     1       3.671   5.564  17.216  0.00  0.00    +0.000 OA
ATOM     13  C   UNL     1       4.201   4.516  16.870  0.00  0.00    +0.000 C 
ATOM     14  N   UNL     1       3.955   3.285  17.448  0.00  0.00    +0.000 N 
ATOM     15  H   UNL     1       4.512   2.499  17.129  0.00  0.00    +0.000 HD
BRANCH  14  16
ATOM     16  C   UNL     1       3.144   3.029  18.578  0.00  0.00    +0.000 A 
ATOM     17  C   UNL     1       1.750   2.977  18.551  0.00  0.00    +0.000 A 
ATOM     18  C   UNL     1       1.044   2.779  19.736  0.00  0.00    +0.000 A 
ATOM     19  F   UNL     1      -0.295   2.745  19.705  0.00  0.00    +0.000 F 
ATOM     20  C   UNL     1       1.698   2.623  20.955  0.00  0.00    +0.000 A 
ATOM     21  C   UNL     1       3.090   2.647  20.990  0.00  0.00    +0.000 A 
ATOM     22  C   UNL     1       3.797   2.840  19.807  0.00  0.00    +0.000 A 
ATOM     23  F   UNL     1       5.139   2.877  19.851  0.00  0.00    +0.000 F 
ENDBRANCH  14  16
ENDBRANCH   1  13
BRANCH   3  24
ATOM     24  C   UNL     1       6.664   3.743  12.536  0.00  0.00    +0.000 C 
ATOM     25  C   UNL     1       5.567   3.683  11.490  0.00  0.00    +0.000 C 
ATOM     26  C   UNL     1       6.120   2.418  12.049  0.00  0.00    +0.000 C 
ENDBRANCH   3  24
TORSDOF 4
ENDMDL
MODEL 3
REMARK VINA RESULT:      -8.4      1.191      1.503
REMARK  Name = 
REMARK  4 active torsions:
REMARK  status: ('A' for Active; 'I' for Inactive)
REMARK    1  A    between atoms: C_2  and  C_12
REMARK    2  A    between atoms: N_3  and  C_4
REMARK    3  A    between atoms: C_14  and  C_15
REMARK    4  A    between atoms: N_19  and  C_20
REMARK                            x       y       z     vdW  Elec       q    Type
REMARK                         _______ _______ _______ _____ _____    ______ ____
ROOT
ATOM      1  C   UNL     1       5.395   4.839  15.896  0.00  0.00    +0.000 A 
ATOM      2  C   UNL     1       5.410   4.069  14.747  0.00  0.00    +0.000 A 
ATOM      3  C   UNL     1       6.642   4.342  14.140  0.00  0.00    +0.000 A 
ATOM      4  N   UNL     1       7.351   5.243  14.814  0.00  0.00    +0.000 NA
ATOM      5  N   UNL     1       6.636   5.466  15.953  0.00  0.00    +0.000 N 
ENDROOT
BRANCH   5   6
ATOM      6  C   UNL     1       7.248   6.176  17.028  0.00  0.00    +0.000 A 
ATOM      7  C   UNL     1       7.572   5.491  18.207  0.00  0.00    +0.000 A 
ATOM      8  C   UNL     1       8.191   6.165  19.265  0.00  0.00    +0.000 A 
ATOM      9  C   UNL     1       8.463   7.526  19.162  0.00  0.00    +0.000 A 
ATOM     10  C   UNL     1       8.109   8.223  18.010  0.00  0.00    +0.000 A 
ATOM     11  C   UNL     1       7.504   7.553  16.944  0.00  0.00    +0.000 A 
ENDBRANCH   5   6
BRANCH   1  13
ATOM     12  O   UNL     1       3.801   6.158  16.975  0.00  0.00    +0.000 OA
ATOM     13  C   UNL     1       4.314   5.057  16.823  0.00  0.00    +0.000 C 
ATOM     14  N   UNL     1       3.964   3.925  17.535  0.00  0.00    +0.000 N 
ATOM     15  H   UNL     1       4.513   3.086  17.378  0.00  0.00    +0.000 HD
BRANCH  14  16
ATOM     16  C   UNL     1       3.047   3.851  18.609  0.00  0.00    +0.000 A 
ATOM     17  C   UNL     1       1.840   3.151  18.566  0.00  0.00    +0.000 A 
ATOM     18  C   UNL     1       0.978   3.194  19.660  0.00  0.00    +0.000 A 
ATOM     19  F   UNL     1      -0.185   2.531  19.606  0.00  0.00    +0.000 F 
ATOM     20  C   UNL     1       1.294   3.917  20.806  0.00  0.00    +0.000 A 
ATOM     21  C   UNL     1       2.506   4.599  20.870  0.00  0.00    +0.000 A 
ATOM     22  C   UNL     1       3.371   4.553  19.781  0.00  0.00    +0.000 A 
ATOM     23  F   UNL     1       4.532   5.225  19.844  0.00  0.00    +0.000 F 
ENDBRANCH  14  16
ENDBRANCH   1  13
BRANCH   3  24
ATOM     24  C   UNL     1       7.101   3.675  12.852  0.00  0.00    +0.000 C 
ATOM     25  C   UNL     1       6.909   4.437  11.554  0.00  0.00    +0.000 C 
ATOM     26  C   UNL     1       6.075   3.234  11.831  0.00  0.00    +0.000 C 
ENDBRANCH   3  24
TORSDOF 4
ENDMDL
MODEL 4
REMARK VINA RESULT:      -8.3      1.384      1.467
REMARK  Name = 
REMARK  4 active torsions:
REMARK  status: ('A' for Active; 'I' for Inactive)
REMARK    1  A    between atoms: C_2  and  C_12
REMARK    2  A    between atoms: N_3  and  C_4
REMARK    3  A    between atoms: C_14  and  C_15
REMARK    4  A    between atoms: N_19  and  C_20
REMARK                            x       y       z     vdW  Elec       q    Type
REMARK                         _______ _______ _______ _____ _____    ______ ____
ROOT
ATOM      1  C   UNL     1       5.577   4.135  16.096  0.00  0.00    +0.000 A 
ATOM      2  C   UNL     1       5.496   3.483  14.877  0.00  0.00    +0.000 A 
ATOM      3  C   UNL     1       6.294   4.238  14.007  0.00  0.00    +0.000 A 
ATOM      4  N   UNL     1       6.815   5.310  14.597  0.00  0.00    +0.000 NA
ATOM      5  N   UNL     1       6.468   5.187  15.910  0.00  0.00    +0.000 N 
ENDROOT
BRANCH   5   6
ATOM      6  C   UNL     1       7.097   6.027  16.875  0.00  0.00    +0.000 A 
ATOM      7  C   UNL     1       7.597   5.460  18.056  0.00  0.00    +0.000 A 
ATOM      8  C   UNL     1       8.237   6.263  19.006  0.00  0.00    +0.000 A 
ATOM      9  C   UNL     1       8.354   7.635  18.796  0.00  0.00    +0.000 A 
ATOM     10  C   UNL     1       7.826   8.212  17.644  0.00  0.00    +0.000 A 
ATOM     11  C   UNL     1       7.199   7.413  16.685  0.00  0.00    +0.000 A 
ENDBRANCH   5   6
BRANCH   1  13
ATOM     12  O   UNL     1       5.358   3.338  18.279  0.00  0.00    +0.000 OA
ATOM     13  C   UNL     1       4.841   3.876  17.308  0.00  0.00    +0.000 C 
ATOM     14  N   UNL     1       3.512   4.248  17.234  0.00  0.00    +0.000 N 
ATOM     15  H   UNL     1       3.177   4.614  16.349  0.00  0.00    +0.000 HD
BRANCH  14  16
ATOM     16  C   UNL     1       2.508   3.995  18.197  0.00  0.00    +0.000 A 
ATOM     17  C   UNL     1       2.098   4.913  19.166  0.00  0.00    +0.000 A 
ATOM     18  C   UNL     1       1.143   4.539  20.110  0.00  0.00    +0.000 A 
ATOM     19  F   UNL     1       0.764   5.421  21.044  0.00  0.00    +0.000 F 
ATOM     20  C   UNL     1       0.577   3.268  20.107  0.00  0.00    +0.000 A 
ATOM     21  C   UNL     1       0.960   2.353  19.130  0.00  0.00    +0.000 A 
ATOM     22  C   UNL     1       1.910   2.725  18.184  0.00  0.00    +0.000 A 
ATOM     23  F   UNL     1       2.285   1.832  17.254  0.00  0.00    +0.000 F 
ENDBRANCH  14  16
ENDBRANCH   1  13
BRANCH   3  24
ATOM     24  C   UNL     1       6.524   3.860  12.553  0.00  0.00    +0.000 C 
ATOM     25  C   UNL     1       5.312   3.491  11.717  0.00  0.00    +0.000 C 
ATOM     26  C   UNL     1       6.288   2.434  12.103  0.00  0.00    +0.000 C 
ENDBRANCH   3  24
TORSDOF 4
ENDMDL
MODEL 5
REMARK VINA RESULT:      -8.1      4.582      6.502
REMARK  Name = 
REMARK  4 active torsions:
REMARK  status: ('A' for Active; 'I' for Inactive)
REMARK    1  A    between atoms: C_2  and  C_12
REMARK    2  A    between atoms: N_3  and  C_4
REMARK    3  A    between atoms: C_14  and  C_15
REMARK    4  A    between atoms: N_19  and  C_20
REMARK                            x       y       z     vdW  Elec       q    Type
REMARK                         _______ _______ _______ _____ _____    ______ ____
ROOT
ATOM      1  C   UNL     1       3.251   6.887  18.005  0.00  0.00    +0.000 A 
ATOM      2  C   UNL     1       4.155   7.119  16.983  0.00  0.00    +0.000 A 
ATOM      3  C   UNL     1       4.876   5.925  16.854  0.00  0.00    +0.000 A 
ATOM      4  N   UNL     1       4.501   5.009  17.743  0.00  0.00    +0.000 NA
ATOM      5  N   UNL     1       3.426   5.558  18.376  0.00  0.00    +0.000 N 
ENDROOT
BRANCH   5   6
ATOM      6  C   UNL     1       2.611   4.729  19.203  0.00  0.00    +0.000 A 
ATOM      7  C   UNL     1       1.527   4.046  18.632  0.00  0.00    +0.000 A 
ATOM      8  C   UNL     1       0.728   3.212  19.421  0.00  0.00    +0.000 A 
ATOM      9  C   UNL     1       0.988   3.079  20.783  0.00  0.00    +0.000 A 
ATOM     10  C   UNL     1       2.037   3.786  21.365  0.00  0.00    +0.000 A 
ATOM     11  C   UNL     1       2.848   4.608  20.579  0.00  0.00    +0.000 A 
ENDBRANCH   5   6
BRANCH   1  13
ATOM     12  O   UNL     1       2.053   7.709  19.831  0.00  0.00    +0.000 OA
ATOM     13  C   UNL     1       2.360   7.818  18.650  0.00  0.00    +0.000 C 
ATOM     14  N   UNL     1       1.869   8.789  17.798  0.00  0.00    +0.000 N 
ATOM     15  H   UNL     1       2.136   8.732  16.821  0.00  0.00    +0.000 HD
BRANCH  14  16
ATOM     16  C   UNL     1       0.874   9.749  18.095  0.00  0.00    +0.000 A 
ATOM     17  C   UNL     1      -0.498   9.500  18.047  0.00  0.00    +0.000 A 
ATOM     18  C   UNL     1      -1.397  10.535  18.297  0.00  0.00    +0.000 A 
ATOM     19  F   UNL     1      -2.713  10.292  18.236  0.00  0.00    +0.000 F 
ATOM     20  C   UNL     1      -0.958  11.820  18.604  0.00  0.00    +0.000 A 
ATOM     21  C   UNL     1       0.408  12.074  18.680  0.00  0.00    +0.000 A 
ATOM     22  C   UNL     1       1.308  11.040  18.435  0.00  0.00    +0.000 A 
ATOM     23  F   UNL     1       2.624  11.297  18.495  0.00  0.00    +0.000 F 
ENDBRANCH  14  16
ENDBRANCH   1  13
BRANCH   3  24
ATOM     24  C   UNL     1       5.962   5.718  15.811  0.00  0.00    +0.000 C 
ATOM     25  C   UNL     1       5.671   4.767  14.666  0.00  0.00    +0.000 C 
ATOM     26  C   UNL     1       6.658   4.377  15.711  0.00  0.00    +0.000 C 
ENDBRANCH   3  24
TORSDOF 4
ENDMDL
MODEL 6
REMARK VINA RESULT:      -8.1      4.691      6.451
REMARK  Name = 
REMARK  4 active torsions:
REMARK  status: ('A' for Active; 'I' for Inactive)
REMARK    1  A    between atoms: C_2  and  C_12
REMARK    2  A    between atoms: N_3  and  C_4
REMARK    3  A    between atoms: C_14  and  C_15
REMARK    4  A    between atoms: N_19  and  C_20
REMARK                            x       y       z     vdW  Elec       q    Type
REMARK                         _______ _______ _______ _____ _____    ______ ____
ROOT
ATOM      1  C   UNL     1       2.960   6.958  18.451  0.00  0.00    +0.000 A 
ATOM      2  C   UNL     1       3.762   7.345  17.391  0.00  0.00    +0.000 A 
ATOM      3  C   UNL     1       4.498   6.202  17.054  0.00  0.00    +0.000 A 
ATOM      4  N   UNL     1       4.228   5.172  17.850  0.00  0.00    +0.000 NA
ATOM      5  N   UNL     1       3.202   5.600  18.637  0.00  0.00    +0.000 N 
ENDROOT
BRANCH   5   6
ATOM      6  C   UNL     1       2.485   4.649  19.422  0.00  0.00    +0.000 A 
ATOM      7  C   UNL     1       2.881   4.414  20.746  0.00  0.00    +0.000 A 
ATOM      8  C   UNL     1       2.178   3.501  21.539  0.00  0.00    +0.000 A 
ATOM      9  C   UNL     1       1.099   2.800  21.007  0.00  0.00    +0.000 A 
ATOM     10  C   UNL     1       0.724   2.998  19.681  0.00  0.00    +0.000 A 
ATOM     11  C   UNL     1       1.413   3.919  18.889  0.00  0.00    +0.000 A 
ENDBRANCH   5   6
BRANCH   1  13
ATOM     12  O   UNL     1       1.771   7.419  20.405  0.00  0.00    +0.000 OA
ATOM     13  C   UNL     1       2.108   7.770  19.281  0.00  0.00    +0.000 C 
ATOM     14  N   UNL     1       1.688   8.934  18.665  0.00  0.00    +0.000 N 
ATOM     15  H   UNL     1       1.971   9.081  17.702  0.00  0.00    +0.000 HD
BRANCH  14  16
ATOM     16  C   UNL     1       0.740   9.859  19.161  0.00  0.00    +0.000 A 
ATOM     17  C   UNL     1       0.860  10.531  20.379  0.00  0.00    +0.000 A 
ATOM     18  C   UNL     1      -0.163  11.376  20.804  0.00  0.00    +0.000 A 
ATOM     19  F   UNL     1      -0.048  12.007  21.980  0.00  0.00    +0.000 F 
ATOM     20  C   UNL     1      -1.308  11.575  20.037  0.00  0.00    +0.000 A 
ATOM     21  C   UNL     1      -1.426  10.930  18.809  0.00  0.00    +0.000 A 
ATOM     22  C   UNL     1      -0.403  10.089  18.380  0.00  0.00    +0.000 A 
ATOM     23  F   UNL     1      -0.532   9.459  17.201  0.00  0.00    +0.000 F 
ENDBRANCH  14  16
ENDBRANCH   1  13
BRANCH   3  24
ATOM     24  C   UNL     1       5.492   6.162  15.903  0.00  0.00    +0.000 C 
ATOM     25  C   UNL     1       5.432   4.976  14.959  0.00  0.00    +0.000 C 
ATOM     26  C   UNL     1       6.584   5.114  15.893  0.00  0.00    +0.000 C 
ENDBRANCH   3  24
TORSDOF 4
ENDMDL
MODEL 7
REMARK VINA RESULT:      -8.0      1.547      1.766
REMARK  Name = 
REMARK  4 active torsions:
REMARK  status: ('A' for Active; 'I' for Inactive)
REMARK    1  A    between atoms: C_2  and  C_12
REMARK    2  A    between atoms: N_3  and  C_4
REMARK    3  A    between atoms: C_14  and  C_15
REMARK    4  A    between atoms: N_19  and  C_20
REMARK                            x       y       z     vdW  Elec       q    Type
REMARK                         _______ _______ _______ _____ _____    ______ ____
ROOT
ATOM      1  C   UNL     1       5.456   3.930  15.947  0.00  0.00    +0.000 A 
ATOM      2  C   UNL     1       5.372   3.347  14.695  0.00  0.00    +0.000 A 
ATOM      3  C   UNL     1       6.179   4.139  13.868  0.00  0.00    +0.000 A 
ATOM      4  N   UNL     1       6.710   5.172  14.518  0.00  0.00    +0.000 NA
ATOM      5  N   UNL     1       6.358   4.981  15.820  0.00  0.00    +0.000 N 
ENDROOT
BRANCH   5   6
ATOM      6  C   UNL     1       6.994   5.761  16.832  0.00  0.00    +0.000 A 
ATOM      7  C   UNL     1       7.467   5.128  17.990  0.00  0.00    +0.000 A 
ATOM      8  C   UNL     1       8.112   5.871  18.984  0.00  0.00    +0.000 A 
ATOM      9  C   UNL     1       8.262   7.248  18.840  0.00  0.00    +0.000 A 
ATOM     10  C   UNL     1       7.760   7.890  17.712  0.00  0.00    +0.000 A 
ATOM     11  C   UNL     1       7.128   7.151  16.708  0.00  0.00    +0.000 A 
ENDBRANCH   5   6
BRANCH   1  13
ATOM     12  O   UNL     1       4.888   2.567  17.755  0.00  0.00    +0.000 OA
ATOM     13  C   UNL     1       4.715   3.613  17.141  0.00  0.00    +0.000 C 
ATOM     14  N   UNL     1       3.779   4.573  17.478  0.00  0.00    +0.000 N 
ATOM     15  H   UNL     1       3.672   5.363  16.850  0.00  0.00    +0.000 HD
BRANCH  14  16
ATOM     16  C   UNL     1       2.808   4.485  18.503  0.00  0.00    +0.000 A 
ATOM     17  C   UNL     1       1.826   3.495  18.574  0.00  0.00    +0.000 A 
ATOM     18  C   UNL     1       0.877   3.536  19.593  0.00  0.00    +0.000 A 
ATOM     19  F   UNL     1      -0.071   2.591  19.646  0.00  0.00    +0.000 F 
ATOM     20  C   UNL     1       0.887   4.541  20.556  0.00  0.00    +0.000 A 
ATOM     21  C   UNL     1       1.878   5.519  20.510  0.00  0.00    +0.000 A 
ATOM     22  C   UNL     1       2.830   5.478  19.496  0.00  0.00    +0.000 A 
ATOM     23  F   UNL     1       3.772   6.433  19.450  0.00  0.00    +0.000 F 
ENDBRANCH  14  16
ENDBRANCH   1  13
BRANCH   3  24
ATOM     24  C   UNL     1       6.410   3.839  12.396  0.00  0.00    +0.000 C 
ATOM     25  C   UNL     1       5.212   3.419  11.564  0.00  0.00    +0.000 C 
ATOM     26  C   UNL     1       6.267   2.419  11.890  0.00  0.00    +0.000 C 
ENDBRANCH   3  24
TORSDOF 4
ENDMDL
MODEL 8
REMARK VINA RESULT:      -8.0      3.076      4.785
REMARK  Name = 
REMARK  4 active torsions:
REMARK  status: ('A' for Active; 'I' for Inactive)
REMARK    1  A    between atoms: C_2  and  C_12
REMARK    2  A    between atoms: N_3  and  C_4
REMARK    3  A    between atoms: C_14  and  C_15
REMARK    4  A    between atoms: N_19  and  C_20
REMARK                            x       y       z     vdW  Elec       q    Type
REMARK                         _______ _______ _______ _____ _____    ______ ____
ROOT
ATOM      1  C   UNL     1       4.867   5.473  16.463  0.00  0.00    +0.000 A 
ATOM      2  C   UNL     1       5.577   5.469  15.275  0.00  0.00    +0.000 A 
ATOM      3  C   UNL     1       5.864   4.120  15.027  0.00  0.00    +0.000 A 
ATOM      4  N   UNL     1       5.415   3.320  15.990  0.00  0.00    +0.000 NA
ATOM      5  N   UNL     1       4.703   4.137  16.816  0.00  0.00    +0.000 N 
ENDROOT
BRANCH   5   6
ATOM      6  C   UNL     1       3.857   3.556  17.806  0.00  0.00    +0.000 A 
ATOM      7  C   UNL     1       4.371   3.305  19.086  0.00  0.00    +0.000 A 
ATOM      8  C   UNL     1       3.551   2.755  20.077  0.00  0.00    +0.000 A 
ATOM      9  C   UNL     1       2.229   2.427  19.789  0.00  0.00    +0.000 A 
ATOM     10  C   UNL     1       1.722   2.636  18.509  0.00  0.00    +0.000 A 
ATOM     11  C   UNL     1       2.531   3.199  17.519  0.00  0.00    +0.000 A 
ENDBRANCH   5   6
BRANCH   1  13
ATOM     12  O   UNL     1       5.245   7.388  17.742  0.00  0.00    +0.000 OA
ATOM     13  C   UNL     1       4.444   6.598  17.257  0.00  0.00    +0.000 C 
ATOM     14  N   UNL     1       3.076   6.656  17.445  0.00  0.00    +0.000 N 
ATOM     15  H   UNL     1       2.519   5.902  17.058  0.00  0.00    +0.000 HD
BRANCH  14  16
ATOM     16  C   UNL     1       2.375   7.551  18.286  0.00  0.00    +0.000 A 
ATOM     17  C   UNL     1       1.846   8.773  17.869  0.00  0.00    +0.000 A 
ATOM     18  C   UNL     1       1.227   9.609  18.795  0.00  0.00    +0.000 A 
ATOM     19  F   UNL     1       0.733  10.787  18.390  0.00  0.00    +0.000 F 
ATOM     20  C   UNL     1       1.113   9.252  20.136  0.00  0.00    +0.000 A 
ATOM     21  C   UNL     1       1.613   8.023  20.558  0.00  0.00    +0.000 A 
ATOM     22  C   UNL     1       2.229   7.184  19.634  0.00  0.00    +0.000 A 
ATOM     23  F   UNL     1       2.723   6.008  20.052  0.00  0.00    +0.000 F 
ENDBRANCH  14  16
ENDBRANCH   1  13
BRANCH   3  24
ATOM     24  C   UNL     1       6.609   3.643  13.790  0.00  0.00    +0.000 C 
ATOM     25  C   UNL     1       6.837   4.644  12.672  0.00  0.00    +0.000 C 
ATOM     26  C   UNL     1       5.873   3.526  12.472  0.00  0.00    +0.000 C 
ENDBRANCH   3  24
TORSDOF 4
ENDMDL
MODEL 9
REMARK VINA RESULT:      -8.0      2.606      6.441
REMARK  Name = 
REMARK  4 active torsions:
REMARK  status: ('A' for Active; 'I' for Inactive)
REMARK    1  A    between atoms: C_2  and  C_12
REMARK    2  A    between atoms: N_3  and  C_4
REMARK    3  A    between atoms: C_14  and  C_15
REMARK    4  A    between atoms: N_19  and  C_20
REMARK                            x       y       z     vdW  Elec       q    Type
REMARK                         _______ _______ _______ _____ _____    ______ ____
ROOT
ATOM      1  C   UNL     1       4.144   4.120  17.734  0.00  0.00    +0.000 A 
ATOM      2  C   UNL     1       2.918   3.783  18.281  0.00  0.00    +0.000 A 
ATOM      3  C   UNL     1       2.849   4.494  19.486  0.00  0.00    +0.000 A 
ATOM      4  N   UNL     1       3.952   5.199  19.723  0.00  0.00    +0.000 NA
ATOM      5  N   UNL     1       4.702   5.060  18.594  0.00  0.00    +0.000 N 
ENDROOT
BRANCH   5   6
ATOM      6  C   UNL     1       5.830   5.912  18.401  0.00  0.00    +0.000 A 
ATOM      7  C   UNL     1       7.021   5.640  19.089  0.00  0.00    +0.000 A 
ATOM      8  C   UNL     1       8.145   6.450  18.898  0.00  0.00    +0.000 A 
ATOM      9  C   UNL     1       8.077   7.549  18.045  0.00  0.00    +0.000 A 
ATOM     10  C   UNL     1       6.887   7.849  17.388  0.00  0.00    +0.000 A 
ATOM     11  C   UNL     1       5.765   7.035  17.563  0.00  0.00    +0.000 A 
ENDBRANCH   5   6
BRANCH   1  13
ATOM     12  O   UNL     1       5.295   2.452  16.575  0.00  0.00    +0.000 OA
ATOM     13  C   UNL     1       4.795   3.570  16.571  0.00  0.00    +0.000 C 
ATOM     14  N   UNL     1       4.831   4.441  15.499  0.00  0.00    +0.000 N 
ATOM     15  H   UNL     1       4.451   5.371  15.639  0.00  0.00    +0.000 HD
BRANCH  14  16
ATOM     16  C   UNL     1       5.518   4.250  14.277  0.00  0.00    +0.000 A 
ATOM     17  C   UNL     1       5.019   3.516  13.200  0.00  0.00    +0.000 A 
ATOM     18  C   UNL     1       5.805   3.337  12.064  0.00  0.00    +0.000 A 
ATOM     19  F   UNL     1       5.324   2.619  11.040  0.00  0.00    +0.000 F 
ATOM     20  C   UNL     1       7.083   3.881  11.970  0.00  0.00    +0.000 A 
ATOM     21  C   UNL     1       7.581   4.637  13.028  0.00  0.00    +0.000 A 
ATOM     22  C   UNL     1       6.796   4.821  14.163  0.00  0.00    +0.000 A 
ATOM     23  F   UNL     1       7.289   5.539  15.184  0.00  0.00    +0.000 F 
ENDBRANCH  14  16
ENDBRANCH   1  13
BRANCH   3  24
ATOM     24  C   UNL     1       1.642   4.449  20.410  0.00  0.00    +0.000 C 
ATOM     25  C   UNL     1       1.591   3.350  21.454  0.00  0.00    +0.000 C 
ATOM     26  C   UNL     1       0.654   3.308  20.296  0.00  0.00    +0.000 C 
ENDBRANCH   3  24
TORSDOF 4
ENDMDL
