MODEL 1
REMARK VINA RESULT:      -7.7      0.000      0.000
REMARK  Name = 
REMARK  7 active torsions:
REMARK  status: ('A' for Active; 'I' for Inactive)
REMARK    1  A    between atoms: C_1  and  C_2
REMARK    2  A    between atoms: C_2  and  C_3
REMARK    3  A    between atoms: C_6  and  O_7
REMARK    4  A    between atoms: O_7  and  C_8
REMARK    5  A    between atoms: N_16  and  C_17
REMARK    6  A    between atoms: C_17  and  C_18
REMARK    7  A    between atoms: C_26  and  C_27
REMARK                            x       y       z     vdW  Elec       q    Type
REMARK                         _______ _______ _______ _____ _____    ______ ____
ROOT
ATOM      1  C   UNL     1       1.355  12.208  19.558  0.00  0.00    +0.000 C 
ATOM      2  C   UNL     1       0.772  10.812  19.407  0.00  0.00    +0.000 C 
ATOM      3  N   UNL     1       0.927  10.040  20.625  0.00  0.00    +0.000 N 
ATOM      4  C   UNL     1       1.268   8.730  20.352  0.00  0.00    +0.000 C 
ATOM      5  O   UNL     1       1.230   7.838  21.182  0.00  0.00    +0.000 OA
ATOM      6  N   UNL     1       1.605   8.642  19.037  0.00  0.00    +0.000 N 
ATOM      7  C   UNL     1       1.587   9.887  18.470  0.00  0.00    +0.000 C 
ATOM      8  O   UNL     1       2.004  10.177  17.357  0.00  0.00    +0.000 OA
ATOM      9  H   UNL     1       0.510  10.279  21.514  0.00  0.00    +0.000 HD
ENDROOT
BRANCH   2  10
ATOM     10  C   UNL     1      -0.678  10.840  18.890  0.00  0.00    +0.000 A 
ATOM     11  C   UNL     1      -1.607  11.742  19.448  0.00  0.00    +0.000 A 
ATOM     12  C   UNL     1      -2.908  11.863  18.941  0.00  0.00    +0.000 A 
ATOM     13  C   UNL     1      -3.300  11.090  17.853  0.00  0.00    +0.000 A 
ATOM     14  C   UNL     1      -2.409  10.164  17.314  0.00  0.00    +0.000 A 
ATOM     15  C   UNL     1      -1.111  10.045  17.817  0.00  0.00    +0.000 A 
BRANCH  13  16
ATOM     16  O   UNL     1      -4.525  11.129  17.248  0.00  0.00    +0.000 OA
BRANCH  16  17
ATOM     17  C   UNL     1      -5.629  11.307  18.119  0.00  0.00    +0.000 C 
ATOM     18  F   UNL     1      -6.665  11.751  17.362  0.00  0.00    +0.000 F 
ATOM     19  F   UNL     1      -5.990  10.096  18.606  0.00  0.00    +0.000 F 
ENDBRANCH  16  17
ENDBRANCH  13  16
ENDBRANCH   2  10
BRANCH   6  20
ATOM     20  C   UNL     1       1.651   7.427  18.265  0.00  0.00    +0.000 C 
BRANCH  20  21
ATOM     21  C   UNL     1       3.023   6.857  18.173  0.00  0.00    +0.000 A 
ATOM     22  C   UNL     1       4.028   7.293  17.326  0.00  0.00    +0.000 A 
ATOM     23  N   UNL     1       5.196   6.647  17.645  0.00  0.00    +0.000 N 
ATOM     24  C   UNL     1       6.456   6.829  17.080  0.00  0.00    +0.000 A 
ATOM     25  C   UNL     1       7.501   6.140  17.563  0.00  0.00    +0.000 A 
ATOM     26  C   UNL     1       7.285   5.227  18.675  0.00  0.00    +0.000 A 
ATOM     27  C   UNL     1       6.062   5.041  19.210  0.00  0.00    +0.000 A 
ATOM     28  C   UNL     1       4.949   5.766  18.693  0.00  0.00    +0.000 A 
ATOM     29  C   UNL     1       3.600   5.846  19.006  0.00  0.00    +0.000 A 
BRANCH  29  30
ATOM     30  C   UNL     1       2.952   5.091  20.043  0.00  0.00    +0.000 C 
ATOM     31  N   UNL     1       2.448   4.472  20.883  0.00  0.00    +0.000 NA
ENDBRANCH  29  30
ENDBRANCH  20  21
ENDBRANCH   6  20
TORSDOF 6
ENDMDL
MODEL 2
REMARK VINA RESULT:      -7.2      4.422      7.019
REMARK  Name = 
REMARK  7 active torsions:
REMARK  status: ('A' for Active; 'I' for Inactive)
REMARK    1  A    between atoms: C_1  and  C_2
REMARK    2  A    between atoms: C_2  and  C_3
REMARK    3  A    between atoms: C_6  and  O_7
REMARK    4  A    between atoms: O_7  and  C_8
REMARK    5  A    between atoms: N_16  and  C_17
REMARK    6  A    between atoms: C_17  and  C_18
REMARK    7  A    between atoms: C_26  and  C_27
REMARK                            x       y       z     vdW  Elec       q    Type
REMARK                         _______ _______ _______ _____ _____    ______ ____
ROOT
ATOM      1  C   UNL     1      -6.078  14.560  21.062  0.00  0.00    +0.000 C 
ATOM      2  C   UNL     1      -4.935  13.639  21.458  0.00  0.00    +0.000 C 
ATOM      3  N   UNL     1      -5.309  12.779  22.564  0.00  0.00    +0.000 N 
ATOM      4  C   UNL     1      -4.273  12.638  23.467  0.00  0.00    +0.000 C 
ATOM      5  O   UNL     1      -4.258  11.797  24.348  0.00  0.00    +0.000 OA
ATOM      6  N   UNL     1      -3.318  13.560  23.167  0.00  0.00    +0.000 N 
ATOM      7  C   UNL     1      -3.754  14.365  22.150  0.00  0.00    +0.000 C 
ATOM      8  O   UNL     1      -3.213  15.391  21.762  0.00  0.00    +0.000 OA
ATOM      9  H   UNL     1      -6.049  12.091  22.533  0.00  0.00    +0.000 HD
ENDROOT
BRANCH   2  10
ATOM     10  C   UNL     1      -4.368  12.865  20.255  0.00  0.00    +0.000 A 
ATOM     11  C   UNL     1      -5.243  12.327  19.289  0.00  0.00    +0.000 A 
ATOM     12  C   UNL     1      -4.761  11.699  18.132  0.00  0.00    +0.000 A 
ATOM     13  C   UNL     1      -3.391  11.608  17.914  0.00  0.00    +0.000 A 
ATOM     14  C   UNL     1      -2.511  12.098  18.877  0.00  0.00    +0.000 A 
ATOM     15  C   UNL     1      -2.989  12.727  20.029  0.00  0.00    +0.000 A 
BRANCH  13  16
ATOM     16  O   UNL     1      -2.793  11.046  16.822  0.00  0.00    +0.000 OA
BRANCH  16  17
ATOM     17  C   UNL     1      -2.472   9.671  16.942  0.00  0.00    +0.000 C 
ATOM     18  F   UNL     1      -1.184   9.598  17.365  0.00  0.00    +0.000 F 
ATOM     19  F   UNL     1      -3.238   9.137  17.924  0.00  0.00    +0.000 F 
ENDBRANCH  16  17
ENDBRANCH  13  16
ENDBRANCH   2  10
BRANCH   6  20
ATOM     20  C   UNL     1      -1.945  13.511  23.598  0.00  0.00    +0.000 C 
BRANCH  20  21
ATOM     21  C   UNL     1      -1.169  12.435  22.923  0.00  0.00    +0.000 A 
ATOM     22  C   UNL     1      -1.277  11.078  23.172  0.00  0.00    +0.000 A 
ATOM     23  N   UNL     1      -0.537  10.390  22.242  0.00  0.00    +0.000 N 
ATOM     24  C   UNL     1      -0.415   9.011  22.096  0.00  0.00    +0.000 A 
ATOM     25  C   UNL     1       0.317   8.516  21.087  0.00  0.00    +0.000 A 
ATOM     26  C   UNL     1       0.955   9.442  20.165  0.00  0.00    +0.000 A 
ATOM     27  C   UNL     1       0.849  10.778  20.317  0.00  0.00    +0.000 A 
ATOM     28  C   UNL     1       0.079  11.305  21.394  0.00  0.00    +0.000 A 
ATOM     29  C   UNL     1      -0.261  12.579  21.824  0.00  0.00    +0.000 A 
BRANCH  29  30
ATOM     30  C   UNL     1       0.173  13.799  21.201  0.00  0.00    +0.000 C 
ATOM     31  N   UNL     1       0.535  14.772  20.686  0.00  0.00    +0.000 NA
ENDBRANCH  29  30
ENDBRANCH  20  21
ENDBRANCH   6  20
TORSDOF 6
ENDMDL
MODEL 3
REMARK VINA RESULT:      -7.0      4.357      9.327
REMARK  Name = 
REMARK  7 active torsions:
REMARK  status: ('A' for Active; 'I' for Inactive)
REMARK    1  A    between atoms: C_1  and  C_2
REMARK    2  A    between atoms: C_2  and  C_3
REMARK    3  A    between atoms: C_6  and  O_7
REMARK    4  A    between atoms: O_7  and  C_8
REMARK    5  A    between atoms: N_16  and  C_17
REMARK    6  A    between atoms: C_17  and  C_18
REMARK    7  A    between atoms: C_26  and  C_27
REMARK                            x       y       z     vdW  Elec       q    Type
REMARK                         _______ _______ _______ _____ _____    ______ ____
ROOT
ATOM      1  C   UNL     1       2.096  11.995  18.209  0.00  0.00    +0.000 C 
ATOM      2  C   UNL     1       1.017  11.240  18.970  0.00  0.00    +0.000 C 
ATOM      3  N   UNL     1      -0.291  11.454  18.383  0.00  0.00    +0.000 N 
ATOM      4  C   UNL     1      -1.262  11.605  19.353  0.00  0.00    +0.000 C 
ATOM      5  O   UNL     1      -2.458  11.567  19.120  0.00  0.00    +0.000 OA
ATOM      6  N   UNL     1      -0.643  11.766  20.554  0.00  0.00    +0.000 N 
ATOM      7  C   UNL     1       0.712  11.824  20.372  0.00  0.00    +0.000 C 
ATOM      8  O   UNL     1       1.539  12.132  21.219  0.00  0.00    +0.000 OA
ATOM      9  H   UNL     1      -0.553  11.179  17.445  0.00  0.00    +0.000 HD
ENDROOT
BRANCH   2  10
ATOM     10  C   UNL     1       1.364   9.751  19.149  0.00  0.00    +0.000 A 
ATOM     11  C   UNL     1       1.990   9.045  18.101  0.00  0.00    +0.000 A 
ATOM     12  C   UNL     1       2.407   7.716  18.261  0.00  0.00    +0.000 A 
ATOM     13  C   UNL     1       2.215   7.071  19.479  0.00  0.00    +0.000 A 
ATOM     14  C   UNL     1       1.562   7.741  20.511  0.00  0.00    +0.000 A 
ATOM     15  C   UNL     1       1.149   9.067  20.356  0.00  0.00    +0.000 A 
BRANCH  13  16
ATOM     16  O   UNL     1       2.596   5.793  19.772  0.00  0.00    +0.000 OA
BRANCH  16  17
ATOM     17  C   UNL     1       1.746   5.094  20.665  0.00  0.00    +0.000 C 
ATOM     18  F   UNL     1       0.897   4.351  19.909  0.00  0.00    +0.000 F 
ATOM     19  F   UNL     1       2.499   4.222  21.379  0.00  0.00    +0.000 F 
ENDBRANCH  16  17
ENDBRANCH  13  16
ENDBRANCH   2  10
BRANCH   6  20
ATOM     20  C   UNL     1      -1.257  11.578  21.843  0.00  0.00    +0.000 C 
BRANCH  20  21
ATOM     21  C   UNL     1      -2.170  12.693  22.213  0.00  0.00    +0.000 A 
ATOM     22  C   UNL     1      -3.546  12.606  22.343  0.00  0.00    +0.000 A 
ATOM     23  N   UNL     1      -4.023  13.784  22.862  0.00  0.00    +0.000 N 
ATOM     24  C   UNL     1      -5.336  14.100  23.202  0.00  0.00    +0.000 A 
ATOM     25  C   UNL     1      -5.607  15.293  23.752  0.00  0.00    +0.000 A 
ATOM     26  C   UNL     1      -4.512  16.221  23.985  0.00  0.00    +0.000 A 
ATOM     27  C   UNL     1      -3.244  15.921  23.640  0.00  0.00    +0.000 A 
ATOM     28  C   UNL     1      -2.955  14.657  23.049  0.00  0.00    +0.000 A 
ATOM     29  C   UNL     1      -1.804  14.019  22.612  0.00  0.00    +0.000 A 
BRANCH  29  30
ATOM     30  C   UNL     1      -0.486  14.590  22.645  0.00  0.00    +0.000 C 
ATOM     31  N   UNL     1       0.585  15.031  22.679  0.00  0.00    +0.000 NA
ENDBRANCH  29  30
ENDBRANCH  20  21
ENDBRANCH   6  20
TORSDOF 6
ENDMDL
MODEL 4
REMARK VINA RESULT:      -6.9      4.601      9.240
REMARK  Name = 
REMARK  7 active torsions:
REMARK  status: ('A' for Active; 'I' for Inactive)
REMARK    1  A    between atoms: C_1  and  C_2
REMARK    2  A    between atoms: C_2  and  C_3
REMARK    3  A    between atoms: C_6  and  O_7
REMARK    4  A    between atoms: O_7  and  C_8
REMARK    5  A    between atoms: N_16  and  C_17
REMARK    6  A    between atoms: C_17  and  C_18
REMARK    7  A    between atoms: C_26  and  C_27
REMARK                            x       y       z     vdW  Elec       q    Type
REMARK                         _______ _______ _______ _____ _____    ______ ____
ROOT
ATOM      1  C   UNL     1       1.977  12.560  18.500  0.00  0.00    +0.000 C 
ATOM      2  C   UNL     1       0.896  11.663  19.084  0.00  0.00    +0.000 C 
ATOM      3  N   UNL     1      -0.391  11.917  18.466  0.00  0.00    +0.000 N 
ATOM      4  C   UNL     1      -1.412  11.888  19.396  0.00  0.00    +0.000 C 
ATOM      5  O   UNL     1      -2.593  11.844  19.098  0.00  0.00    +0.000 OA
ATOM      6  N   UNL     1      -0.857  11.890  20.638  0.00  0.00    +0.000 N 
ATOM      7  C   UNL     1       0.502  12.021  20.539  0.00  0.00    +0.000 C 
ATOM      8  O   UNL     1       1.275  12.228  21.464  0.00  0.00    +0.000 OA
ATOM      9  H   UNL     1      -0.596  11.776  17.486  0.00  0.00    +0.000 HD
ENDROOT
BRANCH   2  10
ATOM     10  C   UNL     1       1.297  10.177  19.060  0.00  0.00    +0.000 A 
ATOM     11  C   UNL     1       1.860   9.620  17.893  0.00  0.00    +0.000 A 
ATOM     12  C   UNL     1       2.324   8.297  17.864  0.00  0.00    +0.000 A 
ATOM     13  C   UNL     1       2.245   7.510  19.008  0.00  0.00    +0.000 A 
ATOM     14  C   UNL     1       1.655   8.032  20.157  0.00  0.00    +0.000 A 
ATOM     15  C   UNL     1       1.195   9.350  20.190  0.00  0.00    +0.000 A 
BRANCH  13  16
ATOM     16  O   UNL     1       2.681   6.221  19.120  0.00  0.00    +0.000 OA
BRANCH  16  17
ATOM     17  C   UNL     1       2.290   5.351  18.071  0.00  0.00    +0.000 C 
ATOM     18  F   UNL     1       3.409   5.052  17.363  0.00  0.00    +0.000 F 
ATOM     19  F   UNL     1       1.850   4.192  18.618  0.00  0.00    +0.000 F 
ENDBRANCH  16  17
ENDBRANCH  13  16
ENDBRANCH   2  10
BRANCH   6  20
ATOM     20  C   UNL     1      -1.521  11.491  21.852  0.00  0.00    +0.000 C 
BRANCH  20  21
ATOM     21  C   UNL     1      -2.017  12.650  22.644  0.00  0.00    +0.000 A 
ATOM     22  C   UNL     1      -1.245  13.478  23.440  0.00  0.00    +0.000 A 
ATOM     23  N   UNL     1      -2.013  14.532  23.869  0.00  0.00    +0.000 N 
ATOM     24  C   UNL     1      -1.617  15.621  24.642  0.00  0.00    +0.000 A 
ATOM     25  C   UNL     1      -2.502  16.589  24.920  0.00  0.00    +0.000 A 
ATOM     26  C   UNL     1      -3.853  16.475  24.394  0.00  0.00    +0.000 A 
ATOM     27  C   UNL     1      -4.240  15.413  23.660  0.00  0.00    +0.000 A 
ATOM     28  C   UNL     1      -3.303  14.379  23.370  0.00  0.00    +0.000 A 
ATOM     29  C   UNL     1      -3.340  13.197  22.646  0.00  0.00    +0.000 A 
BRANCH  29  30
ATOM     30  C   UNL     1      -4.499  12.687  21.965  0.00  0.00    +0.000 C 
ATOM     31  N   UNL     1      -5.444  12.293  21.423  0.00  0.00    +0.000 NA
ENDBRANCH  29  30
ENDBRANCH  20  21
ENDBRANCH   6  20
TORSDOF 6
ENDMDL
MODEL 5
REMARK VINA RESULT:      -6.9      1.149      1.174
REMARK  Name = 
REMARK  7 active torsions:
REMARK  status: ('A' for Active; 'I' for Inactive)
REMARK    1  A    between atoms: C_1  and  C_2
REMARK    2  A    between atoms: C_2  and  C_3
REMARK    3  A    between atoms: C_6  and  O_7
REMARK    4  A    between atoms: O_7  and  C_8
REMARK    5  A    between atoms: N_16  and  C_17
REMARK    6  A    between atoms: C_17  and  C_18
REMARK    7  A    between atoms: C_26  and  C_27
REMARK                            x       y       z     vdW  Elec       q    Type
REMARK                         _______ _______ _______ _____ _____    ______ ____
ROOT
ATOM      1  C   UNL     1       1.519  12.069  18.843  0.00  0.00    +0.000 C 
ATOM      2  C   UNL     1       0.876  10.714  19.095  0.00  0.00    +0.000 C 
ATOM      3  N   UNL     1       1.108  10.266  20.455  0.00  0.00    +0.000 N 
ATOM      4  C   UNL     1       1.379   8.912  20.500  0.00  0.00    +0.000 C 
ATOM      5  O   UNL     1       1.381   8.261  21.530  0.00  0.00    +0.000 OA
ATOM      6  N   UNL     1       1.599   8.478  19.230  0.00  0.00    +0.000 N 
ATOM      7  C   UNL     1       1.577   9.541  18.367  0.00  0.00    +0.000 C 
ATOM      8  O   UNL     1       1.907   9.519  17.190  0.00  0.00    +0.000 OA
ATOM      9  H   UNL     1       0.777  10.743  21.282  0.00  0.00    +0.000 HD
ENDROOT
BRANCH   2  10
ATOM     10  C   UNL     1      -0.610  10.691  18.696  0.00  0.00    +0.000 A 
ATOM     11  C   UNL     1      -1.503  11.630  19.255  0.00  0.00    +0.000 A 
ATOM     12  C   UNL     1      -2.842  11.701  18.846  0.00  0.00    +0.000 A 
ATOM     13  C   UNL     1      -3.310  10.841  17.858  0.00  0.00    +0.000 A 
ATOM     14  C   UNL     1      -2.453   9.881  17.324  0.00  0.00    +0.000 A 
ATOM     15  C   UNL     1      -1.117   9.811  17.728  0.00  0.00    +0.000 A 
BRANCH  13  16
ATOM     16  O   UNL     1      -4.579  10.824  17.353  0.00  0.00    +0.000 OA
BRANCH  16  17
ATOM     17  C   UNL     1      -5.587  11.313  18.220  0.00  0.00    +0.000 C 
ATOM     18  F   UNL     1      -5.881  12.576  17.819  0.00  0.00    +0.000 F 
ATOM     19  F   UNL     1      -6.707  10.573  18.036  0.00  0.00    +0.000 F 
ENDBRANCH  16  17
ENDBRANCH  13  16
ENDBRANCH   2  10
BRANCH   6  20
ATOM     20  C   UNL     1       1.537   7.108  18.791  0.00  0.00    +0.000 C 
BRANCH  20  21
ATOM     21  C   UNL     1       2.818   6.638  18.195  0.00  0.00    +0.000 A 
ATOM     22  C   UNL     1       3.987   7.373  18.098  0.00  0.00    +0.000 A 
ATOM     23  N   UNL     1       4.996   6.556  17.654  0.00  0.00    +0.000 N 
ATOM     24  C   UNL     1       6.339   6.877  17.470  0.00  0.00    +0.000 A 
ATOM     25  C   UNL     1       7.197   5.924  17.076  0.00  0.00    +0.000 A 
ATOM     26  C   UNL     1       6.696   4.576  16.862  0.00  0.00    +0.000 A 
ATOM     27  C   UNL     1       5.393   4.270  17.025  0.00  0.00    +0.000 A 
ATOM     28  C   UNL     1       4.478   5.283  17.435  0.00  0.00    +0.000 A 
ATOM     29  C   UNL     1       3.122   5.321  17.721  0.00  0.00    +0.000 A 
BRANCH  29  30
ATOM     30  C   UNL     1       2.230   4.199  17.624  0.00  0.00    +0.000 C 
ATOM     31  N   UNL     1       1.499   3.305  17.532  0.00  0.00    +0.000 NA
ENDBRANCH  29  30
ENDBRANCH  20  21
ENDBRANCH   6  20
TORSDOF 6
ENDMDL
MODEL 6
REMARK VINA RESULT:      -6.8      4.586      9.065
REMARK  Name = 
REMARK  7 active torsions:
REMARK  status: ('A' for Active; 'I' for Inactive)
REMARK    1  A    between atoms: C_1  and  C_2
REMARK    2  A    between atoms: C_2  and  C_3
REMARK    3  A    between atoms: C_6  and  O_7
REMARK    4  A    between atoms: O_7  and  C_8
REMARK    5  A    between atoms: N_16  and  C_17
REMARK    6  A    between atoms: C_17  and  C_18
REMARK    7  A    between atoms: C_26  and  C_27
REMARK                            x       y       z     vdW  Elec       q    Type
REMARK                         _______ _______ _______ _____ _____    ______ ____
ROOT
ATOM      1  C   UNL     1       2.240  12.066  18.170  0.00  0.00    +0.000 C 
ATOM      2  C   UNL     1       1.158  11.372  18.983  0.00  0.00    +0.000 C 
ATOM      3  N   UNL     1      -0.164  11.676  18.471  0.00  0.00    +0.000 N 
ATOM      4  C   UNL     1      -1.068  11.877  19.494  0.00  0.00    +0.000 C 
ATOM      5  O   UNL     1      -2.275  11.918  19.328  0.00  0.00    +0.000 OA
ATOM      6  N   UNL     1      -0.376  11.984  20.661  0.00  0.00    +0.000 N 
ATOM      7  C   UNL     1       0.969  11.957  20.405  0.00  0.00    +0.000 C 
ATOM      8  O   UNL     1       1.859  12.203  21.207  0.00  0.00    +0.000 OA
ATOM      9  H   UNL     1      -0.493  11.429  17.547  0.00  0.00    +0.000 HD
ENDROOT
BRANCH   2  10
ATOM     10  C   UNL     1       1.418   9.862  19.130  0.00  0.00    +0.000 A 
ATOM     11  C   UNL     1       1.948   9.131  18.047  0.00  0.00    +0.000 A 
ATOM     12  C   UNL     1       2.287   7.777  18.172  0.00  0.00    +0.000 A 
ATOM     13  C   UNL     1       2.113   7.130  19.392  0.00  0.00    +0.000 A 
ATOM     14  C   UNL     1       1.553   7.826  20.461  0.00  0.00    +0.000 A 
ATOM     15  C   UNL     1       1.218   9.177  20.339  0.00  0.00    +0.000 A 
BRANCH  13  16
ATOM     16  O   UNL     1       2.425   5.827  19.654  0.00  0.00    +0.000 OA
BRANCH  16  17
ATOM     17  C   UNL     1       1.807   5.271  20.802  0.00  0.00    +0.000 C 
ATOM     18  F   UNL     1       0.716   4.585  20.375  0.00  0.00    +0.000 F 
ATOM     19  F   UNL     1       2.653   4.363  21.345  0.00  0.00    +0.000 F 
ENDBRANCH  16  17
ENDBRANCH  13  16
ENDBRANCH   2  10
BRANCH   6  20
ATOM     20  C   UNL     1      -0.928  11.820  21.980  0.00  0.00    +0.000 C 
BRANCH  20  21
ATOM     21  C   UNL     1      -1.190  13.119  22.659  0.00  0.00    +0.000 A 
ATOM     22  C   UNL     1      -0.425  14.266  22.540  0.00  0.00    +0.000 A 
ATOM     23  N   UNL     1      -1.069  15.303  23.168  0.00  0.00    +0.000 N 
ATOM     24  C   UNL     1      -0.675  16.637  23.239  0.00  0.00    +0.000 A 
ATOM     25  C   UNL     1      -1.467  17.527  23.856  0.00  0.00    +0.000 A 
ATOM     26  C   UNL     1      -2.724  17.069  24.425  0.00  0.00    +0.000 A 
ATOM     27  C   UNL     1      -3.096  15.774  24.369  0.00  0.00    +0.000 A 
ATOM     28  C   UNL     1      -2.252  14.826  23.721  0.00  0.00    +0.000 A 
ATOM     29  C   UNL     1      -2.327  13.467  23.458  0.00  0.00    +0.000 A 
BRANCH  29  30
ATOM     30  C   UNL     1      -3.408  12.610  23.861  0.00  0.00    +0.000 C 
ATOM     31  N   UNL     1      -4.293  11.931  24.173  0.00  0.00    +0.000 NA
ENDBRANCH  29  30
ENDBRANCH  20  21
ENDBRANCH   6  20
TORSDOF 6
ENDMDL
MODEL 7
REMARK VINA RESULT:      -6.8      4.699      9.668
REMARK  Name = 
REMARK  7 active torsions:
REMARK  status: ('A' for Active; 'I' for Inactive)
REMARK    1  A    between atoms: C_1  and  C_2
REMARK    2  A    between atoms: C_2  and  C_3
REMARK    3  A    between atoms: C_6  and  O_7
REMARK    4  A    between atoms: O_7  and  C_8
REMARK    5  A    between atoms: N_16  and  C_17
REMARK    6  A    between atoms: C_17  and  C_18
REMARK    7  A    between atoms: C_26  and  C_27
REMARK                            x       y       z     vdW  Elec       q    Type
REMARK                         _______ _______ _______ _____ _____    ______ ____
ROOT
ATOM      1  C   UNL     1       1.755  12.596  18.404  0.00  0.00    +0.000 C 
ATOM      2  C   UNL     1       0.690  11.741  19.073  0.00  0.00    +0.000 C 
ATOM      3  N   UNL     1      -0.603  11.918  18.441  0.00  0.00    +0.000 N 
ATOM      4  C   UNL     1      -1.620  11.959  19.374  0.00  0.00    +0.000 C 
ATOM      5  O   UNL     1      -2.801  11.870  19.086  0.00  0.00    +0.000 OA
ATOM      6  N   UNL     1      -1.061  12.083  20.608  0.00  0.00    +0.000 N 
ATOM      7  C   UNL     1       0.295  12.224  20.491  0.00  0.00    +0.000 C 
ATOM      8  O   UNL     1       1.068  12.526  21.389  0.00  0.00    +0.000 OA
ATOM      9  H   UNL     1      -0.809  11.685  17.479  0.00  0.00    +0.000 HD
ENDROOT
BRANCH   2  10
ATOM     10  C   UNL     1       1.113  10.265  19.183  0.00  0.00    +0.000 A 
ATOM     11  C   UNL     1       1.749   9.633  18.094  0.00  0.00    +0.000 A 
ATOM     12  C   UNL     1       2.233   8.321  18.190  0.00  0.00    +0.000 A 
ATOM     13  C   UNL     1       2.101   7.620  19.383  0.00  0.00    +0.000 A 
ATOM     14  C   UNL     1       1.439   8.214  20.456  0.00  0.00    +0.000 A 
ATOM     15  C   UNL     1       0.959   9.522  20.364  0.00  0.00    +0.000 A 
BRANCH  13  16
ATOM     16  O   UNL     1       2.549   6.351  19.616  0.00  0.00    +0.000 OA
BRANCH  16  17
ATOM     17  C   UNL     1       3.618   5.921  18.791  0.00  0.00    +0.000 C 
ATOM     18  F   UNL     1       4.623   5.524  19.613  0.00  0.00    +0.000 F 
ATOM     19  F   UNL     1       3.216   4.823  18.106  0.00  0.00    +0.000 F 
ENDBRANCH  16  17
ENDBRANCH  13  16
ENDBRANCH   2  10
BRANCH   6  20
ATOM     20  C   UNL     1      -1.716  11.786  21.856  0.00  0.00    +0.000 C 
BRANCH  20  21
ATOM     21  C   UNL     1      -2.675  12.847  22.268  0.00  0.00    +0.000 A 
ATOM     22  C   UNL     1      -4.055  12.744  22.254  0.00  0.00    +0.000 A 
ATOM     23  N   UNL     1      -4.594  13.850  22.863  0.00  0.00    +0.000 N 
ATOM     24  C   UNL     1      -5.938  14.120  23.110  0.00  0.00    +0.000 A 
ATOM     25  C   UNL     1      -6.275  15.238  23.771  0.00  0.00    +0.000 A 
ATOM     26  C   UNL     1      -5.220  16.131  24.220  0.00  0.00    +0.000 A 
ATOM     27  C   UNL     1      -3.921  15.876  23.966  0.00  0.00    +0.000 A 
ATOM     28  C   UNL     1      -3.561  14.693  23.256  0.00  0.00    +0.000 A 
ATOM     29  C   UNL     1      -2.365  14.115  22.858  0.00  0.00    +0.000 A 
BRANCH  29  30
ATOM     30  C   UNL     1      -1.063  14.679  23.088  0.00  0.00    +0.000 C 
ATOM     31  N   UNL     1      -0.021  15.144  23.290  0.00  0.00    +0.000 NA
ENDBRANCH  29  30
ENDBRANCH  20  21
ENDBRANCH   6  20
TORSDOF 6
ENDMDL
MODEL 8
REMARK VINA RESULT:      -6.8      3.611      5.444
REMARK  Name = 
REMARK  7 active torsions:
REMARK  status: ('A' for Active; 'I' for Inactive)
REMARK    1  A    between atoms: C_1  and  C_2
REMARK    2  A    between atoms: C_2  and  C_3
REMARK    3  A    between atoms: C_6  and  O_7
REMARK    4  A    between atoms: O_7  and  C_8
REMARK    5  A    between atoms: N_16  and  C_17
REMARK    6  A    between atoms: C_17  and  C_18
REMARK    7  A    between atoms: C_26  and  C_27
REMARK                            x       y       z     vdW  Elec       q    Type
REMARK                         _______ _______ _______ _____ _____    ______ ____
ROOT
ATOM      1  C   UNL     1      -4.792  14.461  20.671  0.00  0.00    +0.000 C 
ATOM      2  C   UNL     1      -3.713  13.411  20.880  0.00  0.00    +0.000 C 
ATOM      3  N   UNL     1      -3.817  12.801  22.192  0.00  0.00    +0.000 N 
ATOM      4  C   UNL     1      -2.572  12.601  22.755  0.00  0.00    +0.000 C 
ATOM      5  O   UNL     1      -2.382  11.905  23.738  0.00  0.00    +0.000 OA
ATOM      6  N   UNL     1      -1.654  13.277  22.013  0.00  0.00    +0.000 N 
ATOM      7  C   UNL     1      -2.287  13.996  21.035  0.00  0.00    +0.000 C 
ATOM      8  O   UNL     1      -1.772  14.838  20.313  0.00  0.00    +0.000 OA
ATOM      9  H   UNL     1      -4.610  12.265  22.516  0.00  0.00    +0.000 HD
ENDROOT
BRANCH   2  10
ATOM     10  C   UNL     1      -3.674  12.381  19.736  0.00  0.00    +0.000 A 
ATOM     11  C   UNL     1      -4.875  11.826  19.248  0.00  0.00    +0.000 A 
ATOM     12  C   UNL     1      -4.887  10.959  18.147  0.00  0.00    +0.000 A 
ATOM     13  C   UNL     1      -3.695  10.640  17.504  0.00  0.00    +0.000 A 
ATOM     14  C   UNL     1      -2.495  11.147  17.997  0.00  0.00    +0.000 A 
ATOM     15  C   UNL     1      -2.481  12.015  19.093  0.00  0.00    +0.000 A 
BRANCH  13  16
ATOM     16  O   UNL     1      -3.572   9.832  16.410  0.00  0.00    +0.000 OA
BRANCH  16  17
ATOM     17  C   UNL     1      -2.745  10.331  15.373  0.00  0.00    +0.000 C 
ATOM     18  F   UNL     1      -2.701   9.381  14.405  0.00  0.00    +0.000 F 
ATOM     19  F   UNL     1      -3.348  11.416  14.829  0.00  0.00    +0.000 F 
ENDBRANCH  16  17
ENDBRANCH  13  16
ENDBRANCH   2  10
BRANCH   6  20
ATOM     20  C   UNL     1      -0.234  13.037  22.017  0.00  0.00    +0.000 C 
BRANCH  20  21
ATOM     21  C   UNL     1       0.162  11.918  21.119  0.00  0.00    +0.000 A 
ATOM     22  C   UNL     1       0.539  12.035  19.793  0.00  0.00    +0.000 A 
ATOM     23  N   UNL     1       0.998  10.821  19.347  0.00  0.00    +0.000 N 
ATOM     24  C   UNL     1       1.524  10.512  18.095  0.00  0.00    +0.000 A 
ATOM     25  C   UNL     1       1.975   9.271  17.857  0.00  0.00    +0.000 A 
ATOM     26  C   UNL     1       1.909   8.285  18.923  0.00  0.00    +0.000 A 
ATOM     27  C   UNL     1       1.385   8.581  20.129  0.00  0.00    +0.000 A 
ATOM     28  C   UNL     1       0.897   9.896  20.382  0.00  0.00    +0.000 A 
ATOM     29  C   UNL     1       0.340  10.542  21.475  0.00  0.00    +0.000 A 
BRANCH  29  30
ATOM     30  C   UNL     1       0.079   9.926  22.747  0.00  0.00    +0.000 C 
ATOM     31  N   UNL     1      -0.151   9.438  23.772  0.00  0.00    +0.000 NA
ENDBRANCH  29  30
ENDBRANCH  20  21
ENDBRANCH   6  20
TORSDOF 6
ENDMDL
MODEL 9
REMARK VINA RESULT:      -6.8      5.576      9.376
REMARK  Name = 
REMARK  7 active torsions:
REMARK  status: ('A' for Active; 'I' for Inactive)
REMARK    1  A    between atoms: C_1  and  C_2
REMARK    2  A    between atoms: C_2  and  C_3
REMARK    3  A    between atoms: C_6  and  O_7
REMARK    4  A    between atoms: O_7  and  C_8
REMARK    5  A    between atoms: N_16  and  C_17
REMARK    6  A    between atoms: C_17  and  C_18
REMARK    7  A    between atoms: C_26  and  C_27
REMARK                            x       y       z     vdW  Elec       q    Type
REMARK                         _______ _______ _______ _____ _____    ______ ____
ROOT
ATOM      1  C   UNL     1       7.734   4.494  17.741  0.00  0.00    +0.000 C 
ATOM      2  C   UNL     1       6.544   5.150  17.058  0.00  0.00    +0.000 C 
ATOM      3  N   UNL     1       6.586   6.592  17.196  0.00  0.00    +0.000 N 
ATOM      4  C   UNL     1       5.329   7.113  17.437  0.00  0.00    +0.000 C 
ATOM      5  O   UNL     1       5.067   8.300  17.363  0.00  0.00    +0.000 OA
ATOM      6  N   UNL     1       4.489   6.082  17.727  0.00  0.00    +0.000 N 
ATOM      7  C   UNL     1       5.195   4.910  17.779  0.00  0.00    +0.000 C 
ATOM      8  O   UNL     1       4.775   3.835  18.181  0.00  0.00    +0.000 OA
ATOM      9  H   UNL     1       7.315   7.185  16.824  0.00  0.00    +0.000 HD
ENDROOT
BRANCH   2  10
ATOM     10  C   UNL     1       6.383   4.686  15.598  0.00  0.00    +0.000 A 
ATOM     11  C   UNL     1       7.401   4.954  14.659  0.00  0.00    +0.000 A 
ATOM     12  C   UNL     1       7.333   4.467  13.347  0.00  0.00    +0.000 A 
ATOM     13  C   UNL     1       6.249   3.689  12.952  0.00  0.00    +0.000 A 
ATOM     14  C   UNL     1       5.215   3.449  13.855  0.00  0.00    +0.000 A 
ATOM     15  C   UNL     1       5.282   3.931  15.165  0.00  0.00    +0.000 A 
BRANCH  13  16
ATOM     16  O   UNL     1       6.074   3.134  11.717  0.00  0.00    +0.000 OA
BRANCH  16  17
ATOM     17  C   UNL     1       6.729   1.895  11.506  0.00  0.00    +0.000 C 
ATOM     18  F   UNL     1       5.917   1.143  10.721  0.00  0.00    +0.000 F 
ATOM     19  F   UNL     1       7.859   2.124  10.795  0.00  0.00    +0.000 F 
ENDBRANCH  16  17
ENDBRANCH  13  16
ENDBRANCH   2  10
BRANCH   6  20
ATOM     20  C   UNL     1       3.052   6.132  17.666  0.00  0.00    +0.000 C 
BRANCH  20  21
ATOM     21  C   UNL     1       2.466   7.064  18.668  0.00  0.00    +0.000 A 
ATOM     22  C   UNL     1       2.118   8.385  18.441  0.00  0.00    +0.000 A 
ATOM     23  N   UNL     1       1.453   8.868  19.541  0.00  0.00    +0.000 N 
ATOM     24  C   UNL     1       0.883  10.128  19.710  0.00  0.00    +0.000 A 
ATOM     25  C   UNL     1       0.221  10.405  20.843  0.00  0.00    +0.000 A 
ATOM     26  C   UNL     1       0.111   9.372  21.861  0.00  0.00    +0.000 A 
ATOM     27  C   UNL     1       0.677   8.159  21.702  0.00  0.00    +0.000 A 
ATOM     28  C   UNL     1       1.388   7.865  20.502  0.00  0.00    +0.000 A 
ATOM     29  C   UNL     1       2.048   6.753  20.002  0.00  0.00    +0.000 A 
BRANCH  29  30
ATOM     30  C   UNL     1       2.195   5.504  20.696  0.00  0.00    +0.000 C 
ATOM     31  N   UNL     1       2.308   4.485  21.237  0.00  0.00    +0.000 NA
ENDBRANCH  29  30
ENDBRANCH  20  21
ENDBRANCH   6  20
TORSDOF 6
ENDMDL
