MODEL 1
REMARK VINA RESULT:      -8.3      0.000      0.000
REMARK  Name = 
REMARK  6 active torsions:
REMARK  status: ('A' for Active; 'I' for Inactive)
REMARK    1  A    between atoms: C_1  and  C_2
REMARK    2  A    between atoms: C_2  and  C_3
REMARK    3  A    between atoms: C_7  and  N_8
REMARK    4  A    between atoms: C_13  and  C_14
REMARK    5  A    between atoms: C_14  and  N_15
REMARK    6  A    between atoms: C_23  and  C_24
REMARK                            x       y       z     vdW  Elec       q    Type
REMARK                         _______ _______ _______ _____ _____    ______ ____
ROOT
ATOM      1  N   UNL     1       4.148   4.591  19.063  0.00  0.00    +0.000 N 
ATOM      2  C   UNL     1       5.473   5.254  19.213  0.00  0.00    +0.000 C 
ATOM      3  C   UNL     1       6.055   5.129  17.838  0.00  0.00    +0.000 A 
ATOM      4  C   UNL     1       5.447   4.033  17.230  0.00  0.00    +0.000 A 
ATOM      5  C   UNL     1       5.640   3.714  15.901  0.00  0.00    +0.000 A 
ATOM      6  C   UNL     1       6.507   4.522  15.149  0.00  0.00    +0.000 A 
ATOM      7  C   UNL     1       7.136   5.630  15.762  0.00  0.00    +0.000 A 
ATOM      8  C   UNL     1       6.906   5.962  17.116  0.00  0.00    +0.000 A 
ATOM      9  C   UNL     1       4.323   3.584  18.081  0.00  0.00    +0.000 C 
ATOM     10  O   UNL     1       3.600   2.649  17.807  0.00  0.00    +0.000 OA
ENDROOT
BRANCH   1  15
ATOM     11  C   UNL     1       1.915   7.345  19.916  0.00  0.00    +0.000 A 
ATOM     12  C   UNL     1       2.255   8.213  18.870  0.00  0.00    +0.000 A 
ATOM     13  C   UNL     1       2.856   7.721  17.715  0.00  0.00    +0.000 A 
ATOM     14  C   UNL     1       3.229   6.383  17.643  0.00  0.00    +0.000 A 
ATOM     15  C   UNL     1       3.119   5.574  18.784  0.00  0.00    +0.000 A 
ATOM     16  C   UNL     1       2.327   6.008  19.852  0.00  0.00    +0.000 A 
BRANCH  11  18
ATOM     17  C   UNL     1       0.940   9.357  21.060  0.00  0.00    +0.000 C 
ATOM     18  C   UNL     1       1.220   7.864  21.146  0.00  0.00    +0.000 C 
ENDBRANCH  11  18
ENDBRANCH   1  15
BRANCH   8  19
ATOM     19  C   UNL     1       7.489   7.241  17.666  0.00  0.00    +0.000 C 
ATOM     20  F   UNL     1       8.183   7.085  18.827  0.00  0.00    +0.000 F 
ATOM     21  F   UNL     1       8.354   7.832  16.799  0.00  0.00    +0.000 F 
ATOM     22  F   UNL     1       6.533   8.173  17.933  0.00  0.00    +0.000 F 
ENDBRANCH   8  19
BRANCH   6  23
ATOM     23  C   UNL     1       6.712   4.222  13.677  0.00  0.00    +0.000 C 
BRANCH  23  24
ATOM     24  N   UNL     1       5.620   3.441  13.091  0.00  0.00    +0.000 NA
ATOM     25  C   UNL     1       6.116   2.395  12.184  0.00  0.00    +0.000 C 
ATOM     26  C   UNL     1       5.266   2.419  10.919  0.00  0.00    +0.000 C 
ATOM     27  C   UNL     1       4.117   3.335  11.241  0.00  0.00    +0.000 C 
ATOM     28  F   UNL     1       3.728   4.028  10.150  0.00  0.00    +0.000 F 
ATOM     29  F   UNL     1       3.049   2.631  11.679  0.00  0.00    +0.000 F 
ATOM     30  C   UNL     1       4.656   4.251  12.322  0.00  0.00    +0.000 C 
ENDBRANCH  23  24
ENDBRANCH   6  23
TORSDOF 5
ENDMDL
MODEL 2
REMARK VINA RESULT:      -8.2      3.470      6.502
REMARK  Name = 
REMARK  6 active torsions:
REMARK  status: ('A' for Active; 'I' for Inactive)
REMARK    1  A    between atoms: C_1  and  C_2
REMARK    2  A    between atoms: C_2  and  C_3
REMARK    3  A    between atoms: C_7  and  N_8
REMARK    4  A    between atoms: C_13  and  C_14
REMARK    5  A    between atoms: C_14  and  N_15
REMARK    6  A    between atoms: C_23  and  C_24
REMARK                            x       y       z     vdW  Elec       q    Type
REMARK                         _______ _______ _______ _____ _____    ______ ____
ROOT
ATOM      1  N   UNL     1       6.290   5.809  15.605  0.00  0.00    +0.000 N 
ATOM      2  C   UNL     1       5.095   6.592  16.023  0.00  0.00    +0.000 C 
ATOM      3  C   UNL     1       4.218   5.543  16.636  0.00  0.00    +0.000 A 
ATOM      4  C   UNL     1       4.578   4.322  16.071  0.00  0.00    +0.000 A 
ATOM      5  C   UNL     1       4.072   3.116  16.514  0.00  0.00    +0.000 A 
ATOM      6  C   UNL     1       3.137   3.139  17.561  0.00  0.00    +0.000 A 
ATOM      7  C   UNL     1       2.760   4.376  18.133  0.00  0.00    +0.000 A 
ATOM      8  C   UNL     1       3.309   5.600  17.689  0.00  0.00    +0.000 A 
ATOM      9  C   UNL     1       5.815   4.512  15.283  0.00  0.00    +0.000 C 
ATOM     10  O   UNL     1       6.373   3.621  14.678  0.00  0.00    +0.000 OA
ENDROOT
BRANCH   1  15
ATOM     11  C   UNL     1       8.131   7.392  18.324  0.00  0.00    +0.000 A 
ATOM     12  C   UNL     1       8.029   6.361  19.266  0.00  0.00    +0.000 A 
ATOM     13  C   UNL     1       7.755   5.059  18.857  0.00  0.00    +0.000 A 
ATOM     14  C   UNL     1       7.464   4.799  17.522  0.00  0.00    +0.000 A 
ATOM     15  C   UNL     1       7.318   5.869  16.627  0.00  0.00    +0.000 A 
ATOM     16  C   UNL     1       7.800   7.130  16.990  0.00  0.00    +0.000 A 
BRANCH  11  18
ATOM     17  C   UNL     1       8.098   9.827  17.709  0.00  0.00    +0.000 C 
ATOM     18  C   UNL     1       8.478   8.792  18.757  0.00  0.00    +0.000 C 
ENDBRANCH  11  18
ENDBRANCH   1  15
BRANCH   8  19
ATOM     19  C   UNL     1       2.977   6.867  18.440  0.00  0.00    +0.000 C 
ATOM     20  F   UNL     1       2.866   6.706  19.788  0.00  0.00    +0.000 F 
ATOM     21  F   UNL     1       3.916   7.836  18.263  0.00  0.00    +0.000 F 
ATOM     22  F   UNL     1       1.797   7.414  18.037  0.00  0.00    +0.000 F 
ENDBRANCH   8  19
BRANCH   6  23
ATOM     23  C   UNL     1       2.591   1.831  18.098  0.00  0.00    +0.000 C 
BRANCH  23  24
ATOM     24  N   UNL     1       1.898   1.978  19.380  0.00  0.00    +0.000 NA
ATOM     25  C   UNL     1       0.714   2.844  19.270  0.00  0.00    +0.000 C 
ATOM     26  C   UNL     1       0.720   3.810  20.450  0.00  0.00    +0.000 C 
ATOM     27  C   UNL     1       1.799   3.299  21.365  0.00  0.00    +0.000 C 
ATOM     28  F   UNL     1       2.425   4.316  21.994  0.00  0.00    +0.000 F 
ATOM     29  F   UNL     1       1.279   2.489  22.316  0.00  0.00    +0.000 F 
ATOM     30  C   UNL     1       2.743   2.542  20.451  0.00  0.00    +0.000 C 
ENDBRANCH  23  24
ENDBRANCH   6  23
TORSDOF 5
ENDMDL
MODEL 3
REMARK VINA RESULT:      -8.2      5.908      8.827
REMARK  Name = 
REMARK  6 active torsions:
REMARK  status: ('A' for Active; 'I' for Inactive)
REMARK    1  A    between atoms: C_1  and  C_2
REMARK    2  A    between atoms: C_2  and  C_3
REMARK    3  A    between atoms: C_7  and  N_8
REMARK    4  A    between atoms: C_13  and  C_14
REMARK    5  A    between atoms: C_14  and  N_15
REMARK    6  A    between atoms: C_23  and  C_24
REMARK                            x       y       z     vdW  Elec       q    Type
REMARK                         _______ _______ _______ _____ _____    ______ ____
ROOT
ATOM      1  N   UNL     1       2.694   6.861  19.548  0.00  0.00    +0.000 N 
ATOM      2  C   UNL     1       2.310   7.648  20.751  0.00  0.00    +0.000 C 
ATOM      3  C   UNL     1       1.385   8.681  20.181  0.00  0.00    +0.000 A 
ATOM      4  C   UNL     1       1.717   8.836  18.837  0.00  0.00    +0.000 A 
ATOM      5  C   UNL     1       0.970   9.604  17.967  0.00  0.00    +0.000 A 
ATOM      6  C   UNL     1      -0.154  10.272  18.477  0.00  0.00    +0.000 A 
ATOM      7  C   UNL     1      -0.491  10.127  19.842  0.00  0.00    +0.000 A 
ATOM      8  C   UNL     1       0.266   9.314  20.715  0.00  0.00    +0.000 A 
ATOM      9  C   UNL     1       2.673   7.770  18.461  0.00  0.00    +0.000 C 
ATOM     10  O   UNL     1       3.138   7.644  17.347  0.00  0.00    +0.000 OA
ENDROOT
BRANCH   1  15
ATOM     11  C   UNL     1       1.958   3.422  18.583  0.00  0.00    +0.000 A 
ATOM     12  C   UNL     1       1.442   2.974  19.806  0.00  0.00    +0.000 A 
ATOM     13  C   UNL     1       0.961   3.885  20.743  0.00  0.00    +0.000 A 
ATOM     14  C   UNL     1       1.099   5.250  20.516  0.00  0.00    +0.000 A 
ATOM     15  C   UNL     1       1.841   5.695  19.412  0.00  0.00    +0.000 A 
ATOM     16  C   UNL     1       2.128   4.797  18.379  0.00  0.00    +0.000 A 
BRANCH  11  18
ATOM     17  C   UNL     1       3.580   1.579  18.054  0.00  0.00    +0.000 C 
ATOM     18  C   UNL     1       2.432   2.439  17.546  0.00  0.00    +0.000 C 
ENDBRANCH  11  18
ENDBRANCH   1  15
BRANCH   8  19
ATOM     19  C   UNL     1      -0.233   9.084  22.121  0.00  0.00    +0.000 C 
ATOM     20  F   UNL     1       0.751   9.005  23.058  0.00  0.00    +0.000 F 
ATOM     21  F   UNL     1      -1.064  10.074  22.544  0.00  0.00    +0.000 F 
ATOM     22  F   UNL     1      -0.943   7.927  22.236  0.00  0.00    +0.000 F 
ENDBRANCH   8  19
BRANCH   6  23
ATOM     23  C   UNL     1      -1.018  11.093  17.541  0.00  0.00    +0.000 C 
BRANCH  23  24
ATOM     24  N   UNL     1      -2.412  10.646  17.503  0.00  0.00    +0.000 NA
ATOM     25  C   UNL     1      -2.815  10.209  16.158  0.00  0.00    +0.000 C 
ATOM     26  C   UNL     1      -4.183  10.809  15.852  0.00  0.00    +0.000 C 
ATOM     27  C   UNL     1      -4.655  11.386  17.159  0.00  0.00    +0.000 C 
ATOM     28  F   UNL     1      -5.384  12.505  16.962  0.00  0.00    +0.000 F 
ATOM     29  F   UNL     1      -5.436  10.502  17.821  0.00  0.00    +0.000 F 
ATOM     30  C   UNL     1      -3.379  11.678  17.926  0.00  0.00    +0.000 C 
ENDBRANCH  23  24
ENDBRANCH   6  23
TORSDOF 5
ENDMDL
MODEL 4
REMARK VINA RESULT:      -8.0      5.941      9.348
REMARK  Name = 
REMARK  6 active torsions:
REMARK  status: ('A' for Active; 'I' for Inactive)
REMARK    1  A    between atoms: C_1  and  C_2
REMARK    2  A    between atoms: C_2  and  C_3
REMARK    3  A    between atoms: C_7  and  N_8
REMARK    4  A    between atoms: C_13  and  C_14
REMARK    5  A    between atoms: C_14  and  N_15
REMARK    6  A    between atoms: C_23  and  C_24
REMARK                            x       y       z     vdW  Elec       q    Type
REMARK                         _______ _______ _______ _____ _____    ______ ____
ROOT
ATOM      1  N   UNL     1       2.566   7.260  19.395  0.00  0.00    +0.000 N 
ATOM      2  C   UNL     1       2.219   8.009  20.633  0.00  0.00    +0.000 C 
ATOM      3  C   UNL     1       1.179   8.972  20.149  0.00  0.00    +0.000 A 
ATOM      4  C   UNL     1       1.393   9.161  18.785  0.00  0.00    +0.000 A 
ATOM      5  C   UNL     1       0.526   9.876  17.985  0.00  0.00    +0.000 A 
ATOM      6  C   UNL     1      -0.601  10.455  18.588  0.00  0.00    +0.000 A 
ATOM      7  C   UNL     1      -0.820  10.277  19.973  0.00  0.00    +0.000 A 
ATOM      8  C   UNL     1       0.061   9.516  20.775  0.00  0.00    +0.000 A 
ATOM      9  C   UNL     1       2.393   8.172  18.324  0.00  0.00    +0.000 C 
ATOM     10  O   UNL     1       2.779   8.088  17.176  0.00  0.00    +0.000 OA
ENDROOT
BRANCH   1  15
ATOM     11  C   UNL     1       2.024   3.774  18.471  0.00  0.00    +0.000 A 
ATOM     12  C   UNL     1       1.622   3.293  19.724  0.00  0.00    +0.000 A 
ATOM     13  C   UNL     1       1.135   4.168  20.691  0.00  0.00    +0.000 A 
ATOM     14  C   UNL     1       1.158   5.539  20.459  0.00  0.00    +0.000 A 
ATOM     15  C   UNL     1       1.794   6.034  19.310  0.00  0.00    +0.000 A 
ATOM     16  C   UNL     1       2.080   5.157  18.260  0.00  0.00    +0.000 A 
BRANCH  11  18
ATOM     17  C   UNL     1       3.437   1.760  17.961  0.00  0.00    +0.000 C 
ATOM     18  C   UNL     1       2.503   2.826  17.405  0.00  0.00    +0.000 C 
ENDBRANCH  11  18
ENDBRANCH   1  15
BRANCH   8  19
ATOM     19  C   UNL     1      -0.309   9.240  22.212  0.00  0.00    +0.000 C 
ATOM     20  F   UNL     1      -0.942   8.051  22.409  0.00  0.00    +0.000 F 
ATOM     21  F   UNL     1       0.776   9.217  23.032  0.00  0.00    +0.000 F 
ATOM     22  F   UNL     1      -1.142  10.189  22.724  0.00  0.00    +0.000 F 
ENDBRANCH   8  19
BRANCH   6  23
ATOM     23  C   UNL     1      -1.594  11.215  17.731  0.00  0.00    +0.000 C 
BRANCH  23  24
ATOM     24  N   UNL     1      -2.989  10.920  18.067  0.00  0.00    +0.000 NA
ATOM     25  C   UNL     1      -3.819  10.739  16.866  0.00  0.00    +0.000 C 
ATOM     26  C   UNL     1      -5.118  11.513  17.064  0.00  0.00    +0.000 C 
ATOM     27  C   UNL     1      -5.108  11.924  18.512  0.00  0.00    +0.000 C 
ATOM     28  F   UNL     1      -5.697  13.127  18.679  0.00  0.00    +0.000 F 
ATOM     29  F   UNL     1      -5.783  11.030  19.270  0.00  0.00    +0.000 F 
ATOM     30  C   UNL     1      -3.638  11.965  18.883  0.00  0.00    +0.000 C 
ENDBRANCH  23  24
ENDBRANCH   6  23
TORSDOF 5
ENDMDL
MODEL 5
REMARK VINA RESULT:      -7.5      3.169      8.180
REMARK  Name = 
REMARK  6 active torsions:
REMARK  status: ('A' for Active; 'I' for Inactive)
REMARK    1  A    between atoms: C_1  and  C_2
REMARK    2  A    between atoms: C_2  and  C_3
REMARK    3  A    between atoms: C_7  and  N_8
REMARK    4  A    between atoms: C_13  and  C_14
REMARK    5  A    between atoms: C_14  and  N_15
REMARK    6  A    between atoms: C_23  and  C_24
REMARK                            x       y       z     vdW  Elec       q    Type
REMARK                         _______ _______ _______ _____ _____    ______ ____
ROOT
ATOM      1  N   UNL     1       6.659   4.402  15.712  0.00  0.00    +0.000 N 
ATOM      2  C   UNL     1       5.715   3.599  16.536  0.00  0.00    +0.000 C 
ATOM      3  C   UNL     1       4.807   4.647  17.103  0.00  0.00    +0.000 A 
ATOM      4  C   UNL     1       5.516   5.846  17.115  0.00  0.00    +0.000 A 
ATOM      5  C   UNL     1       4.934   7.055  17.439  0.00  0.00    +0.000 A 
ATOM      6  C   UNL     1       3.577   7.058  17.795  0.00  0.00    +0.000 A 
ATOM      7  C   UNL     1       2.853   5.844  17.795  0.00  0.00    +0.000 A 
ATOM      8  C   UNL     1       3.454   4.618  17.432  0.00  0.00    +0.000 A 
ATOM      9  C   UNL     1       6.775   5.658  16.359  0.00  0.00    +0.000 C 
ATOM     10  O   UNL     1       7.599   6.532  16.192  0.00  0.00    +0.000 OA
ENDROOT
BRANCH   1  15
ATOM     11  C   UNL     1       6.576   3.254  12.251  0.00  0.00    +0.000 A 
ATOM     12  C   UNL     1       5.188   3.117  12.116  0.00  0.00    +0.000 A 
ATOM     13  C   UNL     1       4.327   3.793  12.977  0.00  0.00    +0.000 A 
ATOM     14  C   UNL     1       4.843   4.514  14.048  0.00  0.00    +0.000 A 
ATOM     15  C   UNL     1       6.216   4.443  14.331  0.00  0.00    +0.000 A 
ATOM     16  C   UNL     1       7.087   3.950  13.354  0.00  0.00    +0.000 A 
BRANCH  11  18
ATOM     17  C   UNL     1       6.990   1.201  10.864  0.00  0.00    +0.000 C 
ATOM     18  C   UNL     1       7.510   2.566  11.293  0.00  0.00    +0.000 C 
ENDBRANCH  11  18
ENDBRANCH   1  15
BRANCH   8  19
ATOM     19  C   UNL     1       2.591   3.385  17.308  0.00  0.00    +0.000 C 
ATOM     20  F   UNL     1       1.306   3.558  17.726  0.00  0.00    +0.000 F 
ATOM     21  F   UNL     1       2.503   2.941  16.026  0.00  0.00    +0.000 F 
ATOM     22  F   UNL     1       3.076   2.339  18.033  0.00  0.00    +0.000 F 
ENDBRANCH   8  19
BRANCH   6  23
ATOM     23  C   UNL     1       2.896   8.373  18.119  0.00  0.00    +0.000 C 
BRANCH  23  24
ATOM     24  N   UNL     1       1.715   8.216  18.971  0.00  0.00    +0.000 NA
ATOM     25  C   UNL     1       0.896   9.437  19.007  0.00  0.00    +0.000 C 
ATOM     26  C   UNL     1       0.508   9.707  20.457  0.00  0.00    +0.000 C 
ATOM     27  C   UNL     1       0.915   8.466  21.205  0.00  0.00    +0.000 C 
ATOM     28  F   UNL     1       1.333   8.767  22.453  0.00  0.00    +0.000 F 
ATOM     29  F   UNL     1      -0.125   7.609  21.318  0.00  0.00    +0.000 F 
ATOM     30  C   UNL     1       2.033   7.871  20.370  0.00  0.00    +0.000 C 
ENDBRANCH  23  24
ENDBRANCH   6  23
TORSDOF 5
ENDMDL
MODEL 6
REMARK VINA RESULT:      -7.5      6.109      9.685
REMARK  Name = 
REMARK  6 active torsions:
REMARK  status: ('A' for Active; 'I' for Inactive)
REMARK    1  A    between atoms: C_1  and  C_2
REMARK    2  A    between atoms: C_2  and  C_3
REMARK    3  A    between atoms: C_7  and  N_8
REMARK    4  A    between atoms: C_13  and  C_14
REMARK    5  A    between atoms: C_14  and  N_15
REMARK    6  A    between atoms: C_23  and  C_24
REMARK                            x       y       z     vdW  Elec       q    Type
REMARK                         _______ _______ _______ _____ _____    ______ ____
ROOT
ATOM      1  N   UNL     1       0.622   8.366  21.250  0.00  0.00    +0.000 N 
ATOM      2  C   UNL     1      -0.590   8.702  20.453  0.00  0.00    +0.000 C 
ATOM      3  C   UNL     1      -0.398  10.162  20.173  0.00  0.00    +0.000 A 
ATOM      4  C   UNL     1       0.422  10.671  21.177  0.00  0.00    +0.000 A 
ATOM      5  C   UNL     1       0.925  11.956  21.150  0.00  0.00    +0.000 A 
ATOM      6  C   UNL     1       0.564  12.782  20.074  0.00  0.00    +0.000 A 
ATOM      7  C   UNL     1      -0.277  12.276  19.057  0.00  0.00    +0.000 A 
ATOM      8  C   UNL     1      -0.760  10.948  19.082  0.00  0.00    +0.000 A 
ATOM      9  C   UNL     1       0.958   9.541  21.968  0.00  0.00    +0.000 C 
ATOM     10  O   UNL     1       1.710   9.673  22.910  0.00  0.00    +0.000 OA
ENDROOT
BRANCH   1  15
ATOM     11  C   UNL     1       2.317   5.726  19.390  0.00  0.00    +0.000 A 
ATOM     12  C   UNL     1       2.376   6.362  18.144  0.00  0.00    +0.000 A 
ATOM     13  C   UNL     1       2.263   7.747  18.054  0.00  0.00    +0.000 A 
ATOM     14  C   UNL     1       1.971   8.494  19.191  0.00  0.00    +0.000 A 
ATOM     15  C   UNL     1       1.662   7.833  20.389  0.00  0.00    +0.000 A 
ATOM     16  C   UNL     1       1.985   6.479  20.523  0.00  0.00    +0.000 A 
BRANCH  11  18
ATOM     17  C   UNL     1       1.183   3.528  19.827  0.00  0.00    +0.000 C 
ATOM     18  C   UNL     1       2.489   4.235  19.497  0.00  0.00    +0.000 C 
ENDBRANCH  11  18
ENDBRANCH   1  15
BRANCH   8  19
ATOM     19  C   UNL     1      -1.528  10.425  17.893  0.00  0.00    +0.000 C 
ATOM     20  F   UNL     1      -2.692   9.793  18.212  0.00  0.00    +0.000 F 
ATOM     21  F   UNL     1      -1.875  11.413  17.024  0.00  0.00    +0.000 F 
ATOM     22  F   UNL     1      -0.809   9.525  17.166  0.00  0.00    +0.000 F 
ENDBRANCH   8  19
BRANCH   6  23
ATOM     23  C   UNL     1       1.128  14.187  19.995  0.00  0.00    +0.000 C 
BRANCH  23  24
ATOM     24  N   UNL     1       1.881  14.436  18.763  0.00  0.00    +0.000 NA
ATOM     25  C   UNL     1       3.116  13.641  18.702  0.00  0.00    +0.000 C 
ATOM     26  C   UNL     1       4.247  14.553  18.236  0.00  0.00    +0.000 C 
ATOM     27  C   UNL     1       3.566  15.819  17.793  0.00  0.00    +0.000 C 
ATOM     28  F   UNL     1       4.332  16.900  18.054  0.00  0.00    +0.000 F 
ATOM     29  F   UNL     1       3.332  15.798  16.460  0.00  0.00    +0.000 F 
ATOM     30  C   UNL     1       2.270  15.848  18.580  0.00  0.00    +0.000 C 
ENDBRANCH  23  24
ENDBRANCH   6  23
TORSDOF 5
ENDMDL
MODEL 7
REMARK VINA RESULT:      -7.5      3.431      8.242
REMARK  Name = 
REMARK  6 active torsions:
REMARK  status: ('A' for Active; 'I' for Inactive)
REMARK    1  A    between atoms: C_1  and  C_2
REMARK    2  A    between atoms: C_2  and  C_3
REMARK    3  A    between atoms: C_7  and  N_8
REMARK    4  A    between atoms: C_13  and  C_14
REMARK    5  A    between atoms: C_14  and  N_15
REMARK    6  A    between atoms: C_23  and  C_24
REMARK                            x       y       z     vdW  Elec       q    Type
REMARK                         _______ _______ _______ _____ _____    ______ ____
ROOT
ATOM      1  N   UNL     1       6.363   4.975  16.686  0.00  0.00    +0.000 N 
ATOM      2  C   UNL     1       5.344   4.151  17.392  0.00  0.00    +0.000 C 
ATOM      3  C   UNL     1       4.303   5.166  17.756  0.00  0.00    +0.000 A 
ATOM      4  C   UNL     1       4.938   6.405  17.819  0.00  0.00    +0.000 A 
ATOM      5  C   UNL     1       4.249   7.589  17.986  0.00  0.00    +0.000 A 
ATOM      6  C   UNL     1       2.853   7.525  18.124  0.00  0.00    +0.000 A 
ATOM      7  C   UNL     1       2.204   6.271  18.072  0.00  0.00    +0.000 A 
ATOM      8  C   UNL     1       2.919   5.069  17.870  0.00  0.00    +0.000 A 
ATOM      9  C   UNL     1       6.308   6.261  17.280  0.00  0.00    +0.000 C 
ATOM     10  O   UNL     1       7.101   7.175  17.201  0.00  0.00    +0.000 OA
ENDROOT
BRANCH   1  15
ATOM     11  C   UNL     1       7.417   5.069  13.197  0.00  0.00    +0.000 A 
ATOM     12  C   UNL     1       6.812   3.880  12.770  0.00  0.00    +0.000 A 
ATOM     13  C   UNL     1       5.755   3.330  13.491  0.00  0.00    +0.000 A 
ATOM     14  C   UNL     1       5.375   3.896  14.703  0.00  0.00    +0.000 A 
ATOM     15  C   UNL     1       6.144   4.932  15.253  0.00  0.00    +0.000 A 
ATOM     16  C   UNL     1       7.055   5.610  14.436  0.00  0.00    +0.000 A 
BRANCH  11  18
ATOM     17  C   UNL     1       7.998   6.488  11.208  0.00  0.00    +0.000 C 
ATOM     18  C   UNL     1       8.526   5.694  12.393  0.00  0.00    +0.000 C 
ENDBRANCH  11  18
ENDBRANCH   1  15
BRANCH   8  19
ATOM     19  C   UNL     1       2.152   3.783  17.675  0.00  0.00    +0.000 C 
ATOM     20  F   UNL     1       2.476   3.106  16.539  0.00  0.00    +0.000 F 
ATOM     21  F   UNL     1       2.347   2.904  18.694  0.00  0.00    +0.000 F 
ATOM     22  F   UNL     1       0.807   3.987  17.610  0.00  0.00    +0.000 F 
ENDBRANCH   8  19
BRANCH   6  23
ATOM     23  C   UNL     1       2.062   8.810  18.272  0.00  0.00    +0.000 C 
BRANCH  23  24
ATOM     24  N   UNL     1       0.999   8.720  19.274  0.00  0.00    +0.000 NA
ATOM     25  C   UNL     1       0.242   9.975  19.390  0.00  0.00    +0.000 C 
ATOM     26  C   UNL     1       0.060  10.287  20.871  0.00  0.00    +0.000 C 
ATOM     27  C   UNL     1       0.512   9.044  21.588  0.00  0.00    +0.000 C 
ATOM     28  F   UNL     1       1.103   9.348  22.763  0.00  0.00    +0.000 F 
ATOM     29  F   UNL     1      -0.538   8.235  21.857  0.00  0.00    +0.000 F 
ATOM     30  C   UNL     1       1.484   8.387  20.628  0.00  0.00    +0.000 C 
ENDBRANCH  23  24
ENDBRANCH   6  23
TORSDOF 5
ENDMDL
MODEL 8
REMARK VINA RESULT:      -7.4      8.516     12.018
REMARK  Name = 
REMARK  6 active torsions:
REMARK  status: ('A' for Active; 'I' for Inactive)
REMARK    1  A    between atoms: C_1  and  C_2
REMARK    2  A    between atoms: C_2  and  C_3
REMARK    3  A    between atoms: C_7  and  N_8
REMARK    4  A    between atoms: C_13  and  C_14
REMARK    5  A    between atoms: C_14  and  N_15
REMARK    6  A    between atoms: C_23  and  C_24
REMARK                            x       y       z     vdW  Elec       q    Type
REMARK                         _______ _______ _______ _____ _____    ______ ____
ROOT
ATOM      1  N   UNL     1      -0.341  11.153  18.321  0.00  0.00    +0.000 N 
ATOM      2  C   UNL     1       0.344  10.339  19.361  0.00  0.00    +0.000 C 
ATOM      3  C   UNL     1      -0.023  11.053  20.626  0.00  0.00    +0.000 A 
ATOM      4  C   UNL     1      -0.305  12.374  20.288  0.00  0.00    +0.000 A 
ATOM      5  C   UNL     1      -0.821  13.282  21.191  0.00  0.00    +0.000 A 
ATOM      6  C   UNL     1      -1.040  12.849  22.508  0.00  0.00    +0.000 A 
ATOM      7  C   UNL     1      -0.746  11.512  22.861  0.00  0.00    +0.000 A 
ATOM      8  C   UNL     1      -0.246  10.585  21.919  0.00  0.00    +0.000 A 
ATOM      9  C   UNL     1      -0.359  12.482  18.813  0.00  0.00    +0.000 C 
ATOM     10  O   UNL     1      -0.593  13.515  18.221  0.00  0.00    +0.000 OA
ENDROOT
BRANCH   1  15
ATOM     11  C   UNL     1      -3.951  11.269  17.815  0.00  0.00    +0.000 A 
ATOM     12  C   UNL     1      -3.995  10.692  16.540  0.00  0.00    +0.000 A 
ATOM     13  C   UNL     1      -2.936   9.912  16.083  0.00  0.00    +0.000 A 
ATOM     14  C   UNL     1      -1.778   9.800  16.845  0.00  0.00    +0.000 A 
ATOM     15  C   UNL     1      -1.636  10.581  18.002  0.00  0.00    +0.000 A 
ATOM     16  C   UNL     1      -2.768  11.184  18.559  0.00  0.00    +0.000 A 
BRANCH  11  18
ATOM     17  C   UNL     1      -6.022  12.555  17.212  0.00  0.00    +0.000 C 
ATOM     18  C   UNL     1      -5.115  12.071  18.333  0.00  0.00    +0.000 C 
ENDBRANCH  11  18
ENDBRANCH   1  15
BRANCH   8  19
ATOM     19  C   UNL     1      -0.095   9.139  22.323  0.00  0.00    +0.000 C 
ATOM     20  F   UNL     1       1.144   8.621  22.096  0.00  0.00    +0.000 F 
ATOM     21  F   UNL     1      -0.338   8.942  23.647  0.00  0.00    +0.000 F 
ATOM     22  F   UNL     1      -0.961   8.323  21.660  0.00  0.00    +0.000 F 
ENDBRANCH   8  19
BRANCH   6  23
ATOM     23  C   UNL     1      -1.641  13.809  23.515  0.00  0.00    +0.000 C 
BRANCH  23  24
ATOM     24  N   UNL     1      -3.090  13.969  23.366  0.00  0.00    +0.000 NA
ATOM     25  C   UNL     1      -3.764  12.683  23.129  0.00  0.00    +0.000 C 
ATOM     26  C   UNL     1      -4.767  12.873  21.996  0.00  0.00    +0.000 C 
ATOM     27  C   UNL     1      -4.822  14.360  21.772  0.00  0.00    +0.000 C 
ATOM     28  F   UNL     1      -5.017  14.648  20.468  0.00  0.00    +0.000 F 
ATOM     29  F   UNL     1      -5.840  14.914  22.469  0.00  0.00    +0.000 F 
ATOM     30  C   UNL     1      -3.479  14.866  22.261  0.00  0.00    +0.000 C 
ENDBRANCH  23  24
ENDBRANCH   6  23
TORSDOF 5
ENDMDL
MODEL 9
REMARK VINA RESULT:      -7.4      8.471     12.399
REMARK  Name = 
REMARK  6 active torsions:
REMARK  status: ('A' for Active; 'I' for Inactive)
REMARK    1  A    between atoms: C_1  and  C_2
REMARK    2  A    between atoms: C_2  and  C_3
REMARK    3  A    between atoms: C_7  and  N_8
REMARK    4  A    between atoms: C_13  and  C_14
REMARK    5  A    between atoms: C_14  and  N_15
REMARK    6  A    between atoms: C_23  and  C_24
REMARK                            x       y       z     vdW  Elec       q    Type
REMARK                         _______ _______ _______ _____ _____    ______ ____
ROOT
ATOM      1  N   UNL     1      -0.281  11.123  18.299  0.00  0.00    +0.000 N 
ATOM      2  C   UNL     1       0.388  10.318  19.358  0.00  0.00    +0.000 C 
ATOM      3  C   UNL     1      -0.014  11.034  20.611  0.00  0.00    +0.000 A 
ATOM      4  C   UNL     1      -0.301  12.352  20.261  0.00  0.00    +0.000 A 
ATOM      5  C   UNL     1      -0.846  13.258  21.148  0.00  0.00    +0.000 A 
ATOM      6  C   UNL     1      -1.092  12.829  22.461  0.00  0.00    +0.000 A 
ATOM      7  C   UNL     1      -0.794  11.497  22.827  0.00  0.00    +0.000 A 
ATOM      8  C   UNL     1      -0.264  10.570  21.900  0.00  0.00    +0.000 A 
ATOM      9  C   UNL     1      -0.322  12.454  18.785  0.00  0.00    +0.000 C 
ATOM     10  O   UNL     1      -0.551  13.482  18.183  0.00  0.00    +0.000 OA
ENDROOT
BRANCH   1  15
ATOM     11  C   UNL     1      -3.884  11.195  17.742  0.00  0.00    +0.000 A 
ATOM     12  C   UNL     1      -3.902  10.637  16.457  0.00  0.00    +0.000 A 
ATOM     13  C   UNL     1      -2.825   9.879  16.005  0.00  0.00    +0.000 A 
ATOM     14  C   UNL     1      -1.677   9.772  16.782  0.00  0.00    +0.000 A 
ATOM     15  C   UNL     1      -1.562  10.538  17.952  0.00  0.00    +0.000 A 
ATOM     16  C   UNL     1      -2.711  11.116  18.502  0.00  0.00    +0.000 A 
BRANCH  11  18
ATOM     17  C   UNL     1      -4.829  12.521  19.654  0.00  0.00    +0.000 C 
ATOM     18  C   UNL     1      -5.066  11.973  18.254  0.00  0.00    +0.000 C 
ENDBRANCH  11  18
ENDBRANCH   1  15
BRANCH   8  19
ATOM     19  C   UNL     1      -0.109   9.127  22.314  0.00  0.00    +0.000 C 
ATOM     20  F   UNL     1       1.130   8.610  22.088  0.00  0.00    +0.000 F 
ATOM     21  F   UNL     1      -0.348   8.939  23.640  0.00  0.00    +0.000 F 
ATOM     22  F   UNL     1      -0.975   8.305  21.659  0.00  0.00    +0.000 F 
ENDBRANCH   8  19
BRANCH   6  23
ATOM     23  C   UNL     1      -1.725  13.788  23.450  0.00  0.00    +0.000 C 
BRANCH  23  24
ATOM     24  N   UNL     1      -3.006  14.328  22.990  0.00  0.00    +0.000 NA
ATOM     25  C   UNL     1      -3.333  15.604  23.643  0.00  0.00    +0.000 C 
ATOM     26  C   UNL     1      -4.796  15.558  24.073  0.00  0.00    +0.000 C 
ATOM     27  C   UNL     1      -5.354  14.323  23.419  0.00  0.00    +0.000 C 
ATOM     28  F   UNL     1      -6.288  13.740  24.199  0.00  0.00    +0.000 F 
ATOM     29  F   UNL     1      -5.940  14.628  22.238  0.00  0.00    +0.000 F 
ATOM     30  C   UNL     1      -4.149  13.423  23.221  0.00  0.00    +0.000 C 
ENDBRANCH  23  24
ENDBRANCH   6  23
TORSDOF 5
ENDMDL
