MODEL 1
REMARK VINA RESULT:      -7.4      0.000      0.000
REMARK  Name = 
REMARK  7 active torsions:
REMARK  status: ('A' for Active; 'I' for Inactive)
REMARK    1  A    between atoms: C_1  and  O_2
REMARK    2  A    between atoms: O_2  and  C_3
REMARK    3  A    between atoms: C_3  and  C_5
REMARK    4  A    between atoms: C_9  and  C_10
REMARK    5  A    between atoms: C_10  and  N_11
REMARK    6  A    between atoms: C_15  and  C_16
REMARK    7  A    between atoms: C_15  and  C_22
REMARK                            x       y       z     vdW  Elec       q    Type
REMARK                         _______ _______ _______ _____ _____    ______ ____
ROOT
ATOM      1  N   UNL     1       1.827   8.452  19.247  0.00  0.00    +0.000 N 
ATOM      2  C   UNL     1       2.146   8.775  17.971  0.00  0.00    +0.000 C 
ATOM      3  O   UNL     1       2.765   8.098  17.165  0.00  0.00    +0.000 OA
ATOM      4  N   UNL     1       1.638  10.013  17.681  0.00  0.00    +0.000 N 
ATOM      5  C   UNL     1       0.780  10.538  18.728  0.00  0.00    +0.000 C 
ATOM      6  C   UNL     1       1.018   9.416  19.790  0.00  0.00    +0.000 C 
ATOM      7  O   UNL     1       0.541   9.366  20.918  0.00  0.00    +0.000 OA
ATOM      8  H   UNL     1       1.739  10.411  16.760  0.00  0.00    +0.000 HD
ENDROOT
BRANCH   5   9
ATOM      9  C   UNL     1       1.268  11.940  19.140  0.00  0.00    +0.000 A 
ATOM     10  C   UNL     1       1.291  12.296  20.506  0.00  0.00    +0.000 A 
ATOM     11  C   UNL     1       1.888  13.485  20.934  0.00  0.00    +0.000 A 
ATOM     12  C   UNL     1       2.463  14.349  20.007  0.00  0.00    +0.000 A 
ATOM     13  C   UNL     1       2.406  14.043  18.652  0.00  0.00    +0.000 A 
ATOM     14  C   UNL     1       1.808  12.856  18.221  0.00  0.00    +0.000 A 
ENDBRANCH   5   9
BRANCH   5  15
ATOM     15  C   UNL     1      -0.702  10.556  18.309  0.00  0.00    +0.000 A 
ATOM     16  C   UNL     1      -1.218   9.702  17.316  0.00  0.00    +0.000 A 
ATOM     17  C   UNL     1      -2.567   9.750  16.953  0.00  0.00    +0.000 A 
ATOM     18  C   UNL     1      -3.427  10.652  17.571  0.00  0.00    +0.000 A 
ATOM     19  C   UNL     1      -2.941  11.506  18.556  0.00  0.00    +0.000 A 
ATOM     20  C   UNL     1      -1.594  11.458  18.924  0.00  0.00    +0.000 A 
ENDBRANCH   5  15
BRANCH   1  21
ATOM     21  C   UNL     1       2.279   7.264  19.934  0.00  0.00    +0.000 C 
BRANCH  21  26
ATOM     22  C   UNL     1       4.214   4.735  17.818  0.00  0.00    +0.000 A 
ATOM     23  C   UNL     1       3.170   3.956  17.301  0.00  0.00    +0.000 A 
ATOM     24  C   UNL     1       1.843   4.281  17.589  0.00  0.00    +0.000 A 
ATOM     25  C   UNL     1       1.549   5.371  18.410  0.00  0.00    +0.000 A 
ATOM     26  C   UNL     1       2.581   6.152  18.952  0.00  0.00    +0.000 A 
ATOM     27  C   UNL     1       3.913   5.832  18.636  0.00  0.00    +0.000 A 
BRANCH  22  28
ATOM     28  C   UNL     1       5.646   4.429  17.548  0.00  0.00    +0.000 C 
ATOM     29  O   UNL     1       6.078   4.124  16.448  0.00  0.00    +0.000 OA
BRANCH  28  31
ATOM     30  C   UNL     1       7.539   5.375  18.536  0.00  0.00    +0.000 C 
ATOM     31  O   UNL     1       6.380   4.552  18.681  0.00  0.00    +0.000 OA
ENDBRANCH  28  31
ENDBRANCH  22  28
ENDBRANCH  21  26
ENDBRANCH   1  21
TORSDOF 6
ENDMDL
MODEL 2
REMARK VINA RESULT:      -7.4      4.882      8.997
REMARK  Name = 
REMARK  7 active torsions:
REMARK  status: ('A' for Active; 'I' for Inactive)
REMARK    1  A    between atoms: C_1  and  O_2
REMARK    2  A    between atoms: O_2  and  C_3
REMARK    3  A    between atoms: C_3  and  C_5
REMARK    4  A    between atoms: C_9  and  C_10
REMARK    5  A    between atoms: C_10  and  N_11
REMARK    6  A    between atoms: C_15  and  C_16
REMARK    7  A    between atoms: C_15  and  C_22
REMARK                            x       y       z     vdW  Elec       q    Type
REMARK                         _______ _______ _______ _____ _____    ______ ____
ROOT
ATOM      1  N   UNL     1      -3.127  11.496  18.257  0.00  0.00    +0.000 N 
ATOM      2  C   UNL     1      -2.432  10.492  17.672  0.00  0.00    +0.000 C 
ATOM      3  O   UNL     1      -2.741   9.853  16.680  0.00  0.00    +0.000 OA
ATOM      4  N   UNL     1      -1.267  10.292  18.364  0.00  0.00    +0.000 N 
ATOM      5  C   UNL     1      -1.030  11.294  19.387  0.00  0.00    +0.000 C 
ATOM      6  C   UNL     1      -2.394  12.049  19.275  0.00  0.00    +0.000 C 
ATOM      7  O   UNL     1      -2.757  13.004  19.952  0.00  0.00    +0.000 OA
ATOM      8  H   UNL     1      -0.593   9.607  18.056  0.00  0.00    +0.000 HD
ENDROOT
BRANCH   5   9
ATOM      9  C   UNL     1      -0.776  10.602  20.739  0.00  0.00    +0.000 A 
ATOM     10  C   UNL     1      -0.086   9.371  20.772  0.00  0.00    +0.000 A 
ATOM     11  C   UNL     1       0.318   8.799  21.982  0.00  0.00    +0.000 A 
ATOM     12  C   UNL     1       0.032   9.439  23.184  0.00  0.00    +0.000 A 
ATOM     13  C   UNL     1      -0.692  10.627  23.178  0.00  0.00    +0.000 A 
ATOM     14  C   UNL     1      -1.099  11.199  21.970  0.00  0.00    +0.000 A 
ENDBRANCH   5   9
BRANCH   5  15
ATOM     15  C   UNL     1       0.125  12.243  19.013  0.00  0.00    +0.000 A 
ATOM     16  C   UNL     1       1.385  11.773  18.596  0.00  0.00    +0.000 A 
ATOM     17  C   UNL     1       2.415  12.661  18.273  0.00  0.00    +0.000 A 
ATOM     18  C   UNL     1       2.208  14.035  18.359  0.00  0.00    +0.000 A 
ATOM     19  C   UNL     1       0.972  14.523  18.767  0.00  0.00    +0.000 A 
ATOM     20  C   UNL     1      -0.061  13.638  19.087  0.00  0.00    +0.000 A 
ENDBRANCH   5  15
BRANCH   1  21
ATOM     21  C   UNL     1      -4.452  11.921  17.863  0.00  0.00    +0.000 C 
BRANCH  21  26
ATOM     22  C   UNL     1      -7.089  11.748  20.624  0.00  0.00    +0.000 A 
ATOM     23  C   UNL     1      -7.596  10.455  20.438  0.00  0.00    +0.000 A 
ATOM     24  C   UNL     1      -7.048   9.621  19.462  0.00  0.00    +0.000 A 
ATOM     25  C   UNL     1      -6.007  10.079  18.651  0.00  0.00    +0.000 A 
ATOM     26  C   UNL     1      -5.499  11.376  18.810  0.00  0.00    +0.000 A 
ATOM     27  C   UNL     1      -6.040  12.200  19.813  0.00  0.00    +0.000 A 
BRANCH  22  28
ATOM     28  C   UNL     1      -7.641  12.681  21.647  0.00  0.00    +0.000 C 
ATOM     29  O   UNL     1      -7.905  13.851  21.424  0.00  0.00    +0.000 OA
BRANCH  28  31
ATOM     30  C   UNL     1      -7.222  12.715  23.944  0.00  0.00    +0.000 C 
ATOM     31  O   UNL     1      -7.811  12.041  22.830  0.00  0.00    +0.000 OA
ENDBRANCH  28  31
ENDBRANCH  22  28
ENDBRANCH  21  26
ENDBRANCH   1  21
TORSDOF 6
ENDMDL
MODEL 3
REMARK VINA RESULT:      -7.4      0.432      1.180
REMARK  Name = 
REMARK  7 active torsions:
REMARK  status: ('A' for Active; 'I' for Inactive)
REMARK    1  A    between atoms: C_1  and  O_2
REMARK    2  A    between atoms: O_2  and  C_3
REMARK    3  A    between atoms: C_3  and  C_5
REMARK    4  A    between atoms: C_9  and  C_10
REMARK    5  A    between atoms: C_10  and  N_11
REMARK    6  A    between atoms: C_15  and  C_16
REMARK    7  A    between atoms: C_15  and  C_22
REMARK                            x       y       z     vdW  Elec       q    Type
REMARK                         _______ _______ _______ _____ _____    ______ ____
ROOT
ATOM      1  N   UNL     1       1.790   8.495  19.285  0.00  0.00    +0.000 N 
ATOM      2  C   UNL     1       2.124   8.808  18.011  0.00  0.00    +0.000 C 
ATOM      3  O   UNL     1       2.754   8.126  17.218  0.00  0.00    +0.000 OA
ATOM      4  N   UNL     1       1.620  10.043  17.706  0.00  0.00    +0.000 N 
ATOM      5  C   UNL     1       0.748  10.576  18.738  0.00  0.00    +0.000 C 
ATOM      6  C   UNL     1       0.974   9.462  19.811  0.00  0.00    +0.000 C 
ATOM      7  O   UNL     1       0.482   9.421  20.933  0.00  0.00    +0.000 OA
ATOM      8  H   UNL     1       1.732  10.435  16.783  0.00  0.00    +0.000 HD
ENDROOT
BRANCH   5   9
ATOM      9  C   UNL     1       1.230  11.981  19.145  0.00  0.00    +0.000 A 
ATOM     10  C   UNL     1       1.311  12.320  20.513  0.00  0.00    +0.000 A 
ATOM     11  C   UNL     1       1.906  13.515  20.929  0.00  0.00    +0.000 A 
ATOM     12  C   UNL     1       2.421  14.401  19.988  0.00  0.00    +0.000 A 
ATOM     13  C   UNL     1       2.306  14.111  18.632  0.00  0.00    +0.000 A 
ATOM     14  C   UNL     1       1.709  12.919  18.214  0.00  0.00    +0.000 A 
ENDBRANCH   5   9
BRANCH   5  15
ATOM     15  C   UNL     1      -0.728  10.590  18.300  0.00  0.00    +0.000 A 
ATOM     16  C   UNL     1      -1.686  11.433  18.895  0.00  0.00    +0.000 A 
ATOM     17  C   UNL     1      -3.021  11.414  18.480  0.00  0.00    +0.000 A 
ATOM     18  C   UNL     1      -3.426  10.553  17.465  0.00  0.00    +0.000 A 
ATOM     19  C   UNL     1      -2.499   9.712  16.860  0.00  0.00    +0.000 A 
ATOM     20  C   UNL     1      -1.163   9.731  17.270  0.00  0.00    +0.000 A 
ENDBRANCH   5  15
BRANCH   1  21
ATOM     21  C   UNL     1       2.234   7.312  19.987  0.00  0.00    +0.000 C 
BRANCH  21  26
ATOM     22  C   UNL     1       4.192   4.730  17.958  0.00  0.00    +0.000 A 
ATOM     23  C   UNL     1       3.152   3.983  17.389  0.00  0.00    +0.000 A 
ATOM     24  C   UNL     1       1.823   4.347  17.614  0.00  0.00    +0.000 A 
ATOM     25  C   UNL     1       1.523   5.445  18.424  0.00  0.00    +0.000 A 
ATOM     26  C   UNL     1       2.550   6.193  19.017  0.00  0.00    +0.000 A 
ATOM     27  C   UNL     1       3.885   5.835  18.765  0.00  0.00    +0.000 A 
BRANCH  22  28
ATOM     28  C   UNL     1       5.626   4.382  17.756  0.00  0.00    +0.000 C 
ATOM     29  O   UNL     1       6.455   4.380  18.651  0.00  0.00    +0.000 OA
BRANCH  28  31
ATOM     30  C   UNL     1       6.920   4.810  15.859  0.00  0.00    +0.000 C 
ATOM     31  O   UNL     1       5.859   4.063  16.459  0.00  0.00    +0.000 OA
ENDBRANCH  28  31
ENDBRANCH  22  28
ENDBRANCH  21  26
ENDBRANCH   1  21
TORSDOF 6
ENDMDL
MODEL 4
REMARK VINA RESULT:      -7.3      0.578      1.239
REMARK  Name = 
REMARK  7 active torsions:
REMARK  status: ('A' for Active; 'I' for Inactive)
REMARK    1  A    between atoms: C_1  and  O_2
REMARK    2  A    between atoms: O_2  and  C_3
REMARK    3  A    between atoms: C_3  and  C_5
REMARK    4  A    between atoms: C_9  and  C_10
REMARK    5  A    between atoms: C_10  and  N_11
REMARK    6  A    between atoms: C_15  and  C_16
REMARK    7  A    between atoms: C_15  and  C_22
REMARK                            x       y       z     vdW  Elec       q    Type
REMARK                         _______ _______ _______ _____ _____    ______ ____
ROOT
ATOM      1  N   UNL     1       1.797   8.377  19.287  0.00  0.00    +0.000 N 
ATOM      2  C   UNL     1       2.140   8.729  18.025  0.00  0.00    +0.000 C 
ATOM      3  O   UNL     1       2.758   8.064  17.210  0.00  0.00    +0.000 OA
ATOM      4  N   UNL     1       1.661   9.984  17.764  0.00  0.00    +0.000 N 
ATOM      5  C   UNL     1       0.797  10.497  18.813  0.00  0.00    +0.000 C 
ATOM      6  C   UNL     1       0.998   9.340  19.846  0.00  0.00    +0.000 C 
ATOM      7  O   UNL     1       0.503   9.268  20.964  0.00  0.00    +0.000 OA
ATOM      8  H   UNL     1       1.783  10.407  16.856  0.00  0.00    +0.000 HD
ENDROOT
BRANCH   5   9
ATOM      9  C   UNL     1       1.304  11.876  19.271  0.00  0.00    +0.000 A 
ATOM     10  C   UNL     1       1.848  12.769  18.322  0.00  0.00    +0.000 A 
ATOM     11  C   UNL     1       2.155  14.089  18.663  0.00  0.00    +0.000 A 
ATOM     12  C   UNL     1       1.938  14.542  19.960  0.00  0.00    +0.000 A 
ATOM     13  C   UNL     1       1.452  13.666  20.925  0.00  0.00    +0.000 A 
ATOM     14  C   UNL     1       1.146  12.345  20.587  0.00  0.00    +0.000 A 
ENDBRANCH   5   9
BRANCH   5  15
ATOM     15  C   UNL     1      -0.678  10.555  18.373  0.00  0.00    +0.000 A 
ATOM     16  C   UNL     1      -1.205   9.711  17.377  0.00  0.00    +0.000 A 
ATOM     17  C   UNL     1      -2.546   9.796  16.995  0.00  0.00    +0.000 A 
ATOM     18  C   UNL     1      -3.388  10.725  17.597  0.00  0.00    +0.000 A 
ATOM     19  C   UNL     1      -2.892  11.570  18.585  0.00  0.00    +0.000 A 
ATOM     20  C   UNL     1      -1.553  11.484  18.972  0.00  0.00    +0.000 A 
ENDBRANCH   5  15
BRANCH   1  21
ATOM     21  C   UNL     1       2.216   7.161  19.947  0.00  0.00    +0.000 C 
BRANCH  21  26
ATOM     22  C   UNL     1       4.554   4.997  17.834  0.00  0.00    +0.000 A 
ATOM     23  C   UNL     1       3.646   4.109  17.243  0.00  0.00    +0.000 A 
ATOM     24  C   UNL     1       2.277   4.245  17.480  0.00  0.00    +0.000 A 
ATOM     25  C   UNL     1       1.807   5.253  18.325  0.00  0.00    +0.000 A 
ATOM     26  C   UNL     1       2.703   6.140  18.940  0.00  0.00    +0.000 A 
ATOM     27  C   UNL     1       4.077   6.011  18.676  0.00  0.00    +0.000 A 
BRANCH  22  28
ATOM     28  C   UNL     1       6.025   4.893  17.619  0.00  0.00    +0.000 C 
ATOM     29  O   UNL     1       6.782   4.322  18.386  0.00  0.00    +0.000 OA
BRANCH  28  31
ATOM     30  C   UNL     1       6.759   4.603  15.421  0.00  0.00    +0.000 C 
ATOM     31  O   UNL     1       6.380   5.505  16.463  0.00  0.00    +0.000 OA
ENDBRANCH  28  31
ENDBRANCH  22  28
ENDBRANCH  21  26
ENDBRANCH   1  21
TORSDOF 6
ENDMDL
MODEL 5
REMARK VINA RESULT:      -7.3      2.678      7.952
REMARK  Name = 
REMARK  7 active torsions:
REMARK  status: ('A' for Active; 'I' for Inactive)
REMARK    1  A    between atoms: C_1  and  O_2
REMARK    2  A    between atoms: O_2  and  C_3
REMARK    3  A    between atoms: C_3  and  C_5
REMARK    4  A    between atoms: C_9  and  C_10
REMARK    5  A    between atoms: C_10  and  N_11
REMARK    6  A    between atoms: C_15  and  C_16
REMARK    7  A    between atoms: C_15  and  C_22
REMARK                            x       y       z     vdW  Elec       q    Type
REMARK                         _______ _______ _______ _____ _____    ______ ____
ROOT
ATOM      1  N   UNL     1       3.665   4.889  17.593  0.00  0.00    +0.000 N 
ATOM      2  C   UNL     1       4.406   3.832  18.001  0.00  0.00    +0.000 C 
ATOM      3  O   UNL     1       4.013   2.821  18.561  0.00  0.00    +0.000 OA
ATOM      4  N   UNL     1       5.716   4.046  17.666  0.00  0.00    +0.000 N 
ATOM      5  C   UNL     1       5.910   5.224  16.839  0.00  0.00    +0.000 C 
ATOM      6  C   UNL     1       4.445   5.770  16.890  0.00  0.00    +0.000 C 
ATOM      7  O   UNL     1       4.032   6.797  16.365  0.00  0.00    +0.000 OA
ATOM      8  H   UNL     1       6.419   3.348  17.853  0.00  0.00    +0.000 HD
ENDROOT
BRANCH   5   9
ATOM      9  C   UNL     1       6.969   6.137  17.482  0.00  0.00    +0.000 A 
ATOM     10  C   UNL     1       7.148   7.449  16.992  0.00  0.00    +0.000 A 
ATOM     11  C   UNL     1       7.970   8.365  17.657  0.00  0.00    +0.000 A 
ATOM     12  C   UNL     1       8.639   7.986  18.816  0.00  0.00    +0.000 A 
ATOM     13  C   UNL     1       8.519   6.683  19.288  0.00  0.00    +0.000 A 
ATOM     14  C   UNL     1       7.700   5.766  18.624  0.00  0.00    +0.000 A 
ENDBRANCH   5   9
BRANCH   5  15
ATOM     15  C   UNL     1       6.282   4.860  15.389  0.00  0.00    +0.000 A 
ATOM     16  C   UNL     1       7.459   5.324  14.771  0.00  0.00    +0.000 A 
ATOM     17  C   UNL     1       7.763   4.983  13.450  0.00  0.00    +0.000 A 
ATOM     18  C   UNL     1       6.899   4.174  12.720  0.00  0.00    +0.000 A 
ATOM     19  C   UNL     1       5.730   3.702  13.308  0.00  0.00    +0.000 A 
ATOM     20  C   UNL     1       5.426   4.038  14.629  0.00  0.00    +0.000 A 
ENDBRANCH   5  15
BRANCH   1  21
ATOM     21  C   UNL     1       2.255   5.062  17.862  0.00  0.00    +0.000 C 
BRANCH  21  26
ATOM     22  C   UNL     1       1.558   8.523  19.329  0.00  0.00    +0.000 A 
ATOM     23  C   UNL     1       1.392   8.216  20.686  0.00  0.00    +0.000 A 
ATOM     24  C   UNL     1       1.561   6.905  21.134  0.00  0.00    +0.000 A 
ATOM     25  C   UNL     1       1.876   5.888  20.230  0.00  0.00    +0.000 A 
ATOM     26  C   UNL     1       2.029   6.173  18.866  0.00  0.00    +0.000 A 
ATOM     27  C   UNL     1       1.881   7.500  18.427  0.00  0.00    +0.000 A 
BRANCH  22  28
ATOM     28  C   UNL     1       1.383   9.903  18.796  0.00  0.00    +0.000 C 
ATOM     29  O   UNL     1       2.056  10.370  17.892  0.00  0.00    +0.000 OA
BRANCH  28  31
ATOM     30  C   UNL     1      -0.855  10.567  18.723  0.00  0.00    +0.000 C 
ATOM     31  O   UNL     1       0.377  10.539  19.446  0.00  0.00    +0.000 OA
ENDBRANCH  28  31
ENDBRANCH  22  28
ENDBRANCH  21  26
ENDBRANCH   1  21
TORSDOF 6
ENDMDL
MODEL 6
REMARK VINA RESULT:      -7.2      2.666      7.874
REMARK  Name = 
REMARK  7 active torsions:
REMARK  status: ('A' for Active; 'I' for Inactive)
REMARK    1  A    between atoms: C_1  and  O_2
REMARK    2  A    between atoms: O_2  and  C_3
REMARK    3  A    between atoms: C_3  and  C_5
REMARK    4  A    between atoms: C_9  and  C_10
REMARK    5  A    between atoms: C_10  and  N_11
REMARK    6  A    between atoms: C_15  and  C_16
REMARK    7  A    between atoms: C_15  and  C_22
REMARK                            x       y       z     vdW  Elec       q    Type
REMARK                         _______ _______ _______ _____ _____    ______ ____
ROOT
ATOM      1  N   UNL     1       3.679   4.800  17.728  0.00  0.00    +0.000 N 
ATOM      2  C   UNL     1       4.466   3.768  18.116  0.00  0.00    +0.000 C 
ATOM      3  O   UNL     1       4.124   2.750  18.698  0.00  0.00    +0.000 OA
ATOM      4  N   UNL     1       5.755   4.018  17.733  0.00  0.00    +0.000 N 
ATOM      5  C   UNL     1       5.884   5.195  16.892  0.00  0.00    +0.000 C 
ATOM      6  C   UNL     1       4.407   5.697  16.992  0.00  0.00    +0.000 C 
ATOM      7  O   UNL     1       3.944   6.708  16.475  0.00  0.00    +0.000 OA
ATOM      8  H   UNL     1       6.486   3.343  17.899  0.00  0.00    +0.000 HD
ENDROOT
BRANCH   5   9
ATOM      9  C   UNL     1       6.938   6.144  17.490  0.00  0.00    +0.000 A 
ATOM     10  C   UNL     1       7.081   7.446  16.964  0.00  0.00    +0.000 A 
ATOM     11  C   UNL     1       7.898   8.394  17.588  0.00  0.00    +0.000 A 
ATOM     12  C   UNL     1       8.598   8.058  18.742  0.00  0.00    +0.000 A 
ATOM     13  C   UNL     1       8.513   6.765  19.249  0.00  0.00    +0.000 A 
ATOM     14  C   UNL     1       7.699   5.816  18.626  0.00  0.00    +0.000 A 
ENDBRANCH   5   9
BRANCH   5  15
ATOM     15  C   UNL     1       6.215   4.831  15.432  0.00  0.00    +0.000 A 
ATOM     16  C   UNL     1       5.357   4.050  14.633  0.00  0.00    +0.000 A 
ATOM     17  C   UNL     1       5.692   3.730  13.315  0.00  0.00    +0.000 A 
ATOM     18  C   UNL     1       6.889   4.181  12.767  0.00  0.00    +0.000 A 
ATOM     19  C   UNL     1       7.752   4.955  13.535  0.00  0.00    +0.000 A 
ATOM     20  C   UNL     1       7.419   5.280  14.852  0.00  0.00    +0.000 A 
ENDBRANCH   5  15
BRANCH   1  21
ATOM     21  C   UNL     1       2.276   4.932  18.048  0.00  0.00    +0.000 C 
BRANCH  21  26
ATOM     22  C   UNL     1       1.618   8.506  19.237  0.00  0.00    +0.000 A 
ATOM     23  C   UNL     1       1.383   8.300  20.603  0.00  0.00    +0.000 A 
ATOM     24  C   UNL     1       1.493   7.020  21.149  0.00  0.00    +0.000 A 
ATOM     25  C   UNL     1       1.816   5.934  20.333  0.00  0.00    +0.000 A 
ATOM     26  C   UNL     1       2.038   6.117  18.960  0.00  0.00    +0.000 A 
ATOM     27  C   UNL     1       1.949   7.413  18.424  0.00  0.00    +0.000 A 
BRANCH  22  28
ATOM     28  C   UNL     1       1.508   9.849  18.602  0.00  0.00    +0.000 C 
ATOM     29  O   UNL     1       2.048  10.146  17.550  0.00  0.00    +0.000 OA
BRANCH  28  31
ATOM     30  C   UNL     1       1.254  11.981  19.521  0.00  0.00    +0.000 C 
ATOM     31  O   UNL     1       0.725  10.665  19.350  0.00  0.00    +0.000 OA
ENDBRANCH  28  31
ENDBRANCH  22  28
ENDBRANCH  21  26
ENDBRANCH   1  21
TORSDOF 6
ENDMDL
MODEL 7
REMARK VINA RESULT:      -7.1      3.563      8.051
REMARK  Name = 
REMARK  7 active torsions:
REMARK  status: ('A' for Active; 'I' for Inactive)
REMARK    1  A    between atoms: C_1  and  O_2
REMARK    2  A    between atoms: O_2  and  C_3
REMARK    3  A    between atoms: C_3  and  C_5
REMARK    4  A    between atoms: C_9  and  C_10
REMARK    5  A    between atoms: C_10  and  N_11
REMARK    6  A    between atoms: C_15  and  C_16
REMARK    7  A    between atoms: C_15  and  C_22
REMARK                            x       y       z     vdW  Elec       q    Type
REMARK                         _______ _______ _______ _____ _____    ______ ____
ROOT
ATOM      1  N   UNL     1       0.564  12.711  21.031  0.00  0.00    +0.000 N 
ATOM      2  C   UNL     1      -0.115  11.838  21.813  0.00  0.00    +0.000 C 
ATOM      3  O   UNL     1      -0.514  12.017  22.953  0.00  0.00    +0.000 OA
ATOM      4  N   UNL     1      -0.323  10.679  21.116  0.00  0.00    +0.000 N 
ATOM      5  C   UNL     1       0.073  10.772  19.722  0.00  0.00    +0.000 C 
ATOM      6  C   UNL     1       0.724  12.192  19.773  0.00  0.00    +0.000 C 
ATOM      7  O   UNL     1       1.265  12.780  18.844  0.00  0.00    +0.000 OA
ATOM      8  H   UNL     1      -0.849   9.919  21.519  0.00  0.00    +0.000 HD
ENDROOT
BRANCH   5   9
ATOM      9  C   UNL     1       1.039   9.622  19.382  0.00  0.00    +0.000 A 
ATOM     10  C   UNL     1       1.241   8.583  20.316  0.00  0.00    +0.000 A 
ATOM     11  C   UNL     1       1.968   7.438  19.979  0.00  0.00    +0.000 A 
ATOM     12  C   UNL     1       2.518   7.311  18.708  0.00  0.00    +0.000 A 
ATOM     13  C   UNL     1       2.376   8.345  17.788  0.00  0.00    +0.000 A 
ATOM     14  C   UNL     1       1.651   9.491  18.123  0.00  0.00    +0.000 A 
ENDBRANCH   5   9
BRANCH   5  15
ATOM     15  C   UNL     1      -1.142  10.787  18.774  0.00  0.00    +0.000 A 
ATOM     16  C   UNL     1      -2.236  11.654  18.960  0.00  0.00    +0.000 A 
ATOM     17  C   UNL     1      -3.327  11.636  18.087  0.00  0.00    +0.000 A 
ATOM     18  C   UNL     1      -3.349  10.753  17.011  0.00  0.00    +0.000 A 
ATOM     19  C   UNL     1      -2.279   9.888  16.805  0.00  0.00    +0.000 A 
ATOM     20  C   UNL     1      -1.186   9.906  17.675  0.00  0.00    +0.000 A 
ENDBRANCH   5  15
BRANCH   1  21
ATOM     21  C   UNL     1       1.048  14.002  21.464  0.00  0.00    +0.000 C 
BRANCH  21  26
ATOM     22  C   UNL     1       0.666  16.890  18.988  0.00  0.00    +0.000 A 
ATOM     23  C   UNL     1      -0.727  17.042  18.959  0.00  0.00    +0.000 A 
ATOM     24  C   UNL     1      -1.536  16.254  19.779  0.00  0.00    +0.000 A 
ATOM     25  C   UNL     1      -0.964  15.295  20.617  0.00  0.00    +0.000 A 
ATOM     26  C   UNL     1       0.427  15.115  20.647  0.00  0.00    +0.000 A 
ATOM     27  C   UNL     1       1.235  15.930  19.836  0.00  0.00    +0.000 A 
BRANCH  22  28
ATOM     28  C   UNL     1       1.575  17.700  18.130  0.00  0.00    +0.000 C 
ATOM     29  O   UNL     1       1.199  18.630  17.435  0.00  0.00    +0.000 OA
BRANCH  28  31
ATOM     30  C   UNL     1       3.319  16.520  17.120  0.00  0.00    +0.000 C 
ATOM     31  O   UNL     1       2.853  17.263  18.248  0.00  0.00    +0.000 OA
ENDBRANCH  28  31
ENDBRANCH  22  28
ENDBRANCH  21  26
ENDBRANCH   1  21
TORSDOF 6
ENDMDL
MODEL 8
REMARK VINA RESULT:      -7.1      4.662      7.513
REMARK  Name = 
REMARK  7 active torsions:
REMARK  status: ('A' for Active; 'I' for Inactive)
REMARK    1  A    between atoms: C_1  and  O_2
REMARK    2  A    between atoms: O_2  and  C_3
REMARK    3  A    between atoms: C_3  and  C_5
REMARK    4  A    between atoms: C_9  and  C_10
REMARK    5  A    between atoms: C_10  and  N_11
REMARK    6  A    between atoms: C_15  and  C_16
REMARK    7  A    between atoms: C_15  and  C_22
REMARK                            x       y       z     vdW  Elec       q    Type
REMARK                         _______ _______ _______ _____ _____    ______ ____
ROOT
ATOM      1  N   UNL     1      -2.646  13.306  21.997  0.00  0.00    +0.000 N 
ATOM      2  C   UNL     1      -2.645  14.093  20.895  0.00  0.00    +0.000 C 
ATOM      3  O   UNL     1      -1.676  14.526  20.293  0.00  0.00    +0.000 OA
ATOM      4  N   UNL     1      -3.937  14.333  20.514  0.00  0.00    +0.000 N 
ATOM      5  C   UNL     1      -4.908  13.559  21.266  0.00  0.00    +0.000 C 
ATOM      6  C   UNL     1      -3.926  12.924  22.303  0.00  0.00    +0.000 C 
ATOM      7  O   UNL     1      -4.225  12.175  23.226  0.00  0.00    +0.000 OA
ATOM      8  H   UNL     1      -4.141  14.871  19.685  0.00  0.00    +0.000 HD
ENDROOT
BRANCH   5   9
ATOM      9  C   UNL     1      -5.969  14.502  21.864  0.00  0.00    +0.000 A 
ATOM     10  C   UNL     1      -5.861  14.905  23.213  0.00  0.00    +0.000 A 
ATOM     11  C   UNL     1      -6.697  15.893  23.742  0.00  0.00    +0.000 A 
ATOM     12  C   UNL     1      -7.663  16.490  22.940  0.00  0.00    +0.000 A 
ATOM     13  C   UNL     1      -7.822  16.073  21.623  0.00  0.00    +0.000 A 
ATOM     14  C   UNL     1      -6.989  15.084  21.092  0.00  0.00    +0.000 A 
ENDBRANCH   5   9
BRANCH   5  15
ATOM     15  C   UNL     1      -5.555  12.452  20.412  0.00  0.00    +0.000 A 
ATOM     16  C   UNL     1      -6.652  11.692  20.862  0.00  0.00    +0.000 A 
ATOM     17  C   UNL     1      -7.209  10.688  20.065  0.00  0.00    +0.000 A 
ATOM     18  C   UNL     1      -6.683  10.421  18.805  0.00  0.00    +0.000 A 
ATOM     19  C   UNL     1      -5.600  11.158  18.338  0.00  0.00    +0.000 A 
ATOM     20  C   UNL     1      -5.043  12.165  19.130  0.00  0.00    +0.000 A 
ENDBRANCH   5  15
BRANCH   1  21
ATOM     21  C   UNL     1      -1.466  12.927  22.742  0.00  0.00    +0.000 C 
BRANCH  21  26
ATOM     22  C   UNL     1       0.234  10.216  20.650  0.00  0.00    +0.000 A 
ATOM     23  C   UNL     1       0.194   9.127  21.529  0.00  0.00    +0.000 A 
ATOM     24  C   UNL     1      -0.430   9.251  22.772  0.00  0.00    +0.000 A 
ATOM     25  C   UNL     1      -1.000  10.468  23.153  0.00  0.00    +0.000 A 
ATOM     26  C   UNL     1      -0.955  11.574  22.293  0.00  0.00    +0.000 A 
ATOM     27  C   UNL     1      -0.346  11.433  21.034  0.00  0.00    +0.000 A 
BRANCH  22  28
ATOM     28  C   UNL     1       0.892  10.140  19.316  0.00  0.00    +0.000 C 
ATOM     29  O   UNL     1       1.413   9.129  18.874  0.00  0.00    +0.000 OA
BRANCH  28  31
ATOM     30  C   UNL     1       2.081  11.933  18.408  0.00  0.00    +0.000 C 
ATOM     31  O   UNL     1       0.813  11.334  18.678  0.00  0.00    +0.000 OA
ENDBRANCH  28  31
ENDBRANCH  22  28
ENDBRANCH  21  26
ENDBRANCH   1  21
TORSDOF 6
ENDMDL
MODEL 9
REMARK VINA RESULT:      -7.1      4.742      7.983
REMARK  Name = 
REMARK  7 active torsions:
REMARK  status: ('A' for Active; 'I' for Inactive)
REMARK    1  A    between atoms: C_1  and  O_2
REMARK    2  A    between atoms: O_2  and  C_3
REMARK    3  A    between atoms: C_3  and  C_5
REMARK    4  A    between atoms: C_9  and  C_10
REMARK    5  A    between atoms: C_10  and  N_11
REMARK    6  A    between atoms: C_15  and  C_16
REMARK    7  A    between atoms: C_15  and  C_22
REMARK                            x       y       z     vdW  Elec       q    Type
REMARK                         _______ _______ _______ _____ _____    ______ ____
ROOT
ATOM      1  N   UNL     1      -1.182  12.537  21.720  0.00  0.00    +0.000 N 
ATOM      2  C   UNL     1      -1.574  11.759  22.757  0.00  0.00    +0.000 C 
ATOM      3  O   UNL     1      -0.916  10.913  23.342  0.00  0.00    +0.000 OA
ATOM      4  N   UNL     1      -2.861  12.077  23.095  0.00  0.00    +0.000 N 
ATOM      5  C   UNL     1      -3.367  13.240  22.388  0.00  0.00    +0.000 C 
ATOM      6  C   UNL     1      -2.157  13.453  21.422  0.00  0.00    +0.000 C 
ATOM      7  O   UNL     1      -2.058  14.313  20.555  0.00  0.00    +0.000 OA
ATOM      8  H   UNL     1      -3.318  11.629  23.875  0.00  0.00    +0.000 HD
ENDROOT
BRANCH   5   9
ATOM      9  C   UNL     1      -4.698  12.886  21.699  0.00  0.00    +0.000 A 
ATOM     10  C   UNL     1      -4.697  12.489  20.344  0.00  0.00    +0.000 A 
ATOM     11  C   UNL     1      -5.852  11.993  19.733  0.00  0.00    +0.000 A 
ATOM     12  C   UNL     1      -7.035  11.894  20.459  0.00  0.00    +0.000 A 
ATOM     13  C   UNL     1      -7.073  12.328  21.780  0.00  0.00    +0.000 A 
ATOM     14  C   UNL     1      -5.920  12.826  22.391  0.00  0.00    +0.000 A 
ENDBRANCH   5   9
BRANCH   5  15
ATOM     15  C   UNL     1      -3.518  14.462  23.314  0.00  0.00    +0.000 A 
ATOM     16  C   UNL     1      -2.929  14.520  24.591  0.00  0.00    +0.000 A 
ATOM     17  C   UNL     1      -3.094  15.640  25.411  0.00  0.00    +0.000 A 
ATOM     18  C   UNL     1      -3.849  16.724  24.973  0.00  0.00    +0.000 A 
ATOM     19  C   UNL     1      -4.440  16.691  23.714  0.00  0.00    +0.000 A 
ATOM     20  C   UNL     1      -4.275  15.574  22.891  0.00  0.00    +0.000 A 
ENDBRANCH   5  15
BRANCH   1  21
ATOM     21  C   UNL     1       0.082  12.415  21.030  0.00  0.00    +0.000 C 
BRANCH  21  26
ATOM     22  C   UNL     1      -1.225  10.340  18.098  0.00  0.00    +0.000 A 
ATOM     23  C   UNL     1      -0.091   9.586  17.769  0.00  0.00    +0.000 A 
ATOM     24  C   UNL     1       1.075   9.706  18.528  0.00  0.00    +0.000 A 
ATOM     25  C   UNL     1       1.124  10.593  19.605  0.00  0.00    +0.000 A 
ATOM     26  C   UNL     1       0.004  11.369  19.938  0.00  0.00    +0.000 A 
ATOM     27  C   UNL     1      -1.173  11.223  19.184  0.00  0.00    +0.000 A 
BRANCH  22  28
ATOM     28  C   UNL     1      -2.491  10.255  17.318  0.00  0.00    +0.000 C 
ATOM     29  O   UNL     1      -3.485   9.660  17.703  0.00  0.00    +0.000 OA
BRANCH  28  31
ATOM     30  C   UNL     1      -3.052  10.320  15.052  0.00  0.00    +0.000 C 
ATOM     31  O   UNL     1      -2.377  10.936  16.151  0.00  0.00    +0.000 OA
ENDBRANCH  28  31
ENDBRANCH  22  28
ENDBRANCH  21  26
ENDBRANCH   1  21
TORSDOF 6
ENDMDL
