MODEL 1
REMARK VINA RESULT:      -9.5      0.000      0.000
REMARK  Name = 
REMARK  2 active torsions:
REMARK  status: ('A' for Active; 'I' for Inactive)
REMARK    1  A    between atoms: C_2  and  C_14
REMARK    2  A    between atoms: C_18  and  N_19
REMARK                            x       y       z     vdW  Elec       q    Type
REMARK                         _______ _______ _______ _____ _____    ______ ____
ROOT
ATOM      1  O   UNL     1       2.144   6.136  20.280  0.00  0.00    +0.000 OA
ATOM      2  C   UNL     1       2.563   6.594  19.223  0.00  0.00    +0.000 C 
ATOM      3  N   UNL     1       2.329   7.851  18.694  0.00  0.00    +0.000 N 
ATOM      4  C   UNL     1       1.547   8.822  19.343  0.00  0.00    +0.000 A 
ATOM      5  C   UNL     1       1.096   9.916  18.616  0.00  0.00    +0.000 A 
ATOM      6  C   UNL     1       0.236  10.826  19.236  0.00  0.00    +0.000 A 
ATOM      7  C   UNL     1      -0.130  10.636  20.577  0.00  0.00    +0.000 A 
ATOM      8  C   UNL     1      -1.010  11.496  21.261  0.00  0.00    +0.000 A 
ATOM      9  C   UNL     1      -1.329  11.260  22.599  0.00  0.00    +0.000 A 
ATOM     10  C   UNL     1      -0.772  10.171  23.258  0.00  0.00    +0.000 A 
ATOM     11  C   UNL     1       0.093   9.315  22.574  0.00  0.00    +0.000 A 
ATOM     12  C   UNL     1       0.417   9.526  21.243  0.00  0.00    +0.000 A 
ATOM     13  N   UNL     1       1.231   8.657  20.637  0.00  0.00    +0.000 NA
ATOM     14  H   UNL     1       2.615   8.041  17.745  0.00  0.00    +0.000 HD
ENDROOT
BRANCH   2  15
ATOM     15  C   UNL     1       3.340   5.666  18.364  0.00  0.00    +0.000 A 
ATOM     16  C   UNL     1       3.107   4.294  18.481  0.00  0.00    +0.000 A 
ATOM     17  C   UNL     1       3.851   3.401  17.717  0.00  0.00    +0.000 A 
ATOM     18  C   UNL     1       4.803   3.881  16.812  0.00  0.00    +0.000 A 
ATOM     19  C   UNL     1       5.017   5.259  16.646  0.00  0.00    +0.000 A 
ATOM     20  C   UNL     1       4.311   6.136  17.482  0.00  0.00    +0.000 A 
BRANCH  19  21
ATOM     21  N   UNL     1       5.935   5.702  15.680  0.00  0.00    +0.000 N 
ATOM     22  C   UNL     1       6.293   5.113  14.463  0.00  0.00    +0.000 A 
ATOM     23  N   UNL     1       5.477   4.227  13.859  0.00  0.00    +0.000 NA
ATOM     24  C   UNL     1       5.895   3.655  12.722  0.00  0.00    +0.000 A 
ATOM     25  C   UNL     1       7.116   3.911  12.159  0.00  0.00    +0.000 A 
ATOM     26  C   UNL     1       7.885   4.824  12.839  0.00  0.00    +0.000 A 
ATOM     27  N   UNL     1       7.499   5.440  13.975  0.00  0.00    +0.000 NA
ATOM     28  H   UNL     1       6.721   6.240  16.017  0.00  0.00    +0.000 HD
ENDBRANCH  19  21
ENDBRANCH   2  15
TORSDOF 2
ENDMDL
MODEL 2
REMARK VINA RESULT:      -9.0      1.180      1.816
REMARK  Name = 
REMARK  2 active torsions:
REMARK  status: ('A' for Active; 'I' for Inactive)
REMARK    1  A    between atoms: C_2  and  C_14
REMARK    2  A    between atoms: C_18  and  N_19
REMARK                            x       y       z     vdW  Elec       q    Type
REMARK                         _______ _______ _______ _____ _____    ______ ____
ROOT
ATOM      1  O   UNL     1       2.174   8.306  17.806  0.00  0.00    +0.000 OA
ATOM      2  C   UNL     1       2.544   7.515  18.666  0.00  0.00    +0.000 C 
ATOM      3  N   UNL     1       2.199   7.500  20.005  0.00  0.00    +0.000 N 
ATOM      4  C   UNL     1       1.321   8.437  20.581  0.00  0.00    +0.000 A 
ATOM      5  C   UNL     1       1.282   8.556  21.964  0.00  0.00    +0.000 A 
ATOM      6  C   UNL     1       0.485   9.556  22.529  0.00  0.00    +0.000 A 
ATOM      7  C   UNL     1      -0.275  10.393  21.699  0.00  0.00    +0.000 A 
ATOM      8  C   UNL     1      -1.082  11.435  22.193  0.00  0.00    +0.000 A 
ATOM      9  C   UNL     1      -1.824  12.229  21.316  0.00  0.00    +0.000 A 
ATOM     10  C   UNL     1      -1.766  11.985  19.950  0.00  0.00    +0.000 A 
ATOM     11  C   UNL     1      -0.957  10.956  19.463  0.00  0.00    +0.000 A 
ATOM     12  C   UNL     1      -0.206  10.162  20.314  0.00  0.00    +0.000 A 
ATOM     13  N   UNL     1       0.566   9.209  19.784  0.00  0.00    +0.000 NA
ATOM     14  H   UNL     1       2.694   6.882  20.630  0.00  0.00    +0.000 HD
ENDROOT
BRANCH   2  15
ATOM     15  C   UNL     1       3.548   6.506  18.246  0.00  0.00    +0.000 A 
ATOM     16  C   UNL     1       3.606   5.293  18.934  0.00  0.00    +0.000 A 
ATOM     17  C   UNL     1       4.564   4.348  18.587  0.00  0.00    +0.000 A 
ATOM     18  C   UNL     1       5.443   4.601  17.529  0.00  0.00    +0.000 A 
ATOM     19  C   UNL     1       5.368   5.795  16.793  0.00  0.00    +0.000 A 
ATOM     20  C   UNL     1       4.446   6.764  17.212  0.00  0.00    +0.000 A 
BRANCH  19  21
ATOM     21  N   UNL     1       6.225   5.982  15.696  0.00  0.00    +0.000 N 
ATOM     22  C   UNL     1       6.352   5.219  14.532  0.00  0.00    +0.000 A 
ATOM     23  N   UNL     1       5.353   4.413  14.122  0.00  0.00    +0.000 NA
ATOM     24  C   UNL     1       5.550   3.665  13.028  0.00  0.00    +0.000 A 
ATOM     25  C   UNL     1       6.724   3.664  12.323  0.00  0.00    +0.000 A 
ATOM     26  C   UNL     1       7.690   4.511  12.810  0.00  0.00    +0.000 A 
ATOM     27  N   UNL     1       7.529   5.297  13.893  0.00  0.00    +0.000 NA
ATOM     28  H   UNL     1       7.114   6.422  15.888  0.00  0.00    +0.000 HD
ENDBRANCH  19  21
ENDBRANCH   2  15
TORSDOF 2
ENDMDL
MODEL 3
REMARK VINA RESULT:      -9.0      5.620      7.808
REMARK  Name = 
REMARK  2 active torsions:
REMARK  status: ('A' for Active; 'I' for Inactive)
REMARK    1  A    between atoms: C_2  and  C_14
REMARK    2  A    between atoms: C_18  and  N_19
REMARK                            x       y       z     vdW  Elec       q    Type
REMARK                         _______ _______ _______ _____ _____    ______ ____
ROOT
ATOM      1  O   UNL     1       8.572   7.343  19.094  0.00  0.00    +0.000 OA
ATOM      2  C   UNL     1       7.861   7.507  18.110  0.00  0.00    +0.000 C 
ATOM      3  N   UNL     1       7.633   8.683  17.418  0.00  0.00    +0.000 N 
ATOM      4  C   UNL     1       8.229   9.907  17.770  0.00  0.00    +0.000 A 
ATOM      5  C   UNL     1       7.707  11.082  17.244  0.00  0.00    +0.000 A 
ATOM      6  C   UNL     1       8.237  12.302  17.675  0.00  0.00    +0.000 A 
ATOM      7  C   UNL     1       9.292  12.317  18.598  0.00  0.00    +0.000 A 
ATOM      8  C   UNL     1       9.860  13.506  19.095  0.00  0.00    +0.000 A 
ATOM      9  C   UNL     1      10.917  13.455  20.005  0.00  0.00    +0.000 A 
ATOM     10  C   UNL     1      11.411  12.225  20.420  0.00  0.00    +0.000 A 
ATOM     11  C   UNL     1      10.839  11.048  19.932  0.00  0.00    +0.000 A 
ATOM     12  C   UNL     1       9.784  11.075  19.034  0.00  0.00    +0.000 A 
ATOM     13  N   UNL     1       9.264   9.914  18.624  0.00  0.00    +0.000 NA
ATOM     14  H   UNL     1       6.908   8.703  16.716  0.00  0.00    +0.000 HD
ENDROOT
BRANCH   2  15
ATOM     15  C   UNL     1       7.084   6.327  17.654  0.00  0.00    +0.000 A 
ATOM     16  C   UNL     1       6.983   6.082  16.283  0.00  0.00    +0.000 A 
ATOM     17  C   UNL     1       6.227   5.008  15.828  0.00  0.00    +0.000 A 
ATOM     18  C   UNL     1       5.600   4.158  16.745  0.00  0.00    +0.000 A 
ATOM     19  C   UNL     1       5.730   4.360  18.129  0.00  0.00    +0.000 A 
ATOM     20  C   UNL     1       6.432   5.494  18.561  0.00  0.00    +0.000 A 
BRANCH  19  21
ATOM     21  N   UNL     1       5.140   3.446  19.017  0.00  0.00    +0.000 N 
ATOM     22  C   UNL     1       3.827   3.400  19.497  0.00  0.00    +0.000 A 
ATOM     23  N   UNL     1       2.827   4.009  18.832  0.00  0.00    +0.000 NA
ATOM     24  C   UNL     1       1.599   3.977  19.367  0.00  0.00    +0.000 A 
ATOM     25  C   UNL     1       1.318   3.375  20.564  0.00  0.00    +0.000 A 
ATOM     26  C   UNL     1       2.395   2.780  21.177  0.00  0.00    +0.000 A 
ATOM     27  N   UNL     1       3.643   2.769  20.667  0.00  0.00    +0.000 NA
ATOM     28  H   UNL     1       5.748   3.033  19.710  0.00  0.00    +0.000 HD
ENDBRANCH  19  21
ENDBRANCH   2  15
TORSDOF 2
ENDMDL
MODEL 4
REMARK VINA RESULT:      -8.8      1.760      3.081
REMARK  Name = 
REMARK  2 active torsions:
REMARK  status: ('A' for Active; 'I' for Inactive)
REMARK    1  A    between atoms: C_2  and  C_14
REMARK    2  A    between atoms: C_18  and  N_19
REMARK                            x       y       z     vdW  Elec       q    Type
REMARK                         _______ _______ _______ _____ _____    ______ ____
ROOT
ATOM      1  O   UNL     1       2.158   8.306  19.370  0.00  0.00    +0.000 OA
ATOM      2  C   UNL     1       1.651   7.464  20.100  0.00  0.00    +0.000 C 
ATOM      3  N   UNL     1       0.752   7.669  21.132  0.00  0.00    +0.000 N 
ATOM      4  C   UNL     1       0.271   8.942  21.488  0.00  0.00    +0.000 A 
ATOM      5  C   UNL     1      -0.358   9.102  22.715  0.00  0.00    +0.000 A 
ATOM      6  C   UNL     1      -0.743  10.387  23.108  0.00  0.00    +0.000 A 
ATOM      7  C   UNL     1      -0.517  11.475  22.253  0.00  0.00    +0.000 A 
ATOM      8  C   UNL     1      -0.856  12.799  22.590  0.00  0.00    +0.000 A 
ATOM      9  C   UNL     1      -0.614  13.840  21.691  0.00  0.00    +0.000 A 
ATOM     10  C   UNL     1      -0.039  13.564  20.457  0.00  0.00    +0.000 A 
ATOM     11  C   UNL     1       0.304  12.251  20.130  0.00  0.00    +0.000 A 
ATOM     12  C   UNL     1       0.081  11.204  21.011  0.00  0.00    +0.000 A 
ATOM     13  N   UNL     1       0.455   9.974  20.648  0.00  0.00    +0.000 NA
ATOM     14  H   UNL     1       0.531   6.900  21.747  0.00  0.00    +0.000 HD
ENDROOT
BRANCH   2  15
ATOM     15  C   UNL     1       2.117   6.066  19.918  0.00  0.00    +0.000 A 
ATOM     16  C   UNL     1       1.936   5.159  20.965  0.00  0.00    +0.000 A 
ATOM     17  C   UNL     1       2.401   3.855  20.834  0.00  0.00    +0.000 A 
ATOM     18  C   UNL     1       3.016   3.449  19.647  0.00  0.00    +0.000 A 
ATOM     19  C   UNL     1       3.163   4.333  18.565  0.00  0.00    +0.000 A 
ATOM     20  C   UNL     1       2.757   5.662  18.748  0.00  0.00    +0.000 A 
BRANCH  19  21
ATOM     21  N   UNL     1       3.726   3.867  17.366  0.00  0.00    +0.000 N 
ATOM     22  C   UNL     1       4.987   4.126  16.820  0.00  0.00    +0.000 A 
ATOM     23  N   UNL     1       6.003   4.545  17.598  0.00  0.00    +0.000 NA
ATOM     24  C   UNL     1       7.175   4.828  17.013  0.00  0.00    +0.000 A 
ATOM     25  C   UNL     1       7.379   4.734  15.663  0.00  0.00    +0.000 A 
ATOM     26  C   UNL     1       6.292   4.303  14.943  0.00  0.00    +0.000 A 
ATOM     27  N   UNL     1       5.101   3.986  15.490  0.00  0.00    +0.000 NA
ATOM     28  H   UNL     1       3.083   3.678  16.609  0.00  0.00    +0.000 HD
ENDBRANCH  19  21
ENDBRANCH   2  15
TORSDOF 2
ENDMDL
MODEL 5
REMARK VINA RESULT:      -8.7      1.852      2.979
REMARK  Name = 
REMARK  2 active torsions:
REMARK  status: ('A' for Active; 'I' for Inactive)
REMARK    1  A    between atoms: C_2  and  C_14
REMARK    2  A    between atoms: C_18  and  N_19
REMARK                            x       y       z     vdW  Elec       q    Type
REMARK                         _______ _______ _______ _____ _____    ______ ____
ROOT
ATOM      1  O   UNL     1       1.821   8.478  19.236  0.00  0.00    +0.000 OA
ATOM      2  C   UNL     1       1.594   7.666  20.125  0.00  0.00    +0.000 C 
ATOM      3  N   UNL     1       0.834   7.852  21.266  0.00  0.00    +0.000 N 
ATOM      4  C   UNL     1       0.179   9.061  21.562  0.00  0.00    +0.000 A 
ATOM      5  C   UNL     1      -0.282   9.275  22.855  0.00  0.00    +0.000 A 
ATOM      6  C   UNL     1      -0.840  10.516  23.170  0.00  0.00    +0.000 A 
ATOM      7  C   UNL     1      -0.951  11.504  22.180  0.00  0.00    +0.000 A 
ATOM      8  C   UNL     1      -1.480  12.784  22.429  0.00  0.00    +0.000 A 
ATOM      9  C   UNL     1      -1.573  13.721  21.398  0.00  0.00    +0.000 A 
ATOM     10  C   UNL     1      -1.143  13.385  20.121  0.00  0.00    +0.000 A 
ATOM     11  C   UNL     1      -0.611  12.117  19.880  0.00  0.00    +0.000 A 
ATOM     12  C   UNL     1      -0.501  11.174  20.890  0.00  0.00    +0.000 A 
ATOM     13  N   UNL     1       0.041   9.988  20.601  0.00  0.00    +0.000 NA
ATOM     14  H   UNL     1       0.854   7.145  21.986  0.00  0.00    +0.000 HD
ENDROOT
BRANCH   2  15
ATOM     15  C   UNL     1       2.283   6.356  20.015  0.00  0.00    +0.000 A 
ATOM     16  C   UNL     1       1.641   5.218  20.507  0.00  0.00    +0.000 A 
ATOM     17  C   UNL     1       2.283   3.986  20.452  0.00  0.00    +0.000 A 
ATOM     18  C   UNL     1       3.552   3.885  19.875  0.00  0.00    +0.000 A 
ATOM     19  C   UNL     1       4.194   5.010  19.330  0.00  0.00    +0.000 A 
ATOM     20  C   UNL     1       3.561   6.254  19.467  0.00  0.00    +0.000 A 
BRANCH  19  21
ATOM     21  N   UNL     1       5.439   4.855  18.700  0.00  0.00    +0.000 N 
ATOM     22  C   UNL     1       5.765   4.965  17.345  0.00  0.00    +0.000 A 
ATOM     23  N   UNL     1       4.976   5.655  16.498  0.00  0.00    +0.000 NA
ATOM     24  C   UNL     1       5.310   5.683  15.201  0.00  0.00    +0.000 A 
ATOM     25  C   UNL     1       6.399   5.028  14.694  0.00  0.00    +0.000 A 
ATOM     26  C   UNL     1       7.148   4.347  15.623  0.00  0.00    +0.000 A 
ATOM     27  N   UNL     1       6.863   4.308  16.940  0.00  0.00    +0.000 NA
ATOM     28  H   UNL     1       6.086   4.211  19.132  0.00  0.00    +0.000 HD
ENDBRANCH  19  21
ENDBRANCH   2  15
TORSDOF 2
ENDMDL
MODEL 6
REMARK VINA RESULT:      -8.6      3.399      9.583
REMARK  Name = 
REMARK  2 active torsions:
REMARK  status: ('A' for Active; 'I' for Inactive)
REMARK    1  A    between atoms: C_2  and  C_14
REMARK    2  A    between atoms: C_18  and  N_19
REMARK                            x       y       z     vdW  Elec       q    Type
REMARK                         _______ _______ _______ _____ _____    ______ ____
ROOT
ATOM      1  O   UNL     1       2.149   9.605  17.451  0.00  0.00    +0.000 OA
ATOM      2  C   UNL     1       1.712   9.291  18.551  0.00  0.00    +0.000 C 
ATOM      3  N   UNL     1       1.905   8.102  19.231  0.00  0.00    +0.000 N 
ATOM      4  C   UNL     1       2.681   7.045  18.721  0.00  0.00    +0.000 A 
ATOM      5  C   UNL     1       2.562   5.788  19.298  0.00  0.00    +0.000 A 
ATOM      6  C   UNL     1       3.257   4.719  18.725  0.00  0.00    +0.000 A 
ATOM      7  C   UNL     1       4.076   4.939  17.607  0.00  0.00    +0.000 A 
ATOM      8  C   UNL     1       4.787   3.909  16.963  0.00  0.00    +0.000 A 
ATOM      9  C   UNL     1       5.595   4.193  15.861  0.00  0.00    +0.000 A 
ATOM     10  C   UNL     1       5.698   5.499  15.401  0.00  0.00    +0.000 A 
ATOM     11  C   UNL     1       4.984   6.516  16.037  0.00  0.00    +0.000 A 
ATOM     12  C   UNL     1       4.170   6.256  17.128  0.00  0.00    +0.000 A 
ATOM     13  N   UNL     1       3.494   7.269  17.677  0.00  0.00    +0.000 NA
ATOM     14  H   UNL     1       1.364   7.922  20.064  0.00  0.00    +0.000 HD
ENDROOT
BRANCH   2  15
ATOM     15  C   UNL     1       0.796  10.264  19.198  0.00  0.00    +0.000 A 
ATOM     16  C   UNL     1       0.219   9.926  20.424  0.00  0.00    +0.000 A 
ATOM     17  C   UNL     1      -0.674  10.802  21.031  0.00  0.00    +0.000 A 
ATOM     18  C   UNL     1      -0.966  12.029  20.429  0.00  0.00    +0.000 A 
ATOM     19  C   UNL     1      -0.358  12.407  19.219  0.00  0.00    +0.000 A 
ATOM     20  C   UNL     1       0.478  11.476  18.589  0.00  0.00    +0.000 A 
BRANCH  19  21
ATOM     21  N   UNL     1      -0.627  13.677  18.682  0.00  0.00    +0.000 N 
ATOM     22  C   UNL     1       0.151  14.838  18.721  0.00  0.00    +0.000 A 
ATOM     23  N   UNL     1       1.479  14.772  18.936  0.00  0.00    +0.000 NA
ATOM     24  C   UNL     1       2.166  15.919  19.016  0.00  0.00    +0.000 A 
ATOM     25  C   UNL     1       1.580  17.152  18.911  0.00  0.00    +0.000 A 
ATOM     26  C   UNL     1       0.224  17.129  18.695  0.00  0.00    +0.000 A 
ATOM     27  N   UNL     1      -0.505  16.000  18.587  0.00  0.00    +0.000 NA
ATOM     28  H   UNL     1      -1.599  13.946  18.625  0.00  0.00    +0.000 HD
ENDBRANCH  19  21
ENDBRANCH   2  15
TORSDOF 2
ENDMDL
MODEL 7
REMARK VINA RESULT:      -8.6      2.922      9.796
REMARK  Name = 
REMARK  2 active torsions:
REMARK  status: ('A' for Active; 'I' for Inactive)
REMARK    1  A    between atoms: C_2  and  C_14
REMARK    2  A    between atoms: C_18  and  N_19
REMARK                            x       y       z     vdW  Elec       q    Type
REMARK                         _______ _______ _______ _____ _____    ______ ____
ROOT
ATOM      1  O   UNL     1       1.681   8.973  19.265  0.00  0.00    +0.000 OA
ATOM      2  C   UNL     1       1.338   8.586  20.375  0.00  0.00    +0.000 C 
ATOM      3  N   UNL     1       1.512   7.328  20.923  0.00  0.00    +0.000 N 
ATOM      4  C   UNL     1       2.152   6.277  20.242  0.00  0.00    +0.000 A 
ATOM      5  C   UNL     1       2.001   4.980  20.716  0.00  0.00    +0.000 A 
ATOM      6  C   UNL     1       2.553   3.929  19.979  0.00  0.00    +0.000 A 
ATOM      7  C   UNL     1       3.267   4.201  18.803  0.00  0.00    +0.000 A 
ATOM      8  C   UNL     1       3.831   3.193  17.998  0.00  0.00    +0.000 A 
ATOM      9  C   UNL     1       4.540   3.528  16.843  0.00  0.00    +0.000 A 
ATOM     10  C   UNL     1       4.691   4.863  16.490  0.00  0.00    +0.000 A 
ATOM     11  C   UNL     1       4.123   5.859  17.287  0.00  0.00    +0.000 A 
ATOM     12  C   UNL     1       3.408   5.549  18.433  0.00  0.00    +0.000 A 
ATOM     13  N   UNL     1       2.867   6.546  19.138  0.00  0.00    +0.000 NA
ATOM     14  H   UNL     1       1.048   7.104  21.791  0.00  0.00    +0.000 HD
ENDROOT
BRANCH   2  15
ATOM     15  C   UNL     1       0.566   9.549  21.200  0.00  0.00    +0.000 A 
ATOM     16  C   UNL     1       0.027   9.110  22.411  0.00  0.00    +0.000 A 
ATOM     17  C   UNL     1      -0.735   9.981  23.183  0.00  0.00    +0.000 A 
ATOM     18  C   UNL     1      -0.929  11.299  22.761  0.00  0.00    +0.000 A 
ATOM     19  C   UNL     1      -0.354  11.773  21.570  0.00  0.00    +0.000 A 
ATOM     20  C   UNL     1       0.344  10.856  20.771  0.00  0.00    +0.000 A 
BRANCH  19  21
ATOM     21  N   UNL     1      -0.517  13.122  21.215  0.00  0.00    +0.000 N 
ATOM     22  C   UNL     1       0.342  14.204  21.430  0.00  0.00    +0.000 A 
ATOM     23  N   UNL     1       1.656  14.009  21.652  0.00  0.00    +0.000 NA
ATOM     24  C   UNL     1       2.422  15.079  21.904  0.00  0.00    +0.000 A 
ATOM     25  C   UNL     1       1.928  16.355  21.968  0.00  0.00    +0.000 A 
ATOM     26  C   UNL     1       0.580  16.464  21.732  0.00  0.00    +0.000 A 
ATOM     27  N   UNL     1      -0.226  15.420  21.454  0.00  0.00    +0.000 NA
ATOM     28  H   UNL     1      -1.466  13.468  21.184  0.00  0.00    +0.000 HD
ENDBRANCH  19  21
ENDBRANCH   2  15
TORSDOF 2
ENDMDL
MODEL 8
REMARK VINA RESULT:      -8.6      2.696     10.346
REMARK  Name = 
REMARK  2 active torsions:
REMARK  status: ('A' for Active; 'I' for Inactive)
REMARK    1  A    between atoms: C_2  and  C_14
REMARK    2  A    between atoms: C_18  and  N_19
REMARK                            x       y       z     vdW  Elec       q    Type
REMARK                         _______ _______ _______ _____ _____    ______ ____
ROOT
ATOM      1  O   UNL     1       1.847   9.061  19.037  0.00  0.00    +0.000 OA
ATOM      2  C   UNL     1       1.553   8.510  20.091  0.00  0.00    +0.000 C 
ATOM      3  N   UNL     1       1.853   7.217  20.483  0.00  0.00    +0.000 N 
ATOM      4  C   UNL     1       2.583   6.323  19.679  0.00  0.00    +0.000 A 
ATOM      5  C   UNL     1       2.562   4.971  19.992  0.00  0.00    +0.000 A 
ATOM      6  C   UNL     1       3.205   4.074  19.133  0.00  0.00    +0.000 A 
ATOM      7  C   UNL     1       3.878   4.554  18.000  0.00  0.00    +0.000 A 
ATOM      8  C   UNL     1       4.528   3.711  17.079  0.00  0.00    +0.000 A 
ATOM      9  C   UNL     1       5.190   4.251  15.975  0.00  0.00    +0.000 A 
ATOM     10  C   UNL     1       5.208   5.627  15.788  0.00  0.00    +0.000 A 
ATOM     11  C   UNL     1       4.555   6.459  16.699  0.00  0.00    +0.000 A 
ATOM     12  C   UNL     1       3.885   5.945  17.797  0.00  0.00    +0.000 A 
ATOM     13  N   UNL     1       3.259   6.793  18.618  0.00  0.00    +0.000 NA
ATOM     14  H   UNL     1       1.420   6.847  21.316  0.00  0.00    +0.000 HD
ENDROOT
BRANCH   2  15
ATOM     15  C   UNL     1       0.701   9.287  21.026  0.00  0.00    +0.000 A 
ATOM     16  C   UNL     1       0.709   8.945  22.380  0.00  0.00    +0.000 A 
ATOM     17  C   UNL     1      -0.111   9.631  23.269  0.00  0.00    +0.000 A 
ATOM     18  C   UNL     1      -0.914  10.680  22.811  0.00  0.00    +0.000 A 
ATOM     19  C   UNL     1      -0.899  11.070  21.462  0.00  0.00    +0.000 A 
ATOM     20  C   UNL     1      -0.124  10.314  20.572  0.00  0.00    +0.000 A 
BRANCH  19  21
ATOM     21  N   UNL     1      -1.670  12.171  21.055  0.00  0.00    +0.000 N 
ATOM     22  C   UNL     1      -2.891  12.631  21.557  0.00  0.00    +0.000 A 
ATOM     23  N   UNL     1      -3.295  12.302  22.800  0.00  0.00    +0.000 NA
ATOM     24  C   UNL     1      -4.498  12.726  23.209  0.00  0.00    +0.000 A 
ATOM     25  C   UNL     1      -5.342  13.459  22.418  0.00  0.00    +0.000 A 
ATOM     26  C   UNL     1      -4.855  13.749  21.167  0.00  0.00    +0.000 A 
ATOM     27  N   UNL     1      -3.644  13.360  20.720  0.00  0.00    +0.000 NA
ATOM     28  H   UNL     1      -1.608  12.430  20.081  0.00  0.00    +0.000 HD
ENDBRANCH  19  21
ENDBRANCH   2  15
TORSDOF 2
ENDMDL
MODEL 9
REMARK VINA RESULT:      -8.6      3.213      9.596
REMARK  Name = 
REMARK  2 active torsions:
REMARK  status: ('A' for Active; 'I' for Inactive)
REMARK    1  A    between atoms: C_2  and  C_14
REMARK    2  A    between atoms: C_18  and  N_19
REMARK                            x       y       z     vdW  Elec       q    Type
REMARK                         _______ _______ _______ _____ _____    ______ ____
ROOT
ATOM      1  O   UNL     1       2.010   8.999  17.336  0.00  0.00    +0.000 OA
ATOM      2  C   UNL     1       1.627   9.218  18.479  0.00  0.00    +0.000 C 
ATOM      3  N   UNL     1       1.660   8.356  19.561  0.00  0.00    +0.000 N 
ATOM      4  C   UNL     1       2.176   7.050  19.486  0.00  0.00    +0.000 A 
ATOM      5  C   UNL     1       1.881   6.153  20.504  0.00  0.00    +0.000 A 
ATOM      6  C   UNL     1       2.310   4.829  20.375  0.00  0.00    +0.000 A 
ATOM      7  C   UNL     1       3.048   4.441  19.247  0.00  0.00    +0.000 A 
ATOM      8  C   UNL     1       3.493   3.122  19.038  0.00  0.00    +0.000 A 
ATOM      9  C   UNL     1       4.233   2.800  17.899  0.00  0.00    +0.000 A 
ATOM     10  C   UNL     1       4.532   3.788  16.970  0.00  0.00    +0.000 A 
ATOM     11  C   UNL     1       4.081   5.093  17.176  0.00  0.00    +0.000 A 
ATOM     12  C   UNL     1       3.338   5.433  18.296  0.00  0.00    +0.000 A 
ATOM     13  N   UNL     1       2.915   6.694  18.423  0.00  0.00    +0.000 NA
ATOM     14  H   UNL     1       1.175   8.617  20.408  0.00  0.00    +0.000 HD
ENDROOT
BRANCH   2  15
ATOM     15  C   UNL     1       0.970  10.528  18.716  0.00  0.00    +0.000 A 
ATOM     16  C   UNL     1       1.703  11.694  18.490  0.00  0.00    +0.000 A 
ATOM     17  C   UNL     1       1.124  12.933  18.743  0.00  0.00    +0.000 A 
ATOM     18  C   UNL     1      -0.198  13.006  19.190  0.00  0.00    +0.000 A 
ATOM     19  C   UNL     1      -0.968  11.845  19.377  0.00  0.00    +0.000 A 
ATOM     20  C   UNL     1      -0.338  10.607  19.189  0.00  0.00    +0.000 A 
BRANCH  19  21
ATOM     21  N   UNL     1      -2.313  11.966  19.762  0.00  0.00    +0.000 N 
ATOM     22  C   UNL     1      -3.465  11.964  18.970  0.00  0.00    +0.000 A 
ATOM     23  N   UNL     1      -3.453  11.423  17.736  0.00  0.00    +0.000 NA
ATOM     24  C   UNL     1      -4.571  11.497  17.001  0.00  0.00    +0.000 A 
ATOM     25  C   UNL     1      -5.713  12.113  17.435  0.00  0.00    +0.000 A 
ATOM     26  C   UNL     1      -5.639  12.639  18.702  0.00  0.00    +0.000 A 
ATOM     27  N   UNL     1      -4.544  12.571  19.485  0.00  0.00    +0.000 NA
ATOM     28  H   UNL     1      -2.497  12.512  20.592  0.00  0.00    +0.000 HD
ENDBRANCH  19  21
ENDBRANCH   2  15
TORSDOF 2
ENDMDL
