MODEL 1
REMARK VINA RESULT:      -8.6      0.000      0.000
REMARK  Name = 
REMARK  6 active torsions:
REMARK  status: ('A' for Active; 'I' for Inactive)
REMARK    1  A    between atoms: C_1  and  C_2
REMARK    2  A    between atoms: N_12  and  C_13
REMARK    3  A    between atoms: C_16  and  C_17
REMARK    4  A    between atoms: N_19  and  C_20
REMARK    5  A    between atoms: N_24  and  C_25
REMARK    6  A    between atoms: N_24  and  C_26
REMARK                            x       y       z     vdW  Elec       q    Type
REMARK                         _______ _______ _______ _____ _____    ______ ____
ROOT
ATOM      1  C   UNL     1       1.817   7.862  19.851  0.00  0.00    +0.000 A 
ATOM      2  C   UNL     1       1.874   7.779  21.246  0.00  0.00    +0.000 A 
ATOM      3  C   UNL     1       1.185   8.703  22.029  0.00  0.00    +0.000 A 
ATOM      4  C   UNL     1       0.407   9.700  21.426  0.00  0.00    +0.000 A 
ATOM      5  C   UNL     1       0.351   9.799  20.034  0.00  0.00    +0.000 A 
ATOM      6  C   UNL     1       1.062   8.881  19.249  0.00  0.00    +0.000 A 
ENDROOT
BRANCH   1  18
ATOM      7  C   UNL     1       1.374   5.056  20.420  0.00  0.00    +0.000 C 
ATOM      8  C   UNL     1       2.316   5.510  19.325  0.00  0.00    +0.000 A 
ATOM      9  N   UNL     1       2.919   4.581  18.649  0.00  0.00    +0.000 NA
ATOM     10  C   UNL     1       3.776   4.949  17.611  0.00  0.00    +0.000 A 
ATOM     11  C   UNL     1       4.461   3.955  16.912  0.00  0.00    +0.000 A 
ATOM     12  C   UNL     1       5.366   4.288  15.900  0.00  0.00    +0.000 A 
ATOM     13  C   UNL     1       5.587   5.626  15.572  0.00  0.00    +0.000 A 
ATOM     14  C   UNL     1       4.891   6.627  16.243  0.00  0.00    +0.000 A 
ATOM     15  C   UNL     1       3.989   6.280  17.256  0.00  0.00    +0.000 A 
ATOM     16  C   UNL     1       3.247   7.313  17.995  0.00  0.00    +0.000 A 
ATOM     17  O   UNL     1       3.389   8.489  17.659  0.00  0.00    +0.000 OA
ATOM     18  N   UNL     1       2.460   6.864  19.064  0.00  0.00    +0.000 N 
ENDBRANCH   1  18
BRANCH   4  19
ATOM     19  C   UNL     1      -0.298  10.638  22.332  0.00  0.00    +0.000 C 
ATOM     20  O   UNL     1      -0.221  10.406  23.533  0.00  0.00    +0.000 OA
ATOM     21  N   UNL     1      -1.049  11.640  21.734  0.00  0.00    +0.000 N 
ATOM     22  H   UNL     1      -1.166  11.608  20.728  0.00  0.00    +0.000 HD
BRANCH  21  23
ATOM     23  C   UNL     1      -1.895  12.527  22.446  0.00  0.00    +0.000 A 
ATOM     24  C   UNL     1      -3.277  12.445  22.420  0.00  0.00    +0.000 A 
ATOM     25  C   UNL     1      -4.055  13.412  23.060  0.00  0.00    +0.000 A 
ATOM     26  C   UNL     1      -3.464  14.482  23.727  0.00  0.00    +0.000 A 
ATOM     27  N   UNL     1      -4.229  15.455  24.361  0.00  0.00    +0.000 N 
ATOM     28  C   UNL     1      -3.518  16.569  24.982  0.00  0.00    +0.000 C 
ATOM     29  C   UNL     1      -5.574  15.787  23.896  0.00  0.00    +0.000 C 
ATOM     30  N   UNL     1      -2.113  14.525  23.821  0.00  0.00    +0.000 NA
ATOM     31  C   UNL     1      -1.370  13.565  23.202  0.00  0.00    +0.000 A 
ENDBRANCH  21  23
ENDBRANCH   4  19
TORSDOF 3
ENDMDL
MODEL 2
REMARK VINA RESULT:      -8.5      8.120      9.626
REMARK  Name = 
REMARK  6 active torsions:
REMARK  status: ('A' for Active; 'I' for Inactive)
REMARK    1  A    between atoms: C_1  and  C_2
REMARK    2  A    between atoms: N_12  and  C_13
REMARK    3  A    between atoms: C_16  and  C_17
REMARK    4  A    between atoms: N_19  and  C_20
REMARK    5  A    between atoms: N_24  and  C_25
REMARK    6  A    between atoms: N_24  and  C_26
REMARK                            x       y       z     vdW  Elec       q    Type
REMARK                         _______ _______ _______ _____ _____    ______ ____
ROOT
ATOM      1  C   UNL     1       6.426   6.418  17.778  0.00  0.00    +0.000 A 
ATOM      2  C   UNL     1       7.589   6.373  18.554  0.00  0.00    +0.000 A 
ATOM      3  C   UNL     1       8.374   7.514  18.701  0.00  0.00    +0.000 A 
ATOM      4  C   UNL     1       7.989   8.720  18.101  0.00  0.00    +0.000 A 
ATOM      5  C   UNL     1       6.836   8.775  17.316  0.00  0.00    +0.000 A 
ATOM      6  C   UNL     1       6.058   7.619  17.152  0.00  0.00    +0.000 A 
ENDROOT
BRANCH   1  18
ATOM      7  C   UNL     1       6.628   4.629  15.509  0.00  0.00    +0.000 C 
ATOM      8  C   UNL     1       5.618   4.405  16.615  0.00  0.00    +0.000 A 
ATOM      9  N   UNL     1       4.844   3.371  16.501  0.00  0.00    +0.000 NA
ATOM     10  C   UNL     1       3.916   3.106  17.509  0.00  0.00    +0.000 A 
ATOM     11  C   UNL     1       3.050   2.021  17.367  0.00  0.00    +0.000 A 
ATOM     12  C   UNL     1       2.074   1.756  18.332  0.00  0.00    +0.000 A 
ATOM     13  C   UNL     1       1.962   2.574  19.457  0.00  0.00    +0.000 A 
ATOM     14  C   UNL     1       2.835   3.644  19.623  0.00  0.00    +0.000 A 
ATOM     15  C   UNL     1       3.807   3.900  18.649  0.00  0.00    +0.000 A 
ATOM     16  C   UNL     1       4.738   5.032  18.786  0.00  0.00    +0.000 A 
ATOM     17  O   UNL     1       4.684   5.711  19.812  0.00  0.00    +0.000 OA
ATOM     18  N   UNL     1       5.592   5.267  17.701  0.00  0.00    +0.000 N 
ENDBRANCH   1  18
BRANCH   4  19
ATOM     19  C   UNL     1       8.878   9.888  18.314  0.00  0.00    +0.000 C 
ATOM     20  O   UNL     1       9.755   9.764  19.161  0.00  0.00    +0.000 OA
ATOM     21  N   UNL     1       8.581  11.038  17.598  0.00  0.00    +0.000 N 
ATOM     22  H   UNL     1       7.719  11.056  17.065  0.00  0.00    +0.000 HD
BRANCH  21  23
ATOM     23  C   UNL     1       9.237  12.280  17.789  0.00  0.00    +0.000 A 
ATOM     24  C   UNL     1      10.615  12.422  17.776  0.00  0.00    +0.000 A 
ATOM     25  C   UNL     1      11.201  13.654  18.072  0.00  0.00    +0.000 A 
ATOM     26  C   UNL     1      10.421  14.761  18.397  0.00  0.00    +0.000 A 
ATOM     27  N   UNL     1      10.994  15.991  18.702  0.00  0.00    +0.000 N 
ATOM     28  C   UNL     1      10.094  17.074  19.087  0.00  0.00    +0.000 C 
ATOM     29  C   UNL     1      12.329  16.082  19.289  0.00  0.00    +0.000 C 
ATOM     30  N   UNL     1       9.072  14.647  18.337  0.00  0.00    +0.000 NA
ATOM     31  C   UNL     1       8.517  13.440  18.031  0.00  0.00    +0.000 A 
ENDBRANCH  21  23
ENDBRANCH   4  19
TORSDOF 3
ENDMDL
MODEL 3
REMARK VINA RESULT:      -8.4      1.678     11.236
REMARK  Name = 
REMARK  6 active torsions:
REMARK  status: ('A' for Active; 'I' for Inactive)
REMARK    1  A    between atoms: C_1  and  C_2
REMARK    2  A    between atoms: N_12  and  C_13
REMARK    3  A    between atoms: C_16  and  C_17
REMARK    4  A    between atoms: N_19  and  C_20
REMARK    5  A    between atoms: N_24  and  C_25
REMARK    6  A    between atoms: N_24  and  C_26
REMARK                            x       y       z     vdW  Elec       q    Type
REMARK                         _______ _______ _______ _____ _____    ______ ____
ROOT
ATOM      1  C   UNL     1      -1.822  12.636  22.609  0.00  0.00    +0.000 A 
ATOM      2  C   UNL     1      -1.779  11.437  23.328  0.00  0.00    +0.000 A 
ATOM      3  C   UNL     1      -0.876  10.440  22.969  0.00  0.00    +0.000 A 
ATOM      4  C   UNL     1       0.016  10.641  21.907  0.00  0.00    +0.000 A 
ATOM      5  C   UNL     1      -0.024  11.830  21.176  0.00  0.00    +0.000 A 
ATOM      6  C   UNL     1      -0.948  12.825  21.526  0.00  0.00    +0.000 A 
ENDROOT
BRANCH   1  18
ATOM      7  C   UNL     1      -4.572  12.688  21.702  0.00  0.00    +0.000 C 
ATOM      8  C   UNL     1      -4.005  13.772  22.594  0.00  0.00    +0.000 A 
ATOM      9  N   UNL     1      -4.810  14.730  22.937  0.00  0.00    +0.000 NA
ATOM     10  C   UNL     1      -4.342  15.737  23.781  0.00  0.00    +0.000 A 
ATOM     11  C   UNL     1      -5.191  16.793  24.115  0.00  0.00    +0.000 A 
ATOM     12  C   UNL     1      -4.740  17.846  24.916  0.00  0.00    +0.000 A 
ATOM     13  C   UNL     1      -3.431  17.846  25.401  0.00  0.00    +0.000 A 
ATOM     14  C   UNL     1      -2.582  16.786  25.097  0.00  0.00    +0.000 A 
ATOM     15  C   UNL     1      -3.045  15.739  24.292  0.00  0.00    +0.000 A 
ATOM     16  C   UNL     1      -2.169  14.610  23.940  0.00  0.00    +0.000 A 
ATOM     17  O   UNL     1      -1.038  14.575  24.424  0.00  0.00    +0.000 OA
ATOM     18  N   UNL     1      -2.694  13.677  23.036  0.00  0.00    +0.000 N 
ENDBRANCH   1  18
BRANCH   4  19
ATOM     19  C   UNL     1       0.949   9.532  21.596  0.00  0.00    +0.000 C 
ATOM     20  O   UNL     1       1.830   9.307  22.417  0.00  0.00    +0.000 OA
ATOM     21  N   UNL     1       0.791   8.909  20.367  0.00  0.00    +0.000 N 
ATOM     22  H   UNL     1       0.133   9.314  19.711  0.00  0.00    +0.000 HD
BRANCH  21  23
ATOM     23  C   UNL     1       1.682   7.933  19.854  0.00  0.00    +0.000 A 
ATOM     24  C   UNL     1       2.371   8.084  18.661  0.00  0.00    +0.000 A 
ATOM     25  C   UNL     1       3.153   7.041  18.161  0.00  0.00    +0.000 A 
ATOM     26  C   UNL     1       3.253   5.829  18.839  0.00  0.00    +0.000 A 
ATOM     27  N   UNL     1       4.023   4.781  18.345  0.00  0.00    +0.000 N 
ATOM     28  C   UNL     1       4.015   3.530  19.098  0.00  0.00    +0.000 C 
ATOM     29  C   UNL     1       4.255   4.618  16.912  0.00  0.00    +0.000 C 
ATOM     30  N   UNL     1       2.643   5.703  20.042  0.00  0.00    +0.000 NA
ATOM     31  C   UNL     1       1.895   6.736  20.522  0.00  0.00    +0.000 A 
ENDBRANCH  21  23
ENDBRANCH   4  19
TORSDOF 3
ENDMDL
MODEL 4
REMARK VINA RESULT:      -8.4      0.676      1.160
REMARK  Name = 
REMARK  6 active torsions:
REMARK  status: ('A' for Active; 'I' for Inactive)
REMARK    1  A    between atoms: C_1  and  C_2
REMARK    2  A    between atoms: N_12  and  C_13
REMARK    3  A    between atoms: C_16  and  C_17
REMARK    4  A    between atoms: N_19  and  C_20
REMARK    5  A    between atoms: N_24  and  C_25
REMARK    6  A    between atoms: N_24  and  C_26
REMARK                            x       y       z     vdW  Elec       q    Type
REMARK                         _______ _______ _______ _____ _____    ______ ____
ROOT
ATOM      1  C   UNL     1       1.855   7.873  19.745  0.00  0.00    +0.000 A 
ATOM      2  C   UNL     1       1.811   7.861  21.143  0.00  0.00    +0.000 A 
ATOM      3  C   UNL     1       1.125   8.861  21.828  0.00  0.00    +0.000 A 
ATOM      4  C   UNL     1       0.451   9.867  21.124  0.00  0.00    +0.000 A 
ATOM      5  C   UNL     1       0.497   9.896  19.728  0.00  0.00    +0.000 A 
ATOM      6  C   UNL     1       1.205   8.899  19.041  0.00  0.00    +0.000 A 
ENDROOT
BRANCH   1  18
ATOM      7  C   UNL     1       1.334   5.133  20.527  0.00  0.00    +0.000 C 
ATOM      8  C   UNL     1       2.311   5.476  19.422  0.00  0.00    +0.000 A 
ATOM      9  N   UNL     1       2.906   4.483  18.836  0.00  0.00    +0.000 NA
ATOM     10  C   UNL     1       3.793   4.747  17.792  0.00  0.00    +0.000 A 
ATOM     11  C   UNL     1       4.470   3.685  17.191  0.00  0.00    +0.000 A 
ATOM     12  C   UNL     1       5.404   3.915  16.177  0.00  0.00    +0.000 A 
ATOM     13  C   UNL     1       5.663   5.218  15.748  0.00  0.00    +0.000 A 
ATOM     14  C   UNL     1       4.976   6.284  16.320  0.00  0.00    +0.000 A 
ATOM     15  C   UNL     1       4.045   6.040  17.336  0.00  0.00    +0.000 A 
ATOM     16  C   UNL     1       3.312   7.145  17.973  0.00  0.00    +0.000 A 
ATOM     17  O   UNL     1       3.489   8.287  17.547  0.00  0.00    +0.000 OA
ATOM     18  N   UNL     1       2.492   6.802  19.056  0.00  0.00    +0.000 N 
ENDBRANCH   1  18
BRANCH   4  19
ATOM     19  C   UNL     1      -0.259  10.889  21.930  0.00  0.00    +0.000 C 
ATOM     20  O   UNL     1      -0.317  10.693  23.138  0.00  0.00    +0.000 OA
ATOM     21  N   UNL     1      -0.864  11.925  21.234  0.00  0.00    +0.000 N 
ATOM     22  H   UNL     1      -0.887  11.867  20.222  0.00  0.00    +0.000 HD
BRANCH  21  23
ATOM     23  C   UNL     1      -1.699  12.900  21.834  0.00  0.00    +0.000 A 
ATOM     24  C   UNL     1      -1.212  14.008  22.509  0.00  0.00    +0.000 A 
ATOM     25  C   UNL     1      -2.086  14.875  23.166  0.00  0.00    +0.000 A 
ATOM     26  C   UNL     1      -3.460  14.646  23.169  0.00  0.00    +0.000 A 
ATOM     27  N   UNL     1      -4.338  15.499  23.827  0.00  0.00    +0.000 N 
ATOM     28  C   UNL     1      -5.754  15.140  23.822  0.00  0.00    +0.000 C 
ATOM     29  C   UNL     1      -3.919  16.267  24.997  0.00  0.00    +0.000 C 
ATOM     30  N   UNL     1      -3.947  13.607  22.448  0.00  0.00    +0.000 NA
ATOM     31  C   UNL     1      -3.080  12.779  21.800  0.00  0.00    +0.000 A 
ENDBRANCH  21  23
ENDBRANCH   4  19
TORSDOF 3
ENDMDL
MODEL 5
REMARK VINA RESULT:      -8.3      1.337      1.898
REMARK  Name = 
REMARK  6 active torsions:
REMARK  status: ('A' for Active; 'I' for Inactive)
REMARK    1  A    between atoms: C_1  and  C_2
REMARK    2  A    between atoms: N_12  and  C_13
REMARK    3  A    between atoms: C_16  and  C_17
REMARK    4  A    between atoms: N_19  and  C_20
REMARK    5  A    between atoms: N_24  and  C_25
REMARK    6  A    between atoms: N_24  and  C_26
REMARK                            x       y       z     vdW  Elec       q    Type
REMARK                         _______ _______ _______ _____ _____    ______ ____
ROOT
ATOM      1  C   UNL     1       2.507   7.198  18.729  0.00  0.00    +0.000 A 
ATOM      2  C   UNL     1       2.258   6.943  20.081  0.00  0.00    +0.000 A 
ATOM      3  C   UNL     1       1.500   7.837  20.832  0.00  0.00    +0.000 A 
ATOM      4  C   UNL     1       0.957   8.981  20.234  0.00  0.00    +0.000 A 
ATOM      5  C   UNL     1       1.207   9.252  18.887  0.00  0.00    +0.000 A 
ATOM      6  C   UNL     1       1.988   8.361  18.137  0.00  0.00    +0.000 A 
ENDROOT
BRANCH   1  18
ATOM      7  C   UNL     1       1.443   4.523  18.410  0.00  0.00    +0.000 C 
ATOM      8  C   UNL     1       2.772   4.931  17.809  0.00  0.00    +0.000 A 
ATOM      9  N   UNL     1       3.415   4.024  17.140  0.00  0.00    +0.000 NA
ATOM     10  C   UNL     1       4.631   4.360  16.543  0.00  0.00    +0.000 A 
ATOM     11  C   UNL     1       5.348   3.376  15.862  0.00  0.00    +0.000 A 
ATOM     12  C   UNL     1       6.593   3.662  15.295  0.00  0.00    +0.000 A 
ATOM     13  C   UNL     1       7.129   4.946  15.398  0.00  0.00    +0.000 A 
ATOM     14  C   UNL     1       6.414   5.944  16.052  0.00  0.00    +0.000 A 
ATOM     15  C   UNL     1       5.168   5.644  16.617  0.00  0.00    +0.000 A 
ATOM     16  C   UNL     1       4.391   6.671  17.327  0.00  0.00    +0.000 A 
ATOM     17  O   UNL     1       4.832   7.821  17.357  0.00  0.00    +0.000 OA
ATOM     18  N   UNL     1       3.216   6.237  17.953  0.00  0.00    +0.000 N 
ENDBRANCH   1  18
BRANCH   4  19
ATOM     19  C   UNL     1       0.157   9.877  21.103  0.00  0.00    +0.000 C 
ATOM     20  O   UNL     1      -0.299   9.385  22.129  0.00  0.00    +0.000 OA
ATOM     21  N   UNL     1      -0.072  11.162  20.635  0.00  0.00    +0.000 N 
ATOM     22  H   UNL     1       0.216  11.380  19.688  0.00  0.00    +0.000 HD
BRANCH  21  23
ATOM     23  C   UNL     1      -0.931  12.094  21.269  0.00  0.00    +0.000 A 
ATOM     24  C   UNL     1      -0.570  12.818  22.394  0.00  0.00    +0.000 A 
ATOM     25  C   UNL     1      -1.498  13.643  23.031  0.00  0.00    +0.000 A 
ATOM     26  C   UNL     1      -2.805  13.751  22.561  0.00  0.00    +0.000 A 
ATOM     27  N   UNL     1      -3.739  14.564  23.193  0.00  0.00    +0.000 N 
ATOM     28  C   UNL     1      -5.099  14.563  22.660  0.00  0.00    +0.000 C 
ATOM     29  C   UNL     1      -3.657  14.847  24.624  0.00  0.00    +0.000 C 
ATOM     30  N   UNL     1      -3.141  13.105  21.419  0.00  0.00    +0.000 NA
ATOM     31  C   UNL     1      -2.218  12.315  20.802  0.00  0.00    +0.000 A 
ENDBRANCH  21  23
ENDBRANCH   4  19
TORSDOF 3
ENDMDL
MODEL 6
REMARK VINA RESULT:      -8.2      1.725     11.191
REMARK  Name = 
REMARK  6 active torsions:
REMARK  status: ('A' for Active; 'I' for Inactive)
REMARK    1  A    between atoms: C_1  and  C_2
REMARK    2  A    between atoms: N_12  and  C_13
REMARK    3  A    between atoms: C_16  and  C_17
REMARK    4  A    between atoms: N_19  and  C_20
REMARK    5  A    between atoms: N_24  and  C_25
REMARK    6  A    between atoms: N_24  and  C_26
REMARK                            x       y       z     vdW  Elec       q    Type
REMARK                         _______ _______ _______ _____ _____    ______ ____
ROOT
ATOM      1  C   UNL     1      -1.649  12.350  22.072  0.00  0.00    +0.000 A 
ATOM      2  C   UNL     1      -1.191  11.413  23.005  0.00  0.00    +0.000 A 
ATOM      3  C   UNL     1      -0.381  10.358  22.595  0.00  0.00    +0.000 A 
ATOM      4  C   UNL     1       0.007  10.244  21.253  0.00  0.00    +0.000 A 
ATOM      5  C   UNL     1      -0.452  11.167  20.311  0.00  0.00    +0.000 A 
ATOM      6  C   UNL     1      -1.285  12.217  20.723  0.00  0.00    +0.000 A 
ENDROOT
BRANCH   1  18
ATOM      7  C   UNL     1      -0.323  14.840  22.728  0.00  0.00    +0.000 C 
ATOM      8  C   UNL     1      -1.818  14.666  22.887  0.00  0.00    +0.000 A 
ATOM      9  N   UNL     1      -2.483  15.687  23.332  0.00  0.00    +0.000 NA
ATOM     10  C   UNL     1      -3.868  15.585  23.469  0.00  0.00    +0.000 A 
ATOM     11  C   UNL     1      -4.581  16.665  23.991  0.00  0.00    +0.000 A 
ATOM     12  C   UNL     1      -5.962  16.581  24.190  0.00  0.00    +0.000 A 
ATOM     13  C   UNL     1      -6.646  15.410  23.859  0.00  0.00    +0.000 A 
ATOM     14  C   UNL     1      -5.952  14.334  23.314  0.00  0.00    +0.000 A 
ATOM     15  C   UNL     1      -4.568  14.431  23.121  0.00  0.00    +0.000 A 
ATOM     16  C   UNL     1      -3.802  13.308  22.560  0.00  0.00    +0.000 A 
ATOM     17  O   UNL     1      -4.415  12.302  22.203  0.00  0.00    +0.000 OA
ATOM     18  N   UNL     1      -2.410  13.468  22.518  0.00  0.00    +0.000 N 
ENDBRANCH   1  18
BRANCH   4  19
ATOM     19  C   UNL     1       0.876   9.095  20.903  0.00  0.00    +0.000 C 
ATOM     20  O   UNL     1       1.347   8.456  21.837  0.00  0.00    +0.000 OA
ATOM     21  N   UNL     1       1.144   8.901  19.556  0.00  0.00    +0.000 N 
ATOM     22  H   UNL     1       0.831   9.611  18.904  0.00  0.00    +0.000 HD
BRANCH  21  23
ATOM     23  C   UNL     1       2.065   7.944  19.062  0.00  0.00    +0.000 A 
ATOM     24  C   UNL     1       2.339   6.749  19.707  0.00  0.00    +0.000 A 
ATOM     25  C   UNL     1       3.333   5.897  19.221  0.00  0.00    +0.000 A 
ATOM     26  C   UNL     1       4.074   6.228  18.090  0.00  0.00    +0.000 A 
ATOM     27  N   UNL     1       5.071   5.390  17.603  0.00  0.00    +0.000 N 
ATOM     28  C   UNL     1       5.833   5.854  16.447  0.00  0.00    +0.000 C 
ATOM     29  C   UNL     1       5.812   4.495  18.489  0.00  0.00    +0.000 C 
ATOM     30  N   UNL     1       3.758   7.358  17.413  0.00  0.00    +0.000 NA
ATOM     31  C   UNL     1       2.776   8.172  17.893  0.00  0.00    +0.000 A 
ENDBRANCH  21  23
ENDBRANCH   4  19
TORSDOF 3
ENDMDL
MODEL 7
REMARK VINA RESULT:      -8.2      0.971      1.319
REMARK  Name = 
REMARK  6 active torsions:
REMARK  status: ('A' for Active; 'I' for Inactive)
REMARK    1  A    between atoms: C_1  and  C_2
REMARK    2  A    between atoms: N_12  and  C_13
REMARK    3  A    between atoms: C_16  and  C_17
REMARK    4  A    between atoms: N_19  and  C_20
REMARK    5  A    between atoms: N_24  and  C_25
REMARK    6  A    between atoms: N_24  and  C_26
REMARK                            x       y       z     vdW  Elec       q    Type
REMARK                         _______ _______ _______ _____ _____    ______ ____
ROOT
ATOM      1  C   UNL     1       1.671   8.056  19.507  0.00  0.00    +0.000 A 
ATOM      2  C   UNL     1       1.063   8.978  18.649  0.00  0.00    +0.000 A 
ATOM      3  C   UNL     1       0.300  10.020  19.171  0.00  0.00    +0.000 A 
ATOM      4  C   UNL     1       0.162  10.171  20.557  0.00  0.00    +0.000 A 
ATOM      5  C   UNL     1       0.756   9.250  21.423  0.00  0.00    +0.000 A 
ATOM      6  C   UNL     1       1.506   8.190  20.895  0.00  0.00    +0.000 A 
ENDROOT
BRANCH   1  18
ATOM      7  C   UNL     1       1.732   5.421  20.709  0.00  0.00    +0.000 C 
ATOM      8  C   UNL     1       2.612   5.782  19.531  0.00  0.00    +0.000 A 
ATOM      9  N   UNL     1       3.397   4.853  19.080  0.00  0.00    +0.000 NA
ATOM     10  C   UNL     1       4.206   5.129  17.977  0.00  0.00    +0.000 A 
ATOM     11  C   UNL     1       5.086   4.148  17.518  0.00  0.00    +0.000 A 
ATOM     12  C   UNL     1       5.948   4.405  16.448  0.00  0.00    +0.000 A 
ATOM     13  C   UNL     1       5.930   5.651  15.820  0.00  0.00    +0.000 A 
ATOM     14  C   UNL     1       5.040   6.630  16.250  0.00  0.00    +0.000 A 
ATOM     15  C   UNL     1       4.183   6.360  17.324  0.00  0.00    +0.000 A 
ATOM     16  C   UNL     1       3.240   7.376  17.814  0.00  0.00    +0.000 A 
ATOM     17  O   UNL     1       3.175   8.450  17.215  0.00  0.00    +0.000 OA
ATOM     18  N   UNL     1       2.512   7.044  18.964  0.00  0.00    +0.000 N 
ENDBRANCH   1  18
BRANCH   4  19
ATOM     19  C   UNL     1      -0.661  11.310  21.028  0.00  0.00    +0.000 C 
ATOM     20  O   UNL     1      -0.861  12.214  20.225  0.00  0.00    +0.000 OA
ATOM     21  N   UNL     1      -1.057  11.288  22.357  0.00  0.00    +0.000 N 
ATOM     22  H   UNL     1      -0.672  10.565  22.955  0.00  0.00    +0.000 HD
BRANCH  21  23
ATOM     23  C   UNL     1      -1.721  12.361  23.003  0.00  0.00    +0.000 A 
ATOM     24  C   UNL     1      -3.074  12.348  23.302  0.00  0.00    +0.000 A 
ATOM     25  C   UNL     1      -3.688  13.478  23.846  0.00  0.00    +0.000 A 
ATOM     26  C   UNL     1      -2.963  14.642  24.089  0.00  0.00    +0.000 A 
ATOM     27  N   UNL     1      -3.567  15.775  24.623  0.00  0.00    +0.000 N 
ATOM     28  C   UNL     1      -2.735  16.965  24.785  0.00  0.00    +0.000 C 
ATOM     29  C   UNL     1      -4.982  16.059  24.400  0.00  0.00    +0.000 C 
ATOM     30  N   UNL     1      -1.626  14.635  23.869  0.00  0.00    +0.000 NA
ATOM     31  C   UNL     1      -1.041  13.518  23.352  0.00  0.00    +0.000 A 
ENDBRANCH  21  23
ENDBRANCH   4  19
TORSDOF 3
ENDMDL
MODEL 8
REMARK VINA RESULT:      -8.1      1.677     11.248
REMARK  Name = 
REMARK  6 active torsions:
REMARK  status: ('A' for Active; 'I' for Inactive)
REMARK    1  A    between atoms: C_1  and  C_2
REMARK    2  A    between atoms: N_12  and  C_13
REMARK    3  A    between atoms: C_16  and  C_17
REMARK    4  A    between atoms: N_19  and  C_20
REMARK    5  A    between atoms: N_24  and  C_25
REMARK    6  A    between atoms: N_24  and  C_26
REMARK                            x       y       z     vdW  Elec       q    Type
REMARK                         _______ _______ _______ _____ _____    ______ ____
ROOT
ATOM      1  C   UNL     1      -1.694  12.778  22.291  0.00  0.00    +0.000 A 
ATOM      2  C   UNL     1      -1.393  12.942  20.935  0.00  0.00    +0.000 A 
ATOM      3  C   UNL     1      -0.708  11.944  20.246  0.00  0.00    +0.000 A 
ATOM      4  C   UNL     1      -0.343  10.758  20.897  0.00  0.00    +0.000 A 
ATOM      5  C   UNL     1      -0.629  10.587  22.253  0.00  0.00    +0.000 A 
ATOM      6  C   UNL     1      -1.301  11.602  22.949  0.00  0.00    +0.000 A 
ENDROOT
BRANCH   1  18
ATOM      7  C   UNL     1      -4.588  12.674  22.202  0.00  0.00    +0.000 C 
ATOM      8  C   UNL     1      -3.850  13.791  22.911  0.00  0.00    +0.000 A 
ATOM      9  N   UNL     1      -4.575  14.703  23.481  0.00  0.00    +0.000 NA
ATOM     10  C   UNL     1      -3.941  15.737  24.172  0.00  0.00    +0.000 A 
ATOM     11  C   UNL     1      -4.716  16.744  24.747  0.00  0.00    +0.000 A 
ATOM     12  C   UNL     1      -4.115  17.823  25.402  0.00  0.00    +0.000 A 
ATOM     13  C   UNL     1      -2.724  17.897  25.495  0.00  0.00    +0.000 A 
ATOM     14  C   UNL     1      -1.940  16.885  24.948  0.00  0.00    +0.000 A 
ATOM     15  C   UNL     1      -2.555  15.812  24.293  0.00  0.00    +0.000 A 
ATOM     16  C   UNL     1      -1.756  14.733  23.692  0.00  0.00    +0.000 A 
ATOM     17  O   UNL     1      -0.533  14.762  23.835  0.00  0.00    +0.000 OA
ATOM     18  N   UNL     1      -2.464  13.770  22.962  0.00  0.00    +0.000 N 
ENDBRANCH   1  18
BRANCH   4  19
ATOM     19  C   UNL     1       0.377   9.745  20.089  0.00  0.00    +0.000 C 
ATOM     20  O   UNL     1       0.237   9.810  18.873  0.00  0.00    +0.000 OA
ATOM     21  N   UNL     1       1.073   8.769  20.786  0.00  0.00    +0.000 N 
ATOM     22  H   UNL     1       0.959   8.732  21.793  0.00  0.00    +0.000 HD
BRANCH  21  23
ATOM     23  C   UNL     1       1.693   7.650  20.175  0.00  0.00    +0.000 A 
ATOM     24  C   UNL     1       1.697   6.383  20.734  0.00  0.00    +0.000 A 
ATOM     25  C   UNL     1       2.414   5.347  20.132  0.00  0.00    +0.000 A 
ATOM     26  C   UNL     1       3.146   5.563  18.967  0.00  0.00    +0.000 A 
ATOM     27  N   UNL     1       3.870   4.540  18.364  0.00  0.00    +0.000 N 
ATOM     28  C   UNL     1       4.654   4.881  17.179  0.00  0.00    +0.000 C 
ATOM     29  C   UNL     1       4.414   3.431  19.144  0.00  0.00    +0.000 C 
ATOM     30  N   UNL     1       3.084   6.780  18.375  0.00  0.00    +0.000 NA
ATOM     31  C   UNL     1       2.368   7.775  18.969  0.00  0.00    +0.000 A 
ENDBRANCH  21  23
ENDBRANCH   4  19
TORSDOF 3
ENDMDL
MODEL 9
REMARK VINA RESULT:      -8.0      1.791     11.218
REMARK  Name = 
REMARK  6 active torsions:
REMARK  status: ('A' for Active; 'I' for Inactive)
REMARK    1  A    between atoms: C_1  and  C_2
REMARK    2  A    between atoms: N_12  and  C_13
REMARK    3  A    between atoms: C_16  and  C_17
REMARK    4  A    between atoms: N_19  and  C_20
REMARK    5  A    between atoms: N_24  and  C_25
REMARK    6  A    between atoms: N_24  and  C_26
REMARK                            x       y       z     vdW  Elec       q    Type
REMARK                         _______ _______ _______ _____ _____    ______ ____
ROOT
ATOM      1  C   UNL     1      -1.698  12.636  22.227  0.00  0.00    +0.000 A 
ATOM      2  C   UNL     1      -1.315  12.811  20.893  0.00  0.00    +0.000 A 
ATOM      3  C   UNL     1      -0.588  11.819  20.240  0.00  0.00    +0.000 A 
ATOM      4  C   UNL     1      -0.264  10.627  20.902  0.00  0.00    +0.000 A 
ATOM      5  C   UNL     1      -0.632  10.445  22.237  0.00  0.00    +0.000 A 
ATOM      6  C   UNL     1      -1.346  11.455  22.899  0.00  0.00    +0.000 A 
ENDROOT
BRANCH   1  18
ATOM      7  C   UNL     1      -4.575  12.582  21.890  0.00  0.00    +0.000 C 
ATOM      8  C   UNL     1      -3.884  13.667  22.690  0.00  0.00    +0.000 A 
ATOM      9  N   UNL     1      -4.642  14.576  23.222  0.00  0.00    +0.000 NA
ATOM     10  C   UNL     1      -4.055  15.581  23.992  0.00  0.00    +0.000 A 
ATOM     11  C   UNL     1      -4.862  16.585  24.527  0.00  0.00    +0.000 A 
ATOM     12  C   UNL     1      -4.303  17.636  25.260  0.00  0.00    +0.000 A 
ATOM     13  C   UNL     1      -2.924  17.684  25.473  0.00  0.00    +0.000 A 
ATOM     14  C   UNL     1      -2.111  16.675  24.968  0.00  0.00    +0.000 A 
ATOM     15  C   UNL     1      -2.683  15.629  24.233  0.00  0.00    +0.000 A 
ATOM     16  C   UNL     1      -1.851  14.554  23.672  0.00  0.00    +0.000 A 
ATOM     17  O   UNL     1      -0.645  14.559  23.919  0.00  0.00    +0.000 OA
ATOM     18  N   UNL     1      -2.508  13.622  22.858  0.00  0.00    +0.000 N 
ENDBRANCH   1  18
BRANCH   4  19
ATOM     19  C   UNL     1       0.506   9.621  20.132  0.00  0.00    +0.000 C 
ATOM     20  O   UNL     1       0.485   9.729  18.911  0.00  0.00    +0.000 OA
ATOM     21  N   UNL     1       1.106   8.603  20.857  0.00  0.00    +0.000 N 
ATOM     22  H   UNL     1       0.894   8.537  21.847  0.00  0.00    +0.000 HD
BRANCH  21  23
ATOM     23  C   UNL     1       1.754   7.487  20.270  0.00  0.00    +0.000 A 
ATOM     24  C   UNL     1       2.444   7.553  19.070  0.00  0.00    +0.000 A 
ATOM     25  C   UNL     1       2.971   6.396  18.494  0.00  0.00    +0.000 A 
ATOM     26  C   UNL     1       2.809   5.153  19.101  0.00  0.00    +0.000 A 
ATOM     27  N   UNL     1       3.323   3.994  18.532  0.00  0.00    +0.000 N 
ATOM     28  C   UNL     1       3.048   2.732  19.214  0.00  0.00    +0.000 C 
ATOM     29  C   UNL     1       3.496   3.868  17.087  0.00  0.00    +0.000 C 
ATOM     30  N   UNL     1       2.201   5.094  20.311  0.00  0.00    +0.000 NA
ATOM     31  C   UNL     1       1.705   6.236  20.865  0.00  0.00    +0.000 A 
ENDBRANCH  21  23
ENDBRANCH   4  19
TORSDOF 3
ENDMDL
