MODEL 1
REMARK VINA RESULT:      -8.4      0.000      0.000
REMARK  Name = 
REMARK  2 active torsions:
REMARK  status: ('A' for Active; 'I' for Inactive)
REMARK    1  A    between atoms: C_2  and  C_3
REMARK    2  A    between atoms: C_17  and  C_18
REMARK                            x       y       z     vdW  Elec       q    Type
REMARK                         _______ _______ _______ _____ _____    ______ ____
ROOT
ATOM      1  O   UNL     1       1.618   9.617  22.070  0.00  0.00    +0.000 OA
ATOM      2  C   UNL     1       1.046   9.285  21.037  0.00  0.00    +0.000 C 
ATOM      3  N   UNL     1      -0.005  10.017  20.512  0.00  0.00    +0.000 N 
ATOM      4  C   UNL     1      -0.751   9.738  19.295  0.00  0.00    +0.000 C 
ATOM      5  C   UNL     1      -0.831  10.919  18.360  0.00  0.00    +0.000 C 
ATOM      6  C   UNL     1      -1.311  12.179  19.058  0.00  0.00    +0.000 C 
ATOM      7  C   UNL     1      -0.584  12.393  20.395  0.00  0.00    +0.000 C 
ATOM      8  C   UNL     1      -0.547  11.147  21.282  0.00  0.00    +0.000 C 
ENDROOT
BRANCH   2   9
ATOM      9  C   UNL     1       1.562   8.104  20.262  0.00  0.00    +0.000 A 
ATOM     10  C   UNL     1       1.355   6.900  20.830  0.00  0.00    +0.000 A 
ATOM     11  C   UNL     1       1.833   5.671  20.196  0.00  0.00    +0.000 A 
ATOM     12  C   UNL     1       1.601   4.411  20.747  0.00  0.00    +0.000 A 
ATOM     13  C   UNL     1       2.064   3.270  20.084  0.00  0.00    +0.000 A 
ATOM     14  C   UNL     1       2.757   3.384  18.876  0.00  0.00    +0.000 A 
ATOM     15  C   UNL     1       3.007   4.637  18.330  0.00  0.00    +0.000 A 
ATOM     16  C   UNL     1       2.554   5.761  18.995  0.00  0.00    +0.000 A 
ATOM     17  N   UNL     1       2.773   7.011  18.434  0.00  0.00    +0.000 N 
ATOM     18  C   UNL     1       2.208   8.153  18.910  0.00  0.00    +0.000 A 
ATOM     19  O   UNL     1       2.270   9.154  18.191  0.00  0.00    +0.000 OA
ATOM     20  H   UNL     1       3.239   7.107  17.543  0.00  0.00    +0.000 HD
ENDBRANCH   2   9
BRANCH   6  21
ATOM     21  C   UNL     1      -2.792  12.153  19.219  0.00  0.00    +0.000 A 
ATOM     22  N   UNL     1      -3.529  12.628  20.204  0.00  0.00    +0.000 NA
ATOM     23  C   UNL     1      -4.806  12.294  19.840  0.00  0.00    +0.000 A 
ATOM     24  C   UNL     1      -6.031  12.518  20.477  0.00  0.00    +0.000 A 
ATOM     25  C   UNL     1      -7.194  12.037  19.856  0.00  0.00    +0.000 A 
ATOM     26  C   UNL     1      -7.134  11.355  18.632  0.00  0.00    +0.000 A 
ATOM     27  C   UNL     1      -5.915  11.129  17.981  0.00  0.00    +0.000 A 
ATOM     28  C   UNL     1      -4.790  11.618  18.632  0.00  0.00    +0.000 A 
ATOM     29  O   UNL     1      -3.492  11.522  18.224  0.00  0.00    +0.000 OA
ENDBRANCH   6  21
TORSDOF 2
ENDMDL
MODEL 2
REMARK VINA RESULT:      -8.3      0.743      1.205
REMARK  Name = 
REMARK  2 active torsions:
REMARK  status: ('A' for Active; 'I' for Inactive)
REMARK    1  A    between atoms: C_2  and  C_3
REMARK    2  A    between atoms: C_17  and  C_18
REMARK                            x       y       z     vdW  Elec       q    Type
REMARK                         _______ _______ _______ _____ _____    ______ ____
ROOT
ATOM      1  O   UNL     1       1.519   9.966  21.933  0.00  0.00    +0.000 OA
ATOM      2  C   UNL     1       0.937   9.565  20.931  0.00  0.00    +0.000 C 
ATOM      3  N   UNL     1      -0.173  10.213  20.418  0.00  0.00    +0.000 N 
ATOM      4  C   UNL     1      -0.937   9.847  19.236  0.00  0.00    +0.000 C 
ATOM      5  C   UNL     1      -1.119  10.988  18.265  0.00  0.00    +0.000 C 
ATOM      6  C   UNL     1      -1.655  12.240  18.938  0.00  0.00    +0.000 C 
ATOM      7  C   UNL     1      -0.901  12.544  20.242  0.00  0.00    +0.000 C 
ATOM      8  C   UNL     1      -0.760  11.333  21.168  0.00  0.00    +0.000 C 
ENDROOT
BRANCH   2   9
ATOM      9  C   UNL     1       1.501   8.391  20.179  0.00  0.00    +0.000 A 
ATOM     10  C   UNL     1       1.370   7.195  20.783  0.00  0.00    +0.000 A 
ATOM     11  C   UNL     1       1.902   5.975  20.174  0.00  0.00    +0.000 A 
ATOM     12  C   UNL     1       1.749   4.721  20.765  0.00  0.00    +0.000 A 
ATOM     13  C   UNL     1       2.260   3.588  20.124  0.00  0.00    +0.000 A 
ATOM     14  C   UNL     1       2.922   3.704  18.898  0.00  0.00    +0.000 A 
ATOM     15  C   UNL     1       3.093   4.952  18.313  0.00  0.00    +0.000 A 
ATOM     16  C   UNL     1       2.593   6.069  18.956  0.00  0.00    +0.000 A 
ATOM     17  N   UNL     1       2.733   7.313  18.356  0.00  0.00    +0.000 N 
ATOM     18  C   UNL     1       2.117   8.435  18.812  0.00  0.00    +0.000 A 
ATOM     19  O   UNL     1       2.110   9.418  18.065  0.00  0.00    +0.000 OA
ATOM     20  H   UNL     1       3.176   7.407  17.453  0.00  0.00    +0.000 HD
ENDBRANCH   2   9
BRANCH   6  21
ATOM     21  C   UNL     1      -3.125  12.129  19.148  0.00  0.00    +0.000 A 
ATOM     22  N   UNL     1      -4.036  11.577  18.370  0.00  0.00    +0.000 NA
ATOM     23  C   UNL     1      -5.209  11.798  19.042  0.00  0.00    +0.000 A 
ATOM     24  C   UNL     1      -6.528  11.456  18.725  0.00  0.00    +0.000 A 
ATOM     25  C   UNL     1      -7.540  11.836  19.619  0.00  0.00    +0.000 A 
ATOM     26  C   UNL     1      -7.242  12.535  20.797  0.00  0.00    +0.000 A 
ATOM     27  C   UNL     1      -5.926  12.878  21.130  0.00  0.00    +0.000 A 
ATOM     28  C   UNL     1      -4.957  12.487  20.216  0.00  0.00    +0.000 A 
ATOM     29  O   UNL     1      -3.613  12.705  20.292  0.00  0.00    +0.000 OA
ENDBRANCH   6  21
TORSDOF 2
ENDMDL
MODEL 3
REMARK VINA RESULT:      -8.1      2.660      3.977
REMARK  Name = 
REMARK  2 active torsions:
REMARK  status: ('A' for Active; 'I' for Inactive)
REMARK    1  A    between atoms: C_2  and  C_3
REMARK    2  A    between atoms: C_17  and  C_18
REMARK                            x       y       z     vdW  Elec       q    Type
REMARK                         _______ _______ _______ _____ _____    ______ ____
ROOT
ATOM      1  O   UNL     1       2.302   5.746  20.964  0.00  0.00    +0.000 OA
ATOM      2  C   UNL     1       2.304   6.205  19.828  0.00  0.00    +0.000 C 
ATOM      3  N   UNL     1       1.633   7.372  19.506  0.00  0.00    +0.000 N 
ATOM      4  C   UNL     1       1.572   8.022  18.206  0.00  0.00    +0.000 C 
ATOM      5  C   UNL     1       1.947   9.483  18.251  0.00  0.00    +0.000 C 
ATOM      6  C   UNL     1       1.180  10.245  19.318  0.00  0.00    +0.000 C 
ATOM      7  C   UNL     1       1.168   9.485  20.653  0.00  0.00    +0.000 C 
ATOM      8  C   UNL     1       0.778   8.011  20.518  0.00  0.00    +0.000 C 
ENDROOT
BRANCH   2   9
ATOM      9  C   UNL     1       3.138   5.536  18.770  0.00  0.00    +0.000 A 
ATOM     10  C   UNL     1       4.335   6.104  18.528  0.00  0.00    +0.000 A 
ATOM     11  C   UNL     1       5.233   5.571  17.503  0.00  0.00    +0.000 A 
ATOM     12  C   UNL     1       6.491   6.121  17.258  0.00  0.00    +0.000 A 
ATOM     13  C   UNL     1       7.315   5.555  16.280  0.00  0.00    +0.000 A 
ATOM     14  C   UNL     1       6.886   4.444  15.548  0.00  0.00    +0.000 A 
ATOM     15  C   UNL     1       5.628   3.901  15.775  0.00  0.00    +0.000 A 
ATOM     16  C   UNL     1       4.815   4.472  16.738  0.00  0.00    +0.000 A 
ATOM     17  N   UNL     1       3.571   3.910  16.989  0.00  0.00    +0.000 N 
ATOM     18  C   UNL     1       2.784   4.278  18.035  0.00  0.00    +0.000 A 
ATOM     19  O   UNL     1       1.827   3.546  18.305  0.00  0.00    +0.000 OA
ATOM     20  H   UNL     1       3.264   3.084  16.495  0.00  0.00    +0.000 HD
ENDBRANCH   2   9
BRANCH   6  21
ATOM     21  C   UNL     1      -0.193  10.569  18.840  0.00  0.00    +0.000 A 
ATOM     22  N   UNL     1      -1.143  11.255  19.446  0.00  0.00    +0.000 NA
ATOM     23  C   UNL     1      -2.189  11.204  18.563  0.00  0.00    +0.000 A 
ATOM     24  C   UNL     1      -3.479  11.739  18.636  0.00  0.00    +0.000 A 
ATOM     25  C   UNL     1      -4.351  11.505  17.562  0.00  0.00    +0.000 A 
ATOM     26  C   UNL     1      -3.943  10.763  16.445  0.00  0.00    +0.000 A 
ATOM     27  C   UNL     1      -2.652  10.227  16.356  0.00  0.00    +0.000 A 
ATOM     28  C   UNL     1      -1.824  10.478  17.442  0.00  0.00    +0.000 A 
ATOM     29  O   UNL     1      -0.536  10.064  17.613  0.00  0.00    +0.000 OA
ENDBRANCH   6  21
TORSDOF 2
ENDMDL
MODEL 4
REMARK VINA RESULT:      -8.1      1.458      2.360
REMARK  Name = 
REMARK  2 active torsions:
REMARK  status: ('A' for Active; 'I' for Inactive)
REMARK    1  A    between atoms: C_2  and  C_3
REMARK    2  A    between atoms: C_17  and  C_18
REMARK                            x       y       z     vdW  Elec       q    Type
REMARK                         _______ _______ _______ _____ _____    ______ ____
ROOT
ATOM      1  O   UNL     1       1.924  11.442  18.640  0.00  0.00    +0.000 OA
ATOM      2  C   UNL     1       1.112  10.556  18.882  0.00  0.00    +0.000 C 
ATOM      3  N   UNL     1      -0.253  10.764  18.788  0.00  0.00    +0.000 N 
ATOM      4  C   UNL     1      -1.310   9.796  19.035  0.00  0.00    +0.000 C 
ATOM      5  C   UNL     1      -2.302   9.695  17.903  0.00  0.00    +0.000 C 
ATOM      6  C   UNL     1      -2.843  11.051  17.485  0.00  0.00    +0.000 C 
ATOM      7  C   UNL     1      -1.717  12.085  17.337  0.00  0.00    +0.000 C 
ATOM      8  C   UNL     1      -0.755  12.122  18.527  0.00  0.00    +0.000 C 
ENDROOT
BRANCH   2   9
ATOM      9  C   UNL     1       1.612   9.172  19.196  0.00  0.00    +0.000 A 
ATOM     10  C   UNL     1       2.278   8.555  18.201  0.00  0.00    +0.000 A 
ATOM     11  C   UNL     1       2.791   7.195  18.363  0.00  0.00    +0.000 A 
ATOM     12  C   UNL     1       3.513   6.547  17.360  0.00  0.00    +0.000 A 
ATOM     13  C   UNL     1       3.998   5.254  17.581  0.00  0.00    +0.000 A 
ATOM     14  C   UNL     1       3.764   4.608  18.798  0.00  0.00    +0.000 A 
ATOM     15  C   UNL     1       3.032   5.240  19.796  0.00  0.00    +0.000 A 
ATOM     16  C   UNL     1       2.548   6.515  19.567  0.00  0.00    +0.000 A 
ATOM     17  N   UNL     1       1.845   7.160  20.575  0.00  0.00    +0.000 N 
ATOM     18  C   UNL     1       1.495   8.473  20.517  0.00  0.00    +0.000 A 
ATOM     19  O   UNL     1       1.102   8.997  21.563  0.00  0.00    +0.000 OA
ATOM     20  H   UNL     1       1.702   6.720  21.473  0.00  0.00    +0.000 HD
ENDBRANCH   2   9
BRANCH   6  21
ATOM     21  C   UNL     1      -3.904  11.502  18.429  0.00  0.00    +0.000 A 
ATOM     22  N   UNL     1      -3.833  12.407  19.386  0.00  0.00    +0.000 NA
ATOM     23  C   UNL     1      -5.083  12.381  19.946  0.00  0.00    +0.000 A 
ATOM     24  C   UNL     1      -5.629  13.109  21.008  0.00  0.00    +0.000 A 
ATOM     25  C   UNL     1      -6.959  12.849  21.370  0.00  0.00    +0.000 A 
ATOM     26  C   UNL     1      -7.723  11.892  20.686  0.00  0.00    +0.000 A 
ATOM     27  C   UNL     1      -7.190  11.160  19.617  0.00  0.00    +0.000 A 
ATOM     28  C   UNL     1      -5.871  11.446  19.296  0.00  0.00    +0.000 A 
ATOM     29  O   UNL     1      -5.116  10.873  18.315  0.00  0.00    +0.000 OA
ENDBRANCH   6  21
TORSDOF 2
ENDMDL
MODEL 5
REMARK VINA RESULT:      -8.0      2.713      4.125
REMARK  Name = 
REMARK  2 active torsions:
REMARK  status: ('A' for Active; 'I' for Inactive)
REMARK    1  A    between atoms: C_2  and  C_3
REMARK    2  A    between atoms: C_17  and  C_18
REMARK                            x       y       z     vdW  Elec       q    Type
REMARK                         _______ _______ _______ _____ _____    ______ ____
ROOT
ATOM      1  O   UNL     1       2.705   5.929  20.788  0.00  0.00    +0.000 OA
ATOM      2  C   UNL     1       2.565   6.299  19.627  0.00  0.00    +0.000 C 
ATOM      3  N   UNL     1       1.802   7.406  19.297  0.00  0.00    +0.000 N 
ATOM      4  C   UNL     1       1.571   7.951  17.969  0.00  0.00    +0.000 C 
ATOM      5  C   UNL     1       1.867   9.427  17.870  0.00  0.00    +0.000 C 
ATOM      6  C   UNL     1       1.173  10.231  18.956  0.00  0.00    +0.000 C 
ATOM      7  C   UNL     1       1.339   9.575  20.336  0.00  0.00    +0.000 C 
ATOM      8  C   UNL     1       1.021   8.078  20.347  0.00  0.00    +0.000 C 
ENDROOT
BRANCH   2   9
ATOM      9  C   UNL     1       3.322   5.592  18.537  0.00  0.00    +0.000 A 
ATOM     10  C   UNL     1       4.517   6.127  18.218  0.00  0.00    +0.000 A 
ATOM     11  C   UNL     1       5.343   5.556  17.154  0.00  0.00    +0.000 A 
ATOM     12  C   UNL     1       6.597   6.071  16.828  0.00  0.00    +0.000 A 
ATOM     13  C   UNL     1       7.351   5.468  15.816  0.00  0.00    +0.000 A 
ATOM     14  C   UNL     1       6.855   4.356  15.129  0.00  0.00    +0.000 A 
ATOM     15  C   UNL     1       5.600   3.848  15.437  0.00  0.00    +0.000 A 
ATOM     16  C   UNL     1       4.856   4.454  16.433  0.00  0.00    +0.000 A 
ATOM     17  N   UNL     1       3.616   3.927  16.764  0.00  0.00    +0.000 N 
ATOM     18  C   UNL     1       2.898   4.331  17.846  0.00  0.00    +0.000 A 
ATOM     19  O   UNL     1       1.941   3.628  18.182  0.00  0.00    +0.000 OA
ATOM     20  H   UNL     1       3.262   3.101  16.303  0.00  0.00    +0.000 HD
ENDBRANCH   2   9
BRANCH   6  21
ATOM     21  C   UNL     1      -0.258  10.452  18.605  0.00  0.00    +0.000 A 
ATOM     22  N   UNL     1      -0.952   9.959  17.598  0.00  0.00    +0.000 NA
ATOM     23  C   UNL     1      -2.190  10.524  17.753  0.00  0.00    +0.000 A 
ATOM     24  C   UNL     1      -3.360  10.396  16.996  0.00  0.00    +0.000 A 
ATOM     25  C   UNL     1      -4.489  11.124  17.401  0.00  0.00    +0.000 A 
ATOM     26  C   UNL     1      -4.451  11.952  18.532  0.00  0.00    +0.000 A 
ATOM     27  C   UNL     1      -3.289  12.083  19.302  0.00  0.00    +0.000 A 
ATOM     28  C   UNL     1      -2.195  11.350  18.864  0.00  0.00    +0.000 A 
ATOM     29  O   UNL     1      -0.950  11.310  19.420  0.00  0.00    +0.000 OA
ENDBRANCH   6  21
TORSDOF 2
ENDMDL
MODEL 6
REMARK VINA RESULT:      -7.9      1.506      2.426
REMARK  Name = 
REMARK  2 active torsions:
REMARK  status: ('A' for Active; 'I' for Inactive)
REMARK    1  A    between atoms: C_2  and  C_3
REMARK    2  A    between atoms: C_17  and  C_18
REMARK                            x       y       z     vdW  Elec       q    Type
REMARK                         _______ _______ _______ _____ _____    ______ ____
ROOT
ATOM      1  O   UNL     1       1.770  11.450  19.732  0.00  0.00    +0.000 OA
ATOM      2  C   UNL     1       0.991  10.516  19.577  0.00  0.00    +0.000 C 
ATOM      3  N   UNL     1      -0.335  10.715  19.233  0.00  0.00    +0.000 N 
ATOM      4  C   UNL     1      -1.349   9.696  19.009  0.00  0.00    +0.000 C 
ATOM      5  C   UNL     1      -2.070   9.851  17.693  0.00  0.00    +0.000 C 
ATOM      6  C   UNL     1      -2.605  11.257  17.489  0.00  0.00    +0.000 C 
ATOM      7  C   UNL     1      -1.549  12.318  17.837  0.00  0.00    +0.000 C 
ATOM      8  C   UNL     1      -0.866  12.086  19.187  0.00  0.00    +0.000 C 
ENDROOT
BRANCH   2   9
ATOM      9  C   UNL     1       1.511   9.107  19.667  0.00  0.00    +0.000 A 
ATOM     10  C   UNL     1       2.165   8.658  18.579  0.00  0.00    +0.000 A 
ATOM     11  C   UNL     1       2.695   7.296  18.522  0.00  0.00    +0.000 A 
ATOM     12  C   UNL     1       3.405   6.819  17.420  0.00  0.00    +0.000 A 
ATOM     13  C   UNL     1       3.907   5.513  17.432  0.00  0.00    +0.000 A 
ATOM     14  C   UNL     1       3.701   4.685  18.539  0.00  0.00    +0.000 A 
ATOM     15  C   UNL     1       2.981   5.148  19.633  0.00  0.00    +0.000 A 
ATOM     16  C   UNL     1       2.480   6.436  19.611  0.00  0.00    +0.000 A 
ATOM     17  N   UNL     1       1.789   6.911  20.717  0.00  0.00    +0.000 N 
ATOM     18  C   UNL     1       1.424   8.212  20.867  0.00  0.00    +0.000 A 
ATOM     19  O   UNL     1       1.044   8.565  21.987  0.00  0.00    +0.000 OA
ATOM     20  H   UNL     1       1.666   6.337  21.539  0.00  0.00    +0.000 HD
ENDBRANCH   2   9
BRANCH   6  21
ATOM     21  C   UNL     1      -3.870  11.448  18.252  0.00  0.00    +0.000 A 
ATOM     22  N   UNL     1      -5.043  10.871  18.074  0.00  0.00    +0.000 NA
ATOM     23  C   UNL     1      -5.834  11.448  19.032  0.00  0.00    +0.000 A 
ATOM     24  C   UNL     1      -7.183  11.257  19.346  0.00  0.00    +0.000 A 
ATOM     25  C   UNL     1      -7.731  12.017  20.391  0.00  0.00    +0.000 A 
ATOM     26  C   UNL     1      -6.950  12.939  21.103  0.00  0.00    +0.000 A 
ATOM     27  C   UNL     1      -5.596  13.135  20.803  0.00  0.00    +0.000 A 
ATOM     28  C   UNL     1      -5.097  12.366  19.760  0.00  0.00    +0.000 A 
ATOM     29  O   UNL     1      -3.828  12.373  19.262  0.00  0.00    +0.000 OA
ENDBRANCH   6  21
TORSDOF 2
ENDMDL
MODEL 7
REMARK VINA RESULT:      -7.7      1.888      2.613
REMARK  Name = 
REMARK  2 active torsions:
REMARK  status: ('A' for Active; 'I' for Inactive)
REMARK    1  A    between atoms: C_2  and  C_3
REMARK    2  A    between atoms: C_17  and  C_18
REMARK                            x       y       z     vdW  Elec       q    Type
REMARK                         _______ _______ _______ _____ _____    ______ ____
ROOT
ATOM      1  O   UNL     1       1.987   8.009  21.839  0.00  0.00    +0.000 OA
ATOM      2  C   UNL     1       1.657   7.982  20.659  0.00  0.00    +0.000 C 
ATOM      3  N   UNL     1       0.844   8.953  20.101  0.00  0.00    +0.000 N 
ATOM      4  C   UNL     1       0.397   9.040  18.720  0.00  0.00    +0.000 C 
ATOM      5  C   UNL     1       0.663  10.385  18.089  0.00  0.00    +0.000 C 
ATOM      6  C   UNL     1       0.150  11.534  18.939  0.00  0.00    +0.000 C 
ATOM      7  C   UNL     1       0.542  11.363  20.415  0.00  0.00    +0.000 C 
ATOM      8  C   UNL     1       0.239   9.971  20.974  0.00  0.00    +0.000 C 
ENDROOT
BRANCH   2   9
ATOM      9  C   UNL     1       2.232   6.919  19.763  0.00  0.00    +0.000 A 
ATOM     10  C   UNL     1       3.094   7.354  18.823  0.00  0.00    +0.000 A 
ATOM     11  C   UNL     1       3.703   6.429  17.867  0.00  0.00    +0.000 A 
ATOM     12  C   UNL     1       4.623   6.849  16.908  0.00  0.00    +0.000 A 
ATOM     13  C   UNL     1       5.188   5.914  16.034  0.00  0.00    +0.000 A 
ATOM     14  C   UNL     1       4.837   4.564  16.117  0.00  0.00    +0.000 A 
ATOM     15  C   UNL     1       3.908   4.141  17.060  0.00  0.00    +0.000 A 
ATOM     16  C   UNL     1       3.347   5.072  17.914  0.00  0.00    +0.000 A 
ATOM     17  N   UNL     1       2.444   4.645  18.878  0.00  0.00    +0.000 N 
ATOM     18  C   UNL     1       1.985   5.445  19.876  0.00  0.00    +0.000 A 
ATOM     19  O   UNL     1       1.393   4.896  20.810  0.00  0.00    +0.000 OA
ATOM     20  H   UNL     1       2.210   3.667  18.974  0.00  0.00    +0.000 HD
ENDBRANCH   2   9
BRANCH   6  21
ATOM     21  C   UNL     1      -1.321  11.696  18.761  0.00  0.00    +0.000 A 
ATOM     22  N   UNL     1      -2.225  12.087  19.638  0.00  0.00    +0.000 NA
ATOM     23  C   UNL     1      -3.401  12.014  18.940  0.00  0.00    +0.000 A 
ATOM     24  C   UNL     1      -4.717  12.296  19.325  0.00  0.00    +0.000 A 
ATOM     25  C   UNL     1      -5.734  12.110  18.376  0.00  0.00    +0.000 A 
ATOM     26  C   UNL     1      -5.444  11.661  17.080  0.00  0.00    +0.000 A 
ATOM     27  C   UNL     1      -4.132  11.382  16.680  0.00  0.00    +0.000 A 
ATOM     28  C   UNL     1      -3.157  11.575  17.650  0.00  0.00    +0.000 A 
ATOM     29  O   UNL     1      -1.815  11.365  17.526  0.00  0.00    +0.000 OA
ENDBRANCH   6  21
TORSDOF 2
ENDMDL
MODEL 8
REMARK VINA RESULT:      -7.7      1.995      2.822
REMARK  Name = 
REMARK  2 active torsions:
REMARK  status: ('A' for Active; 'I' for Inactive)
REMARK    1  A    between atoms: C_2  and  C_3
REMARK    2  A    between atoms: C_17  and  C_18
REMARK                            x       y       z     vdW  Elec       q    Type
REMARK                         _______ _______ _______ _____ _____    ______ ____
ROOT
ATOM      1  O   UNL     1       1.857   8.041  21.743  0.00  0.00    +0.000 OA
ATOM      2  C   UNL     1       1.589   7.991  20.547  0.00  0.00    +0.000 C 
ATOM      3  N   UNL     1       0.768   8.926  19.940  0.00  0.00    +0.000 N 
ATOM      4  C   UNL     1       0.389   8.984  18.537  0.00  0.00    +0.000 C 
ATOM      5  C   UNL     1       0.635  10.332  17.907  0.00  0.00    +0.000 C 
ATOM      6  C   UNL     1       0.036  11.468  18.717  0.00  0.00    +0.000 C 
ATOM      7  C   UNL     1       0.361  11.325  20.213  0.00  0.00    +0.000 C 
ATOM      8  C   UNL     1       0.083   9.927  20.771  0.00  0.00    +0.000 C 
ENDROOT
BRANCH   2   9
ATOM      9  C   UNL     1       2.248   6.944  19.693  0.00  0.00    +0.000 A 
ATOM     10  C   UNL     1       3.062   7.409  18.725  0.00  0.00    +0.000 A 
ATOM     11  C   UNL     1       3.742   6.499  17.804  0.00  0.00    +0.000 A 
ATOM     12  C   UNL     1       4.615   6.955  16.817  0.00  0.00    +0.000 A 
ATOM     13  C   UNL     1       5.254   6.034  15.979  0.00  0.00    +0.000 A 
ATOM     14  C   UNL     1       5.022   4.664  16.125  0.00  0.00    +0.000 A 
ATOM     15  C   UNL     1       4.141   4.204  17.095  0.00  0.00    +0.000 A 
ATOM     16  C   UNL     1       3.506   5.119  17.914  0.00  0.00    +0.000 A 
ATOM     17  N   UNL     1       2.652   4.659  18.905  0.00  0.00    +0.000 N 
ATOM     18  C   UNL     1       2.132   5.460  19.873  0.00  0.00    +0.000 A 
ATOM     19  O   UNL     1       1.596   4.904  20.836  0.00  0.00    +0.000 OA
ATOM     20  H   UNL     1       2.505   3.670  19.047  0.00  0.00    +0.000 HD
ENDBRANCH   2   9
BRANCH   6  21
ATOM     21  C   UNL     1      -1.428  11.572  18.464  0.00  0.00    +0.000 A 
ATOM     22  N   UNL     1      -2.100  11.311  17.360  0.00  0.00    +0.000 NA
ATOM     23  C   UNL     1      -3.394  11.614  17.693  0.00  0.00    +0.000 A 
ATOM     24  C   UNL     1      -4.574  11.551  16.944  0.00  0.00    +0.000 A 
ATOM     25  C   UNL     1      -5.769  11.947  17.564  0.00  0.00    +0.000 A 
ATOM     26  C   UNL     1      -5.785  12.387  18.895  0.00  0.00    +0.000 A 
ATOM     27  C   UNL     1      -4.612  12.448  19.658  0.00  0.00    +0.000 A 
ATOM     28  C   UNL     1      -3.453  12.053  19.005  0.00  0.00    +0.000 A 
ATOM     29  O   UNL     1      -2.186  12.029  19.510  0.00  0.00    +0.000 OA
ENDBRANCH   6  21
TORSDOF 2
ENDMDL
MODEL 9
REMARK VINA RESULT:      -7.6      1.491      8.570
REMARK  Name = 
REMARK  2 active torsions:
REMARK  status: ('A' for Active; 'I' for Inactive)
REMARK    1  A    between atoms: C_2  and  C_3
REMARK    2  A    between atoms: C_17  and  C_18
REMARK                            x       y       z     vdW  Elec       q    Type
REMARK                         _______ _______ _______ _____ _____    ______ ____
ROOT
ATOM      1  O   UNL     1      -0.846  12.949  17.847  0.00  0.00    +0.000 OA
ATOM      2  C   UNL     1      -1.359  11.957  18.352  0.00  0.00    +0.000 C 
ATOM      3  N   UNL     1      -0.601  10.918  18.863  0.00  0.00    +0.000 N 
ATOM      4  C   UNL     1      -1.088   9.702  19.497  0.00  0.00    +0.000 C 
ATOM      5  C   UNL     1      -0.460   9.437  20.842  0.00  0.00    +0.000 C 
ATOM      6  C   UNL     1       1.056   9.499  20.796  0.00  0.00    +0.000 C 
ATOM      7  C   UNL     1       1.546  10.737  20.027  0.00  0.00    +0.000 C 
ATOM      8  C   UNL     1       0.857  10.932  18.674  0.00  0.00    +0.000 C 
ENDROOT
BRANCH   2   9
ATOM      9  C   UNL     1      -2.854  11.908  18.511  0.00  0.00    +0.000 A 
ATOM     10  C   UNL     1      -3.332  12.397  19.672  0.00  0.00    +0.000 A 
ATOM     11  C   UNL     1      -4.764  12.382  19.968  0.00  0.00    +0.000 A 
ATOM     12  C   UNL     1      -5.285  12.913  21.148  0.00  0.00    +0.000 A 
ATOM     13  C   UNL     1      -6.667  12.890  21.366  0.00  0.00    +0.000 A 
ATOM     14  C   UNL     1      -7.526  12.339  20.411  0.00  0.00    +0.000 A 
ATOM     15  C   UNL     1      -7.012  11.793  19.242  0.00  0.00    +0.000 A 
ATOM     16  C   UNL     1      -5.645  11.811  19.037  0.00  0.00    +0.000 A 
ATOM     17  N   UNL     1      -5.134  11.296  17.854  0.00  0.00    +0.000 N 
ATOM     18  C   UNL     1      -3.834  11.437  17.479  0.00  0.00    +0.000 A 
ATOM     19  O   UNL     1      -3.553  11.164  16.309  0.00  0.00    +0.000 OA
ATOM     20  H   UNL     1      -5.746  10.929  17.139  0.00  0.00    +0.000 HD
ENDBRANCH   2   9
BRANCH   6  21
ATOM     21  C   UNL     1       1.612   8.234  20.240  0.00  0.00    +0.000 A 
ATOM     22  N   UNL     1       2.245   8.034  19.100  0.00  0.00    +0.000 NA
ATOM     23  C   UNL     1       2.490   6.687  19.100  0.00  0.00    +0.000 A 
ATOM     24  C   UNL     1       3.124   5.868  18.159  0.00  0.00    +0.000 A 
ATOM     25  C   UNL     1       3.215   4.496  18.435  0.00  0.00    +0.000 A 
ATOM     26  C   UNL     1       2.690   3.957  19.619  0.00  0.00    +0.000 A 
ATOM     27  C   UNL     1       2.059   4.766  20.572  0.00  0.00    +0.000 A 
ATOM     28  C   UNL     1       1.987   6.116  20.257  0.00  0.00    +0.000 A 
ATOM     29  O   UNL     1       1.417   7.109  20.999  0.00  0.00    +0.000 OA
ENDBRANCH   6  21
TORSDOF 2
ENDMDL
