MODEL 1
REMARK VINA RESULT:      -7.7      0.000      0.000
REMARK  Name = 
REMARK  3 active torsions:
REMARK  status: ('A' for Active; 'I' for Inactive)
REMARK    1  A    between atoms: C_2  and  C_3
REMARK    2  A    between atoms: N_7  and  C_8
REMARK    3  A    between atoms: C_20  and  C_21
REMARK                            x       y       z     vdW  Elec       q    Type
REMARK                         _______ _______ _______ _____ _____    ______ ____
ROOT
ATOM      1  O   UNL     1       3.947   3.024  17.640  0.00  0.00    +0.000 OA
ATOM      2  C   UNL     1       4.686   3.615  18.432  0.00  0.00    +0.000 C 
ATOM      3  N   UNL     1       5.935   4.071  18.026  0.00  0.00    +0.000 N 
ATOM      4  C   UNL     1       6.889   4.825  18.831  0.00  0.00    +0.000 C 
ATOM      5  C   UNL     1       6.955   6.259  18.328  0.00  0.00    +0.000 C 
ATOM      6  C   UNL     1       7.357   6.293  16.856  0.00  0.00    +0.000 C 
ATOM      7  C   UNL     1       6.484   5.370  15.972  0.00  0.00    +0.000 C 
ATOM      8  C   UNL     1       6.313   3.972  16.607  0.00  0.00    +0.000 C 
ENDROOT
BRANCH   7   9
ATOM      9  C   UNL     1       7.084   5.253  14.603  0.00  0.00    +0.000 A 
ATOM     10  N   UNL     1       8.183   5.857  14.190  0.00  0.00    +0.000 NA
ATOM     11  N   UNL     1       8.413   5.506  12.883  0.00  0.00    +0.000 NA
ATOM     12  C   UNL     1       7.459   4.683  12.517  0.00  0.00    +0.000 A 
ATOM     13  C   UNL     1       7.193   4.001  11.298  0.00  0.00    +0.000 A 
ATOM     14  C   UNL     1       6.123   3.184  11.216  0.00  0.00    +0.000 A 
ATOM     15  C   UNL     1       5.232   2.986  12.347  0.00  0.00    +0.000 A 
ATOM     16  C   UNL     1       5.479   3.632  13.499  0.00  0.00    +0.000 A 
ATOM     17  N   UNL     1       6.584   4.477  13.577  0.00  0.00    +0.000 N 
ENDBRANCH   7   9
BRANCH   2  18
ATOM     18  C   UNL     1       4.191   3.951  19.844  0.00  0.00    +0.000 C 
ATOM     19  C   UNL     1       2.808   3.417  20.185  0.00  0.00    +0.000 C 
ATOM     20  C   UNL     1       1.875   4.547  19.837  0.00  0.00    +0.000 C 
ATOM     21  O   UNL     1       0.670   4.378  19.721  0.00  0.00    +0.000 OA
ATOM     22  N   UNL     1       2.624   5.725  19.784  0.00  0.00    +0.000 N 
ATOM     23  C   UNL     1       4.022   5.455  20.053  0.00  0.00    +0.000 C 
BRANCH  22  24
ATOM     24  C   UNL     1       2.104   7.042  19.629  0.00  0.00    +0.000 A 
ATOM     25  C   UNL     1       2.208   7.733  18.413  0.00  0.00    +0.000 A 
ATOM     26  C   UNL     1       1.669   9.016  18.253  0.00  0.00    +0.000 A 
ATOM     27  C   UNL     1       1.024   9.637  19.314  0.00  0.00    +0.000 A 
ATOM     28  C   UNL     1       0.925   8.974  20.532  0.00  0.00    +0.000 A 
ATOM     29 CL   UNL     1       0.123   9.732  21.851  0.00  0.00    +0.000 Cl
ATOM     30  C   UNL     1       1.458   7.692  20.693  0.00  0.00    +0.000 A 
ENDBRANCH  22  24
ENDBRANCH   2  18
TORSDOF 3
ENDMDL
MODEL 2
REMARK VINA RESULT:      -7.7      5.752      9.619
REMARK  Name = 
REMARK  3 active torsions:
REMARK  status: ('A' for Active; 'I' for Inactive)
REMARK    1  A    between atoms: C_2  and  C_3
REMARK    2  A    between atoms: N_7  and  C_8
REMARK    3  A    between atoms: C_20  and  C_21
REMARK                            x       y       z     vdW  Elec       q    Type
REMARK                         _______ _______ _______ _____ _____    ______ ____
ROOT
ATOM      1  O   UNL     1      -0.478  11.368  22.973  0.00  0.00    +0.000 OA
ATOM      2  C   UNL     1      -0.557  12.377  22.269  0.00  0.00    +0.000 C 
ATOM      3  N   UNL     1       0.165  12.469  21.085  0.00  0.00    +0.000 N 
ATOM      4  C   UNL     1       0.134  13.571  20.129  0.00  0.00    +0.000 C 
ATOM      5  C   UNL     1      -0.585  13.126  18.865  0.00  0.00    +0.000 C 
ATOM      6  C   UNL     1       0.109  11.912  18.253  0.00  0.00    +0.000 C 
ATOM      7  C   UNL     1       0.329  10.767  19.272  0.00  0.00    +0.000 C 
ATOM      8  C   UNL     1       0.911  11.295  20.601  0.00  0.00    +0.000 C 
ENDROOT
BRANCH   7   9
ATOM      9  C   UNL     1       1.231   9.723  18.684  0.00  0.00    +0.000 A 
ATOM     10  N   UNL     1       1.861   9.813  17.526  0.00  0.00    +0.000 NA
ATOM     11  N   UNL     1       2.588   8.665  17.331  0.00  0.00    +0.000 NA
ATOM     12  C   UNL     1       2.404   7.894  18.377  0.00  0.00    +0.000 A 
ATOM     13  C   UNL     1       2.907   6.610  18.724  0.00  0.00    +0.000 A 
ATOM     14  C   UNL     1       2.552   6.056  19.902  0.00  0.00    +0.000 A 
ATOM     15  C   UNL     1       1.664   6.743  20.825  0.00  0.00    +0.000 A 
ATOM     16  C   UNL     1       1.185   7.954  20.498  0.00  0.00    +0.000 A 
ATOM     17  N   UNL     1       1.552   8.520  19.279  0.00  0.00    +0.000 N 
ENDBRANCH   7   9
BRANCH   2  18
ATOM     18  C   UNL     1      -1.535  13.500  22.636  0.00  0.00    +0.000 C 
ATOM     19  C   UNL     1      -2.334  13.266  23.909  0.00  0.00    +0.000 C 
ATOM     20  C   UNL     1      -3.610  12.621  23.435  0.00  0.00    +0.000 C 
ATOM     21  O   UNL     1      -4.367  12.045  24.202  0.00  0.00    +0.000 OA
ATOM     22  N   UNL     1      -3.754  12.896  22.073  0.00  0.00    +0.000 N 
ATOM     23  C   UNL     1      -2.632  13.674  21.587  0.00  0.00    +0.000 C 
BRANCH  22  24
ATOM     24  C   UNL     1      -4.893  12.594  21.273  0.00  0.00    +0.000 A 
ATOM     25  C   UNL     1      -6.189  12.607  21.808  0.00  0.00    +0.000 A 
ATOM     26  C   UNL     1      -7.311  12.340  21.012  0.00  0.00    +0.000 A 
ATOM     27  C   UNL     1      -7.153  12.041  19.666  0.00  0.00    +0.000 A 
ATOM     28  C   UNL     1      -5.875  12.007  19.121  0.00  0.00    +0.000 A 
ATOM     29 CL   UNL     1      -5.669  11.645  17.453  0.00  0.00    +0.000 Cl
ATOM     30  C   UNL     1      -4.754  12.278  19.912  0.00  0.00    +0.000 A 
ENDBRANCH  22  24
ENDBRANCH   2  18
TORSDOF 3
ENDMDL
MODEL 3
REMARK VINA RESULT:      -7.7      5.103      8.111
REMARK  Name = 
REMARK  3 active torsions:
REMARK  status: ('A' for Active; 'I' for Inactive)
REMARK    1  A    between atoms: C_2  and  C_3
REMARK    2  A    between atoms: N_7  and  C_8
REMARK    3  A    between atoms: C_20  and  C_21
REMARK                            x       y       z     vdW  Elec       q    Type
REMARK                         _______ _______ _______ _____ _____    ______ ____
ROOT
ATOM      1  O   UNL     1      -0.524   9.205  21.045  0.00  0.00    +0.000 OA
ATOM      2  C   UNL     1       0.056   9.903  20.211  0.00  0.00    +0.000 C 
ATOM      3  N   UNL     1       1.309   9.537  19.733  0.00  0.00    +0.000 N 
ATOM      4  C   UNL     1       2.090  10.230  18.715  0.00  0.00    +0.000 C 
ATOM      5  C   UNL     1       2.111   9.402  17.440  0.00  0.00    +0.000 C 
ATOM      6  C   UNL     1       2.699   8.019  17.709  0.00  0.00    +0.000 C 
ATOM      7  C   UNL     1       2.022   7.299  18.901  0.00  0.00    +0.000 C 
ATOM      8  C   UNL     1       1.877   8.235  20.121  0.00  0.00    +0.000 C 
ENDROOT
BRANCH   7   9
ATOM      9  C   UNL     1       2.804   6.074  19.271  0.00  0.00    +0.000 A 
ATOM     10  N   UNL     1       4.114   5.936  19.171  0.00  0.00    +0.000 NA
ATOM     11  N   UNL     1       4.458   4.680  19.603  0.00  0.00    +0.000 NA
ATOM     12  C   UNL     1       3.357   4.069  19.973  0.00  0.00    +0.000 A 
ATOM     13  C   UNL     1       3.109   2.774  20.505  0.00  0.00    +0.000 A 
ATOM     14  C   UNL     1       1.846   2.418  20.817  0.00  0.00    +0.000 A 
ATOM     15  C   UNL     1       0.731   3.328  20.620  0.00  0.00    +0.000 A 
ATOM     16  C   UNL     1       0.962   4.551  20.115  0.00  0.00    +0.000 A 
ATOM     17  N   UNL     1       2.268   4.913  19.791  0.00  0.00    +0.000 N 
ENDBRANCH   7   9
BRANCH   2  18
ATOM     18  C   UNL     1      -0.643  11.127  19.608  0.00  0.00    +0.000 C 
ATOM     19  C   UNL     1      -0.021  12.467  19.970  0.00  0.00    +0.000 C 
ATOM     20  C   UNL     1      -0.784  12.916  21.188  0.00  0.00    +0.000 C 
ATOM     21  O   UNL     1      -0.376  13.812  21.912  0.00  0.00    +0.000 OA
ATOM     22  N   UNL     1      -1.987  12.209  21.230  0.00  0.00    +0.000 N 
ATOM     23  C   UNL     1      -2.075  11.282  20.119  0.00  0.00    +0.000 C 
BRANCH  22  24
ATOM     24  C   UNL     1      -3.060  12.435  22.138  0.00  0.00    +0.000 A 
ATOM     25  C   UNL     1      -2.938  12.146  23.506  0.00  0.00    +0.000 A 
ATOM     26  C   UNL     1      -3.984  12.398  24.402  0.00  0.00    +0.000 A 
ATOM     27  C   UNL     1      -5.180  12.934  23.943  0.00  0.00    +0.000 A 
ATOM     28  C   UNL     1      -5.326  13.211  22.590  0.00  0.00    +0.000 A 
ATOM     29 CL   UNL     1      -6.801  13.880  22.012  0.00  0.00    +0.000 Cl
ATOM     30  C   UNL     1      -4.282  12.965  21.693  0.00  0.00    +0.000 A 
ENDBRANCH  22  24
ENDBRANCH   2  18
TORSDOF 3
ENDMDL
MODEL 4
REMARK VINA RESULT:      -7.7      3.644      8.762
REMARK  Name = 
REMARK  3 active torsions:
REMARK  status: ('A' for Active; 'I' for Inactive)
REMARK    1  A    between atoms: C_2  and  C_3
REMARK    2  A    between atoms: N_7  and  C_8
REMARK    3  A    between atoms: C_20  and  C_21
REMARK                            x       y       z     vdW  Elec       q    Type
REMARK                         _______ _______ _______ _____ _____    ______ ____
ROOT
ATOM      1  O   UNL     1       4.091   6.961  16.821  0.00  0.00    +0.000 OA
ATOM      2  C   UNL     1       4.013   6.197  17.786  0.00  0.00    +0.000 C 
ATOM      3  N   UNL     1       3.499   6.641  18.998  0.00  0.00    +0.000 N 
ATOM      4  C   UNL     1       3.299   5.845  20.204  0.00  0.00    +0.000 C 
ATOM      5  C   UNL     1       1.810   5.626  20.427  0.00  0.00    +0.000 C 
ATOM      6  C   UNL     1       1.085   6.964  20.548  0.00  0.00    +0.000 C 
ATOM      7  C   UNL     1       1.398   7.927  19.377  0.00  0.00    +0.000 C 
ATOM      8  C   UNL     1       2.913   7.989  19.084  0.00  0.00    +0.000 C 
ENDROOT
BRANCH   7   9
ATOM      9  C   UNL     1       0.867   9.296  19.683  0.00  0.00    +0.000 A 
ATOM     10  N   UNL     1       1.248  10.063  20.687  0.00  0.00    +0.000 NA
ATOM     11  N   UNL     1       0.539  11.237  20.638  0.00  0.00    +0.000 NA
ATOM     12  C   UNL     1      -0.258  11.178  19.597  0.00  0.00    +0.000 A 
ATOM     13  C   UNL     1      -1.200  12.094  19.055  0.00  0.00    +0.000 A 
ATOM     14  C   UNL     1      -1.879  11.763  17.937  0.00  0.00    +0.000 A 
ATOM     15  C   UNL     1      -1.670  10.487  17.274  0.00  0.00    +0.000 A 
ATOM     16  C   UNL     1      -0.784   9.617  17.786  0.00  0.00    +0.000 A 
ATOM     17  N   UNL     1      -0.087   9.964  18.942  0.00  0.00    +0.000 N 
ENDBRANCH   7   9
BRANCH   2  18
ATOM     18  C   UNL     1       4.381   4.717  17.629  0.00  0.00    +0.000 C 
ATOM     19  C   UNL     1       5.759   4.338  18.151  0.00  0.00    +0.000 C 
ATOM     20  C   UNL     1       6.658   4.453  16.949  0.00  0.00    +0.000 C 
ATOM     21  O   UNL     1       7.876   4.492  17.054  0.00  0.00    +0.000 OA
ATOM     22  N   UNL     1       5.859   4.409  15.805  0.00  0.00    +0.000 N 
ATOM     23  C   UNL     1       4.459   4.294  16.163  0.00  0.00    +0.000 C 
BRANCH  22  24
ATOM     24  C   UNL     1       6.323   4.342  14.460  0.00  0.00    +0.000 A 
ATOM     25  C   UNL     1       7.281   5.241  13.970  0.00  0.00    +0.000 A 
ATOM     26  C   UNL     1       7.760   5.155  12.656  0.00  0.00    +0.000 A 
ATOM     27  C   UNL     1       7.277   4.171  11.803  0.00  0.00    +0.000 A 
ATOM     28  C   UNL     1       6.316   3.281  12.266  0.00  0.00    +0.000 A 
ATOM     29 CL   UNL     1       5.716   2.055  11.220  0.00  0.00    +0.000 Cl
ATOM     30  C   UNL     1       5.840   3.362  13.578  0.00  0.00    +0.000 A 
ENDBRANCH  22  24
ENDBRANCH   2  18
TORSDOF 3
ENDMDL
MODEL 5
REMARK VINA RESULT:      -7.6      5.035      7.873
REMARK  Name = 
REMARK  3 active torsions:
REMARK  status: ('A' for Active; 'I' for Inactive)
REMARK    1  A    between atoms: C_2  and  C_3
REMARK    2  A    between atoms: N_7  and  C_8
REMARK    3  A    between atoms: C_20  and  C_21
REMARK                            x       y       z     vdW  Elec       q    Type
REMARK                         _______ _______ _______ _____ _____    ______ ____
ROOT
ATOM      1  O   UNL     1       2.072  11.222  18.208  0.00  0.00    +0.000 OA
ATOM      2  C   UNL     1       1.350  11.031  19.189  0.00  0.00    +0.000 C 
ATOM      3  N   UNL     1       0.902   9.752  19.497  0.00  0.00    +0.000 N 
ATOM      4  C   UNL     1       0.089   9.367  20.646  0.00  0.00    +0.000 C 
ATOM      5  C   UNL     1       0.939   8.571  21.625  0.00  0.00    +0.000 C 
ATOM      6  C   UNL     1       1.519   7.333  20.946  0.00  0.00    +0.000 C 
ATOM      7  C   UNL     1       2.249   7.660  19.620  0.00  0.00    +0.000 C 
ATOM      8  C   UNL     1       1.411   8.604  18.730  0.00  0.00    +0.000 C 
ENDROOT
BRANCH   7   9
ATOM      9  C   UNL     1       2.567   6.392  18.884  0.00  0.00    +0.000 A 
ATOM     10  N   UNL     1       1.934   5.241  19.023  0.00  0.00    +0.000 NA
ATOM     11  N   UNL     1       2.510   4.318  18.186  0.00  0.00    +0.000 NA
ATOM     12  C   UNL     1       3.480   4.920  17.537  0.00  0.00    +0.000 A 
ATOM     13  C   UNL     1       4.398   4.469  16.550  0.00  0.00    +0.000 A 
ATOM     14  C   UNL     1       5.295   5.336  16.036  0.00  0.00    +0.000 A 
ATOM     15  C   UNL     1       5.346   6.721  16.470  0.00  0.00    +0.000 A 
ATOM     16  C   UNL     1       4.481   7.149  17.406  0.00  0.00    +0.000 A 
ATOM     17  N   UNL     1       3.559   6.249  17.935  0.00  0.00    +0.000 N 
ENDBRANCH   7   9
BRANCH   2  18
ATOM     18  C   UNL     1       1.026  12.186  20.144  0.00  0.00    +0.000 C 
ATOM     19  C   UNL     1       0.069  13.231  19.590  0.00  0.00    +0.000 C 
ATOM     20  C   UNL     1       0.969  14.280  18.992  0.00  0.00    +0.000 C 
ATOM     21  O   UNL     1       0.548  15.127  18.218  0.00  0.00    +0.000 OA
ATOM     22  N   UNL     1       2.240  14.131  19.552  0.00  0.00    +0.000 N 
ATOM     23  C   UNL     1       2.262  13.019  20.481  0.00  0.00    +0.000 C 
BRANCH  22  24
ATOM     24  C   UNL     1       3.345  15.009  19.367  0.00  0.00    +0.000 A 
ATOM     25  C   UNL     1       3.367  16.290  19.939  0.00  0.00    +0.000 A 
ATOM     26  C   UNL     1       4.469  17.141  19.782  0.00  0.00    +0.000 A 
ATOM     27  C   UNL     1       5.566  16.729  19.039  0.00  0.00    +0.000 A 
ATOM     28  C   UNL     1       5.556  15.470  18.452  0.00  0.00    +0.000 A 
ATOM     29 CL   UNL     1       6.914  14.947  17.534  0.00  0.00    +0.000 Cl
ATOM     30  C   UNL     1       4.460  14.617  18.610  0.00  0.00    +0.000 A 
ENDBRANCH  22  24
ENDBRANCH   2  18
TORSDOF 3
ENDMDL
MODEL 6
REMARK VINA RESULT:      -7.6      3.608      9.131
REMARK  Name = 
REMARK  3 active torsions:
REMARK  status: ('A' for Active; 'I' for Inactive)
REMARK    1  A    between atoms: C_2  and  C_3
REMARK    2  A    between atoms: N_7  and  C_8
REMARK    3  A    between atoms: C_20  and  C_21
REMARK                            x       y       z     vdW  Elec       q    Type
REMARK                         _______ _______ _______ _____ _____    ______ ____
ROOT
ATOM      1  O   UNL     1       4.140   6.878  16.802  0.00  0.00    +0.000 OA
ATOM      2  C   UNL     1       4.073   6.112  17.767  0.00  0.00    +0.000 C 
ATOM      3  N   UNL     1       3.566   6.552  18.984  0.00  0.00    +0.000 N 
ATOM      4  C   UNL     1       3.379   5.752  20.189  0.00  0.00    +0.000 C 
ATOM      5  C   UNL     1       1.894   5.526  20.423  0.00  0.00    +0.000 C 
ATOM      6  C   UNL     1       1.162   6.859  20.552  0.00  0.00    +0.000 C 
ATOM      7  C   UNL     1       1.462   7.826  19.380  0.00  0.00    +0.000 C 
ATOM      8  C   UNL     1       2.974   7.897  19.075  0.00  0.00    +0.000 C 
ENDROOT
BRANCH   7   9
ATOM      9  C   UNL     1       0.926   9.192  19.692  0.00  0.00    +0.000 A 
ATOM     10  N   UNL     1       0.920  10.224  18.868  0.00  0.00    +0.000 NA
ATOM     11  N   UNL     1       0.351  11.295  19.509  0.00  0.00    +0.000 NA
ATOM     12  C   UNL     1       0.005  10.902  20.713  0.00  0.00    +0.000 A 
ATOM     13  C   UNL     1      -0.625  11.571  21.797  0.00  0.00    +0.000 A 
ATOM     14  C   UNL     1      -0.879  10.893  22.936  0.00  0.00    +0.000 A 
ATOM     15  C   UNL     1      -0.521   9.492  23.079  0.00  0.00    +0.000 A 
ATOM     16  C   UNL     1       0.078   8.858  22.057  0.00  0.00    +0.000 A 
ATOM     17  N   UNL     1       0.340   9.564  20.884  0.00  0.00    +0.000 N 
ENDBRANCH   7   9
BRANCH   2  18
ATOM     18  C   UNL     1       4.448   4.634  17.605  0.00  0.00    +0.000 C 
ATOM     19  C   UNL     1       5.835   4.263  18.106  0.00  0.00    +0.000 C 
ATOM     20  C   UNL     1       6.717   4.384  16.890  0.00  0.00    +0.000 C 
ATOM     21  O   UNL     1       7.935   4.429  16.977  0.00  0.00    +0.000 OA
ATOM     22  N   UNL     1       5.900   4.334  15.758  0.00  0.00    +0.000 N 
ATOM     23  C   UNL     1       4.507   4.212  16.137  0.00  0.00    +0.000 C 
BRANCH  22  24
ATOM     24  C   UNL     1       6.345   4.270  14.407  0.00  0.00    +0.000 A 
ATOM     25  C   UNL     1       7.280   5.183  13.898  0.00  0.00    +0.000 A 
ATOM     26  C   UNL     1       7.740   5.100  12.578  0.00  0.00    +0.000 A 
ATOM     27  C   UNL     1       7.261   4.105  11.737  0.00  0.00    +0.000 A 
ATOM     28  C   UNL     1       6.322   3.201  12.217  0.00  0.00    +0.000 A 
ATOM     29 CL   UNL     1       5.727   1.960  11.185  0.00  0.00    +0.000 Cl
ATOM     30  C   UNL     1       5.865   3.279  13.536  0.00  0.00    +0.000 A 
ENDBRANCH  22  24
ENDBRANCH   2  18
TORSDOF 3
ENDMDL
MODEL 7
REMARK VINA RESULT:      -7.5      4.648      7.180
REMARK  Name = 
REMARK  3 active torsions:
REMARK  status: ('A' for Active; 'I' for Inactive)
REMARK    1  A    between atoms: C_2  and  C_3
REMARK    2  A    between atoms: N_7  and  C_8
REMARK    3  A    between atoms: C_20  and  C_21
REMARK                            x       y       z     vdW  Elec       q    Type
REMARK                         _______ _______ _______ _____ _____    ______ ____
ROOT
ATOM      1  O   UNL     1       2.250  10.651  17.920  0.00  0.00    +0.000 OA
ATOM      2  C   UNL     1       1.582  10.323  18.904  0.00  0.00    +0.000 C 
ATOM      3  N   UNL     1       1.251   8.991  19.120  0.00  0.00    +0.000 N 
ATOM      4  C   UNL     1       0.515   8.450  20.258  0.00  0.00    +0.000 C 
ATOM      5  C   UNL     1       1.462   7.653  21.142  0.00  0.00    +0.000 C 
ATOM      6  C   UNL     1       2.116   6.526  20.348  0.00  0.00    +0.000 C 
ATOM      7  C   UNL     1       2.767   7.016  19.032  0.00  0.00    +0.000 C 
ATOM      8  C   UNL     1       1.824   7.953  18.247  0.00  0.00    +0.000 C 
ENDROOT
BRANCH   7   9
ATOM      9  C   UNL     1       3.160   5.841  18.186  0.00  0.00    +0.000 A 
ATOM     10  N   UNL     1       2.416   4.775  17.954  0.00  0.00    +0.000 NA
ATOM     11  N   UNL     1       3.114   3.920  17.138  0.00  0.00    +0.000 NA
ATOM     12  C   UNL     1       4.271   4.479  16.872  0.00  0.00    +0.000 A 
ATOM     13  C   UNL     1       5.379   4.064  16.084  0.00  0.00    +0.000 A 
ATOM     14  C   UNL     1       6.454   4.873  15.975  0.00  0.00    +0.000 A 
ATOM     15  C   UNL     1       6.505   6.159  16.648  0.00  0.00    +0.000 A 
ATOM     16  C   UNL     1       5.461   6.552  17.396  0.00  0.00    +0.000 A 
ATOM     17  N   UNL     1       4.355   5.712  17.508  0.00  0.00    +0.000 N 
ENDBRANCH   7   9
BRANCH   2  18
ATOM     18  C   UNL     1       1.200  11.368  19.959  0.00  0.00    +0.000 C 
ATOM     19  C   UNL     1      -0.208  11.927  19.830  0.00  0.00    +0.000 C 
ATOM     20  C   UNL     1      -0.042  13.168  18.993  0.00  0.00    +0.000 C 
ATOM     21  O   UNL     1      -0.993  13.720  18.458  0.00  0.00    +0.000 OA
ATOM     22  N   UNL     1       1.299  13.553  19.051  0.00  0.00    +0.000 N 
ATOM     23  C   UNL     1       2.062  12.626  19.863  0.00  0.00    +0.000 C 
BRANCH  22  24
ATOM     24  C   UNL     1       1.851  14.752  18.518  0.00  0.00    +0.000 A 
ATOM     25  C   UNL     1       3.074  14.756  17.832  0.00  0.00    +0.000 A 
ATOM     26  C   UNL     1       3.600  15.931  17.281  0.00  0.00    +0.000 A 
ATOM     27  C   UNL     1       2.915  17.131  17.419  0.00  0.00    +0.000 A 
ATOM     28  C   UNL     1       1.710  17.151  18.109  0.00  0.00    +0.000 A 
ATOM     29 CL   UNL     1       0.850  18.631  18.280  0.00  0.00    +0.000 Cl
ATOM     30  C   UNL     1       1.180  15.978  18.656  0.00  0.00    +0.000 A 
ENDBRANCH  22  24
ENDBRANCH   2  18
TORSDOF 3
ENDMDL
MODEL 8
REMARK VINA RESULT:      -7.5      4.999      7.793
REMARK  Name = 
REMARK  3 active torsions:
REMARK  status: ('A' for Active; 'I' for Inactive)
REMARK    1  A    between atoms: C_2  and  C_3
REMARK    2  A    between atoms: N_7  and  C_8
REMARK    3  A    between atoms: C_20  and  C_21
REMARK                            x       y       z     vdW  Elec       q    Type
REMARK                         _______ _______ _______ _____ _____    ______ ____
ROOT
ATOM      1  O   UNL     1       1.972  11.168  18.274  0.00  0.00    +0.000 OA
ATOM      2  C   UNL     1       1.279  10.945  19.270  0.00  0.00    +0.000 C 
ATOM      3  N   UNL     1       0.867   9.652  19.568  0.00  0.00    +0.000 N 
ATOM      4  C   UNL     1       0.093   9.231  20.731  0.00  0.00    +0.000 C 
ATOM      5  C   UNL     1       0.984   8.439  21.675  0.00  0.00    +0.000 C 
ATOM      6  C   UNL     1       1.574   7.225  20.962  0.00  0.00    +0.000 C 
ATOM      7  C   UNL     1       2.262   7.588  19.623  0.00  0.00    +0.000 C 
ATOM      8  C   UNL     1       1.382   8.528  18.770  0.00  0.00    +0.000 C 
ENDROOT
BRANCH   7   9
ATOM      9  C   UNL     1       2.589   6.340  18.859  0.00  0.00    +0.000 A 
ATOM     10  N   UNL     1       1.961   5.183  18.968  0.00  0.00    +0.000 NA
ATOM     11  N   UNL     1       2.545   4.283  18.112  0.00  0.00    +0.000 NA
ATOM     12  C   UNL     1       3.515   4.904  17.482  0.00  0.00    +0.000 A 
ATOM     13  C   UNL     1       4.440   4.481  16.489  0.00  0.00    +0.000 A 
ATOM     14  C   UNL     1       5.335   5.363  15.999  0.00  0.00    +0.000 A 
ATOM     15  C   UNL     1       5.377   6.739  16.466  0.00  0.00    +0.000 A 
ATOM     16  C   UNL     1       4.507   7.140  17.408  0.00  0.00    +0.000 A 
ATOM     17  N   UNL     1       3.586   6.223  17.912  0.00  0.00    +0.000 N 
ENDBRANCH   7   9
BRANCH   2  18
ATOM     18  C   UNL     1       0.954  12.078  20.251  0.00  0.00    +0.000 C 
ATOM     19  C   UNL     1      -0.055  13.097  19.746  0.00  0.00    +0.000 C 
ATOM     20  C   UNL     1       0.788  14.183  19.130  0.00  0.00    +0.000 C 
ATOM     21  O   UNL     1       0.313  15.025  18.382  0.00  0.00    +0.000 OA
ATOM     22  N   UNL     1       2.083  14.068  19.641  0.00  0.00    +0.000 N 
ATOM     23  C   UNL     1       2.174  12.946  20.554  0.00  0.00    +0.000 C 
BRANCH  22  24
ATOM     24  C   UNL     1       3.152  14.983  19.428  0.00  0.00    +0.000 A 
ATOM     25  C   UNL     1       4.114  14.769  18.429  0.00  0.00    +0.000 A 
ATOM     26  C   UNL     1       5.147  15.687  18.201  0.00  0.00    +0.000 A 
ATOM     27  C   UNL     1       5.244  16.833  18.978  0.00  0.00    +0.000 A 
ATOM     28  C   UNL     1       4.310  17.055  19.983  0.00  0.00    +0.000 A 
ATOM     29 CL   UNL     1       4.418  18.475  20.948  0.00  0.00    +0.000 Cl
ATOM     30  C   UNL     1       3.275  16.143  20.210  0.00  0.00    +0.000 A 
ENDBRANCH  22  24
ENDBRANCH   2  18
TORSDOF 3
ENDMDL
MODEL 9
REMARK VINA RESULT:      -7.4      4.916      7.919
REMARK  Name = 
REMARK  3 active torsions:
REMARK  status: ('A' for Active; 'I' for Inactive)
REMARK    1  A    between atoms: C_2  and  C_3
REMARK    2  A    between atoms: N_7  and  C_8
REMARK    3  A    between atoms: C_20  and  C_21
REMARK                            x       y       z     vdW  Elec       q    Type
REMARK                         _______ _______ _______ _____ _____    ______ ____
ROOT
ATOM      1  O   UNL     1       2.250  11.301  17.909  0.00  0.00    +0.000 OA
ATOM      2  C   UNL     1       1.373  11.263  18.774  0.00  0.00    +0.000 C 
ATOM      3  N   UNL     1       0.843  10.046  19.189  0.00  0.00    +0.000 N 
ATOM      4  C   UNL     1      -0.156   9.842  20.232  0.00  0.00    +0.000 C 
ATOM      5  C   UNL     1       0.499   9.197  21.444  0.00  0.00    +0.000 C 
ATOM      6  C   UNL     1       1.146   7.869  21.060  0.00  0.00    +0.000 C 
ATOM      7  C   UNL     1       2.090   7.990  19.839  0.00  0.00    +0.000 C 
ATOM      8  C   UNL     1       1.437   8.794  18.694  0.00  0.00    +0.000 C 
ENDROOT
BRANCH   7   9
ATOM      9  C   UNL     1       2.487   6.625  19.361  0.00  0.00    +0.000 A 
ATOM     10  N   UNL     1       2.043   5.479  19.845  0.00  0.00    +0.000 NA
ATOM     11  N   UNL     1       2.632   4.451  19.153  0.00  0.00    +0.000 NA
ATOM     12  C   UNL     1       3.421   4.980  18.247  0.00  0.00    +0.000 A 
ATOM     13  C   UNL     1       4.262   4.409  17.254  0.00  0.00    +0.000 A 
ATOM     14  C   UNL     1       4.958   5.218  16.430  0.00  0.00    +0.000 A 
ATOM     15  C   UNL     1       4.869   6.665  16.536  0.00  0.00    +0.000 A 
ATOM     16  C   UNL     1       4.078   7.208  17.476  0.00  0.00    +0.000 A 
ATOM     17  N   UNL     1       3.363   6.367  18.326  0.00  0.00    +0.000 N 
ENDBRANCH   7   9
BRANCH   2  18
ATOM     18  C   UNL     1       0.931  12.549  19.483  0.00  0.00    +0.000 C 
ATOM     19  C   UNL     1       0.871  13.783  18.596  0.00  0.00    +0.000 C 
ATOM     20  C   UNL     1       2.222  14.428  18.762  0.00  0.00    +0.000 C 
ATOM     21  O   UNL     1       2.629  15.284  17.990  0.00  0.00    +0.000 OA
ATOM     22  N   UNL     1       2.794  13.938  19.938  0.00  0.00    +0.000 N 
ATOM     23  C   UNL     1       1.915  12.975  20.571  0.00  0.00    +0.000 C 
BRANCH  22  24
ATOM     24  C   UNL     1       4.001  14.397  20.537  0.00  0.00    +0.000 A 
ATOM     25  C   UNL     1       5.024  14.979  19.773  0.00  0.00    +0.000 A 
ATOM     26  C   UNL     1       6.198  15.458  20.368  0.00  0.00    +0.000 A 
ATOM     27  C   UNL     1       6.376  15.351  21.741  0.00  0.00    +0.000 A 
ATOM     28  C   UNL     1       5.382  14.763  22.512  0.00  0.00    +0.000 A 
ATOM     29 CL   UNL     1       5.589  14.632  24.215  0.00  0.00    +0.000 Cl
ATOM     30  C   UNL     1       4.206  14.288  21.922  0.00  0.00    +0.000 A 
ENDBRANCH  22  24
ENDBRANCH   2  18
TORSDOF 3
ENDMDL
