MODEL 1
REMARK VINA RESULT:      -9.1      0.000      0.000
REMARK  Name = 
REMARK  5 active torsions:
REMARK  status: ('A' for Active; 'I' for Inactive)
REMARK    1  A    between atoms: C_1  and  C_2
REMARK    2  A    between atoms: C_2  and  C_3
REMARK    3  A    between atoms: N_15  and  C_16
REMARK    4  A    between atoms: C_16  and  C_17
REMARK    5  A    between atoms: N_19  and  C_20
REMARK                            x       y       z     vdW  Elec       q    Type
REMARK                         _______ _______ _______ _____ _____    ______ ____
ROOT
ATOM      1  C   UNL     1      -0.267  13.951  20.261  0.00  0.00    +0.000 C 
ATOM      2  C   UNL     1      -0.707  12.522  20.542  0.00  0.00    +0.000 C 
ATOM      3  N   UNL     1      -1.676  12.494  21.618  0.00  0.00    +0.000 N 
ATOM      4  C   UNL     1      -1.408  11.505  22.536  0.00  0.00    +0.000 C 
ATOM      5  O   UNL     1      -2.156  11.210  23.451  0.00  0.00    +0.000 OA
ATOM      6  N   UNL     1      -0.207  10.953  22.229  0.00  0.00    +0.000 N 
ATOM      7  C   UNL     1       0.382  11.659  21.222  0.00  0.00    +0.000 C 
ATOM      8  O   UNL     1       1.555  11.548  20.884  0.00  0.00    +0.000 OA
ATOM      9  H   UNL     1      -2.565  12.978  21.627  0.00  0.00    +0.000 HD
ENDROOT
BRANCH   2  10
ATOM     10  C   UNL     1      -1.168  11.779  19.281  0.00  0.00    +0.000 A 
ATOM     11  C   UNL     1      -0.449  10.627  18.853  0.00  0.00    +0.000 A 
ATOM     12  C   UNL     1      -0.865   9.862  17.760  0.00  0.00    +0.000 A 
ATOM     13  C   UNL     1      -2.002  10.262  17.099  0.00  0.00    +0.000 A 
ATOM     14  C   UNL     1      -2.714  11.368  17.495  0.00  0.00    +0.000 A 
ATOM     15  C   UNL     1      -2.331  12.141  18.574  0.00  0.00    +0.000 A 
ATOM     16  O   UNL     1      -3.811  11.582  16.720  0.00  0.00    +0.000 OA
ATOM     17  C   UNL     1      -3.674  10.515  15.757  0.00  0.00    +0.000 C 
ATOM     18  O   UNL     1      -2.556   9.643  16.024  0.00  0.00    +0.000 OA
ENDBRANCH   2  10
BRANCH   6  19
ATOM     19  C   UNL     1       0.315   9.738  22.805  0.00  0.00    +0.000 C 
BRANCH  19  20
ATOM     20  C   UNL     1       0.329   8.558  21.853  0.00  0.00    +0.000 C 
ATOM     21  O   UNL     1      -0.741   8.033  21.537  0.00  0.00    +0.000 OA
ATOM     22  N   UNL     1       1.578   8.241  21.340  0.00  0.00    +0.000 N 
ATOM     23  H   UNL     1       2.385   8.716  21.738  0.00  0.00    +0.000 HD
BRANCH  22  24
ATOM     24  C   UNL     1       1.840   7.189  20.436  0.00  0.00    +0.000 A 
ATOM     25  C   UNL     1       2.318   7.419  19.131  0.00  0.00    +0.000 A 
ATOM     26  C   UNL     1       2.437   6.385  18.207  0.00  0.00    +0.000 A 
ATOM     27  C   UNL     1       2.090   5.113  18.608  0.00  0.00    +0.000 A 
ATOM     28  C   UNL     1       1.679   4.854  19.918  0.00  0.00    +0.000 A 
ATOM     29  C   UNL     1       1.562   5.878  20.848  0.00  0.00    +0.000 A 
ATOM     30  C   UNL     1       1.311   3.409  20.071  0.00  0.00    +0.000 C 
ATOM     31  C   UNL     1       1.981   2.793  18.832  0.00  0.00    +0.000 C 
ATOM     32  C   UNL     1       2.012   3.885  17.758  0.00  0.00    +0.000 C 
ENDBRANCH  22  24
ENDBRANCH  19  20
ENDBRANCH   6  19
TORSDOF 4
ENDMDL
MODEL 2
REMARK VINA RESULT:      -8.9      6.149      9.192
REMARK  Name = 
REMARK  5 active torsions:
REMARK  status: ('A' for Active; 'I' for Inactive)
REMARK    1  A    between atoms: C_1  and  C_2
REMARK    2  A    between atoms: C_2  and  C_3
REMARK    3  A    between atoms: N_15  and  C_16
REMARK    4  A    between atoms: C_16  and  C_17
REMARK    5  A    between atoms: N_19  and  C_20
REMARK                            x       y       z     vdW  Elec       q    Type
REMARK                         _______ _______ _______ _____ _____    ______ ____
ROOT
ATOM      1  C   UNL     1       3.590   3.757  18.037  0.00  0.00    +0.000 C 
ATOM      2  C   UNL     1       4.337   5.070  17.848  0.00  0.00    +0.000 C 
ATOM      3  N   UNL     1       4.833   5.177  16.492  0.00  0.00    +0.000 N 
ATOM      4  C   UNL     1       6.138   5.612  16.447  0.00  0.00    +0.000 C 
ATOM      5  O   UNL     1       6.720   5.900  15.417  0.00  0.00    +0.000 OA
ATOM      6  N   UNL     1       6.617   5.654  17.716  0.00  0.00    +0.000 N 
ATOM      7  C   UNL     1       5.703   5.116  18.572  0.00  0.00    +0.000 C 
ATOM      8  O   UNL     1       5.934   4.807  19.736  0.00  0.00    +0.000 OA
ATOM      9  H   UNL     1       4.270   5.150  15.652  0.00  0.00    +0.000 HD
ENDROOT
BRANCH   2  10
ATOM     10  C   UNL     1       3.528   6.290  18.305  0.00  0.00    +0.000 A 
ATOM     11  C   UNL     1       3.373   7.391  17.417  0.00  0.00    +0.000 A 
ATOM     12  C   UNL     1       2.581   8.497  17.744  0.00  0.00    +0.000 A 
ATOM     13  C   UNL     1       1.955   8.491  18.967  0.00  0.00    +0.000 A 
ATOM     14  C   UNL     1       2.088   7.438  19.840  0.00  0.00    +0.000 A 
ATOM     15  C   UNL     1       2.858   6.330  19.543  0.00  0.00    +0.000 A 
ATOM     16  O   UNL     1       1.376   7.622  20.985  0.00  0.00    +0.000 OA
ATOM     17  C   UNL     1       0.826   8.937  20.753  0.00  0.00    +0.000 C 
ATOM     18  O   UNL     1       1.149   9.471  19.452  0.00  0.00    +0.000 OA
ENDBRANCH   2  10
BRANCH   6  19
ATOM     19  C   UNL     1       7.857   6.276  18.110  0.00  0.00    +0.000 C 
BRANCH  19  20
ATOM     20  C   UNL     1       7.841   7.790  18.037  0.00  0.00    +0.000 C 
ATOM     21  O   UNL     1       6.966   8.347  17.369  0.00  0.00    +0.000 OA
ATOM     22  N   UNL     1       8.783   8.420  18.836  0.00  0.00    +0.000 N 
ATOM     23  H   UNL     1       9.486   7.837  19.286  0.00  0.00    +0.000 HD
BRANCH  22  24
ATOM     24  C   UNL     1       8.957   9.817  18.937  0.00  0.00    +0.000 A 
ATOM     25  C   UNL     1       8.980  10.657  17.807  0.00  0.00    +0.000 A 
ATOM     26  C   UNL     1       9.292  12.010  17.911  0.00  0.00    +0.000 A 
ATOM     27  C   UNL     1       9.562  12.519  19.163  0.00  0.00    +0.000 A 
ATOM     28  C   UNL     1       9.477  11.717  20.305  0.00  0.00    +0.000 A 
ATOM     29  C   UNL     1       9.161  10.368  20.210  0.00  0.00    +0.000 A 
ATOM     30  C   UNL     1       9.872  12.499  21.521  0.00  0.00    +0.000 C 
ATOM     31  C   UNL     1       9.758  13.942  21.002  0.00  0.00    +0.000 C 
ATOM     32  C   UNL     1      10.044  13.894  19.497  0.00  0.00    +0.000 C 
ENDBRANCH  22  24
ENDBRANCH  19  20
ENDBRANCH   6  19
TORSDOF 4
ENDMDL
MODEL 3
REMARK VINA RESULT:      -8.6      6.133      9.085
REMARK  Name = 
REMARK  5 active torsions:
REMARK  status: ('A' for Active; 'I' for Inactive)
REMARK    1  A    between atoms: C_1  and  C_2
REMARK    2  A    between atoms: C_2  and  C_3
REMARK    3  A    between atoms: N_15  and  C_16
REMARK    4  A    between atoms: C_16  and  C_17
REMARK    5  A    between atoms: N_19  and  C_20
REMARK                            x       y       z     vdW  Elec       q    Type
REMARK                         _______ _______ _______ _____ _____    ______ ____
ROOT
ATOM      1  C   UNL     1       3.463   3.690  17.795  0.00  0.00    +0.000 C 
ATOM      2  C   UNL     1       4.192   5.022  17.690  0.00  0.00    +0.000 C 
ATOM      3  N   UNL     1       4.713   5.209  16.351  0.00  0.00    +0.000 N 
ATOM      4  C   UNL     1       6.011   5.666  16.355  0.00  0.00    +0.000 C 
ATOM      5  O   UNL     1       6.608   6.017  15.354  0.00  0.00    +0.000 OA
ATOM      6  N   UNL     1       6.464   5.648  17.634  0.00  0.00    +0.000 N 
ATOM      7  C   UNL     1       5.544   5.052  18.443  0.00  0.00    +0.000 C 
ATOM      8  O   UNL     1       5.757   4.685  19.593  0.00  0.00    +0.000 OA
ATOM      9  H   UNL     1       4.166   5.217  15.500  0.00  0.00    +0.000 HD
ENDROOT
BRANCH   2  10
ATOM     10  C   UNL     1       3.355   6.204  18.194  0.00  0.00    +0.000 A 
ATOM     11  C   UNL     1       2.842   6.175  19.521  0.00  0.00    +0.000 A 
ATOM     12  C   UNL     1       2.140   7.255  20.065  0.00  0.00    +0.000 A 
ATOM     13  C   UNL     1       1.953   8.359  19.267  0.00  0.00    +0.000 A 
ATOM     14  C   UNL     1       2.441   8.411  17.983  0.00  0.00    +0.000 A 
ATOM     15  C   UNL     1       3.143   7.362  17.421  0.00  0.00    +0.000 A 
ATOM     16  O   UNL     1       2.163   9.594  17.372  0.00  0.00    +0.000 OA
ATOM     17  C   UNL     1       1.395  10.255  18.400  0.00  0.00    +0.000 C 
ATOM     18  O   UNL     1       1.302   9.496  19.624  0.00  0.00    +0.000 OA
ENDBRANCH   2  10
BRANCH   6  19
ATOM     19  C   UNL     1       7.686   6.268  18.085  0.00  0.00    +0.000 C 
BRANCH  19  20
ATOM     20  C   UNL     1       7.650   7.784  18.083  0.00  0.00    +0.000 C 
ATOM     21  O   UNL     1       6.660   8.356  17.620  0.00  0.00    +0.000 OA
ATOM     22  N   UNL     1       8.725   8.391  18.713  0.00  0.00    +0.000 N 
ATOM     23  H   UNL     1       9.503   7.799  18.994  0.00  0.00    +0.000 HD
BRANCH  22  24
ATOM     24  C   UNL     1       8.908   9.785  18.840  0.00  0.00    +0.000 A 
ATOM     25  C   UNL     1       8.853  10.656  17.735  0.00  0.00    +0.000 A 
ATOM     26  C   UNL     1       9.174  12.005  17.854  0.00  0.00    +0.000 A 
ATOM     27  C   UNL     1       9.534  12.479  19.097  0.00  0.00    +0.000 A 
ATOM     28  C   UNL     1       9.529  11.646  20.219  0.00  0.00    +0.000 A 
ATOM     29  C   UNL     1       9.204  10.300  20.110  0.00  0.00    +0.000 A 
ATOM     30  C   UNL     1      10.011  12.394  21.425  0.00  0.00    +0.000 C 
ATOM     31  C   UNL     1       9.864  13.851  20.956  0.00  0.00    +0.000 C 
ATOM     32  C   UNL     1      10.041  13.845  19.434  0.00  0.00    +0.000 C 
ENDBRANCH  22  24
ENDBRANCH  19  20
ENDBRANCH   6  19
TORSDOF 4
ENDMDL
MODEL 4
REMARK VINA RESULT:      -8.5      4.017      8.589
REMARK  Name = 
REMARK  5 active torsions:
REMARK  status: ('A' for Active; 'I' for Inactive)
REMARK    1  A    between atoms: C_1  and  C_2
REMARK    2  A    between atoms: C_2  and  C_3
REMARK    3  A    between atoms: N_15  and  C_16
REMARK    4  A    between atoms: C_16  and  C_17
REMARK    5  A    between atoms: N_19  and  C_20
REMARK                            x       y       z     vdW  Elec       q    Type
REMARK                         _______ _______ _______ _____ _____    ______ ____
ROOT
ATOM      1  C   UNL     1       4.037   2.165  16.824  0.00  0.00    +0.000 C 
ATOM      2  C   UNL     1       4.277   3.033  18.051  0.00  0.00    +0.000 C 
ATOM      3  N   UNL     1       4.848   2.246  19.123  0.00  0.00    +0.000 N 
ATOM      4  C   UNL     1       4.241   2.494  20.333  0.00  0.00    +0.000 C 
ATOM      5  O   UNL     1       4.638   2.047  21.394  0.00  0.00    +0.000 OA
ATOM      6  N   UNL     1       3.169   3.297  20.115  0.00  0.00    +0.000 N 
ATOM      7  C   UNL     1       2.977   3.457  18.775  0.00  0.00    +0.000 C 
ATOM      8  O   UNL     1       1.968   3.933  18.265  0.00  0.00    +0.000 OA
ATOM      9  H   UNL     1       5.715   1.726  19.079  0.00  0.00    +0.000 HD
ENDROOT
BRANCH   2  10
ATOM     10  C   UNL     1       5.069   4.309  17.736  0.00  0.00    +0.000 A 
ATOM     11  C   UNL     1       4.610   5.173  16.702  0.00  0.00    +0.000 A 
ATOM     12  C   UNL     1       5.243   6.388  16.422  0.00  0.00    +0.000 A 
ATOM     13  C   UNL     1       6.338   6.725  17.180  0.00  0.00    +0.000 A 
ATOM     14  C   UNL     1       6.797   5.908  18.185  0.00  0.00    +0.000 A 
ATOM     15  C   UNL     1       6.191   4.705  18.489  0.00  0.00    +0.000 A 
ATOM     16  O   UNL     1       7.879   6.432  18.823  0.00  0.00    +0.000 OA
ATOM     17  C   UNL     1       8.079   7.644  18.066  0.00  0.00    +0.000 C 
ATOM     18  O   UNL     1       7.073   7.861  17.054  0.00  0.00    +0.000 OA
ENDBRANCH   2  10
BRANCH   6  19
ATOM     19  C   UNL     1       2.417   3.969  21.146  0.00  0.00    +0.000 C 
BRANCH  19  20
ATOM     20  C   UNL     1       1.645   5.180  20.660  0.00  0.00    +0.000 C 
ATOM     21  O   UNL     1       0.414   5.124  20.609  0.00  0.00    +0.000 OA
ATOM     22  N   UNL     1       2.422   6.300  20.407  0.00  0.00    +0.000 N 
ATOM     23  H   UNL     1       3.433   6.187  20.427  0.00  0.00    +0.000 HD
BRANCH  22  24
ATOM     24  C   UNL     1       1.930   7.543  19.951  0.00  0.00    +0.000 A 
ATOM     25  C   UNL     1       2.110   7.983  18.625  0.00  0.00    +0.000 A 
ATOM     26  C   UNL     1       1.744   9.266  18.229  0.00  0.00    +0.000 A 
ATOM     27  C   UNL     1       1.179  10.100  19.169  0.00  0.00    +0.000 A 
ATOM     28  C   UNL     1       0.930   9.659  20.472  0.00  0.00    +0.000 A 
ATOM     29  C   UNL     1       1.286   8.378  20.875  0.00  0.00    +0.000 A 
ATOM     30  C   UNL     1       0.365  10.773  21.300  0.00  0.00    +0.000 C 
ATOM     31  C   UNL     1      -0.092  11.757  20.211  0.00  0.00    +0.000 C 
ATOM     32  C   UNL     1       0.834  11.546  19.008  0.00  0.00    +0.000 C 
ENDBRANCH  22  24
ENDBRANCH  19  20
ENDBRANCH   6  19
TORSDOF 4
ENDMDL
MODEL 5
REMARK VINA RESULT:      -8.2      5.838      8.938
REMARK  Name = 
REMARK  5 active torsions:
REMARK  status: ('A' for Active; 'I' for Inactive)
REMARK    1  A    between atoms: C_1  and  C_2
REMARK    2  A    between atoms: C_2  and  C_3
REMARK    3  A    between atoms: N_15  and  C_16
REMARK    4  A    between atoms: C_16  and  C_17
REMARK    5  A    between atoms: N_19  and  C_20
REMARK                            x       y       z     vdW  Elec       q    Type
REMARK                         _______ _______ _______ _____ _____    ______ ____
ROOT
ATOM      1  C   UNL     1       3.467   3.254  19.582  0.00  0.00    +0.000 C 
ATOM      2  C   UNL     1       4.013   4.333  18.658  0.00  0.00    +0.000 C 
ATOM      3  N   UNL     1       4.078   3.846  17.296  0.00  0.00    +0.000 N 
ATOM      4  C   UNL     1       5.271   4.160  16.685  0.00  0.00    +0.000 C 
ATOM      5  O   UNL     1       5.499   3.968  15.505  0.00  0.00    +0.000 OA
ATOM      6  N   UNL     1       6.096   4.702  17.617  0.00  0.00    +0.000 N 
ATOM      7  C   UNL     1       5.523   4.611  18.851  0.00  0.00    +0.000 C 
ATOM      8  O   UNL     1       6.110   4.801  19.910  0.00  0.00    +0.000 OA
ATOM      9  H   UNL     1       3.298   3.499  16.753  0.00  0.00    +0.000 HD
ENDROOT
BRANCH   2  10
ATOM     10  C   UNL     1       3.274   5.670  18.797  0.00  0.00    +0.000 A 
ATOM     11  C   UNL     1       2.619   5.976  20.023  0.00  0.00    +0.000 A 
ATOM     12  C   UNL     1       1.997   7.210  20.240  0.00  0.00    +0.000 A 
ATOM     13  C   UNL     1       2.033   8.128  19.218  0.00  0.00    +0.000 A 
ATOM     14  C   UNL     1       2.662   7.856  18.026  0.00  0.00    +0.000 A 
ATOM     15  C   UNL     1       3.289   6.649  17.785  0.00  0.00    +0.000 A 
ATOM     16  O   UNL     1       2.596   8.901  17.158  0.00  0.00    +0.000 OA
ATOM     17  C   UNL     1       1.806   9.838  17.920  0.00  0.00    +0.000 C 
ATOM     18  O   UNL     1       1.489   9.372  19.248  0.00  0.00    +0.000 OA
ENDBRANCH   2  10
BRANCH   6  19
ATOM     19  C   UNL     1       7.340   5.372  17.329  0.00  0.00    +0.000 C 
BRANCH  19  20
ATOM     20  C   UNL     1       7.247   6.885  17.349  0.00  0.00    +0.000 C 
ATOM     21  O   UNL     1       6.293   7.433  16.792  0.00  0.00    +0.000 OA
ATOM     22  N   UNL     1       8.225   7.517  18.104  0.00  0.00    +0.000 N 
ATOM     23  H   UNL     1       8.989   6.946  18.457  0.00  0.00    +0.000 HD
BRANCH  22  24
ATOM     24  C   UNL     1       8.341   8.913  18.275  0.00  0.00    +0.000 A 
ATOM     25  C   UNL     1       7.762   9.833  17.378  0.00  0.00    +0.000 A 
ATOM     26  C   UNL     1       8.003  11.199  17.481  0.00  0.00    +0.000 A 
ATOM     27  C   UNL     1       8.816  11.640  18.503  0.00  0.00    +0.000 A 
ATOM     28  C   UNL     1       9.344  10.751  19.442  0.00  0.00    +0.000 A 
ATOM     29  C   UNL     1       9.105   9.386  19.351  0.00  0.00    +0.000 A 
ATOM     30  C   UNL     1      10.232  11.479  20.406  0.00  0.00    +0.000 C 
ATOM     31  C   UNL     1       9.794  12.936  20.180  0.00  0.00    +0.000 C 
ATOM     32  C   UNL     1       9.315  13.032  18.727  0.00  0.00    +0.000 C 
ENDBRANCH  22  24
ENDBRANCH  19  20
ENDBRANCH   6  19
TORSDOF 4
ENDMDL
MODEL 6
REMARK VINA RESULT:      -8.1      0.846      1.448
REMARK  Name = 
REMARK  5 active torsions:
REMARK  status: ('A' for Active; 'I' for Inactive)
REMARK    1  A    between atoms: C_1  and  C_2
REMARK    2  A    between atoms: C_2  and  C_3
REMARK    3  A    between atoms: N_15  and  C_16
REMARK    4  A    between atoms: C_16  and  C_17
REMARK    5  A    between atoms: N_19  and  C_20
REMARK                            x       y       z     vdW  Elec       q    Type
REMARK                         _______ _______ _______ _____ _____    ______ ____
ROOT
ATOM      1  C   UNL     1      -0.953  13.762  20.823  0.00  0.00    +0.000 C 
ATOM      2  C   UNL     1      -0.892  12.242  20.790  0.00  0.00    +0.000 C 
ATOM      3  N   UNL     1      -1.522  11.685  21.969  0.00  0.00    +0.000 N 
ATOM      4  C   UNL     1      -0.772  10.680  22.537  0.00  0.00    +0.000 C 
ATOM      5  O   UNL     1      -1.161   9.982  23.455  0.00  0.00    +0.000 OA
ATOM      6  N   UNL     1       0.423  10.628  21.896  0.00  0.00    +0.000 N 
ATOM      7  C   UNL     1       0.527  11.671  21.025  0.00  0.00    +0.000 C 
ATOM      8  O   UNL     1       1.565  12.023  20.476  0.00  0.00    +0.000 OA
ATOM      9  H   UNL     1      -2.481  11.837  22.255  0.00  0.00    +0.000 HD
ENDROOT
BRANCH   2  10
ATOM     10  C   UNL     1      -1.418  11.650  19.476  0.00  0.00    +0.000 A 
ATOM     11  C   UNL     1      -0.694  10.596  18.851  0.00  0.00    +0.000 A 
ATOM     12  C   UNL     1      -1.163   9.962  17.696  0.00  0.00    +0.000 A 
ATOM     13  C   UNL     1      -2.357  10.397  17.172  0.00  0.00    +0.000 A 
ATOM     14  C   UNL     1      -3.075  11.412  17.759  0.00  0.00    +0.000 A 
ATOM     15  C   UNL     1      -2.640  12.052  18.903  0.00  0.00    +0.000 A 
ATOM     16  O   UNL     1      -4.231  11.678  17.095  0.00  0.00    +0.000 OA
ATOM     17  C   UNL     1      -4.129  10.752  15.992  0.00  0.00    +0.000 C 
ATOM     18  O   UNL     1      -2.966   9.901  16.064  0.00  0.00    +0.000 OA
ENDBRANCH   2  10
BRANCH   6  19
ATOM     19  C   UNL     1       1.389   9.566  22.036  0.00  0.00    +0.000 C 
BRANCH  19  20
ATOM     20  C   UNL     1       1.005   8.282  21.328  0.00  0.00    +0.000 C 
ATOM     21  O   UNL     1      -0.187   8.056  21.106  0.00  0.00    +0.000 OA
ATOM     22  N   UNL     1       2.075   7.513  20.898  0.00  0.00    +0.000 N 
ATOM     23  H   UNL     1       3.006   7.787  21.206  0.00  0.00    +0.000 HD
BRANCH  22  24
ATOM     24  C   UNL     1       1.968   6.283  20.215  0.00  0.00    +0.000 A 
ATOM     25  C   UNL     1       1.204   5.209  20.712  0.00  0.00    +0.000 A 
ATOM     26  C   UNL     1       1.221   3.959  20.101  0.00  0.00    +0.000 A 
ATOM     27  C   UNL     1       1.996   3.798  18.974  0.00  0.00    +0.000 A 
ATOM     28  C   UNL     1       2.707   4.869  18.425  0.00  0.00    +0.000 A 
ATOM     29  C   UNL     1       2.692   6.121  19.025  0.00  0.00    +0.000 A 
ATOM     30  C   UNL     1       3.507   4.412  17.243  0.00  0.00    +0.000 C 
ATOM     31  C   UNL     1       2.825   3.073  16.915  0.00  0.00    +0.000 C 
ATOM     32  C   UNL     1       2.269   2.527  18.235  0.00  0.00    +0.000 C 
ENDBRANCH  22  24
ENDBRANCH  19  20
ENDBRANCH   6  19
TORSDOF 4
ENDMDL
MODEL 7
REMARK VINA RESULT:      -8.1      3.793      8.646
REMARK  Name = 
REMARK  5 active torsions:
REMARK  status: ('A' for Active; 'I' for Inactive)
REMARK    1  A    between atoms: C_1  and  C_2
REMARK    2  A    between atoms: C_2  and  C_3
REMARK    3  A    between atoms: N_15  and  C_16
REMARK    4  A    between atoms: C_16  and  C_17
REMARK    5  A    between atoms: N_19  and  C_20
REMARK                            x       y       z     vdW  Elec       q    Type
REMARK                         _______ _______ _______ _____ _____    ______ ____
ROOT
ATOM      1  C   UNL     1       3.741   1.525  17.624  0.00  0.00    +0.000 C 
ATOM      2  C   UNL     1       3.672   2.740  18.539  0.00  0.00    +0.000 C 
ATOM      3  N   UNL     1       3.865   2.344  19.919  0.00  0.00    +0.000 N 
ATOM      4  C   UNL     1       2.953   2.936  20.764  0.00  0.00    +0.000 C 
ATOM      5  O   UNL     1       3.004   2.854  21.977  0.00  0.00    +0.000 OA
ATOM      6  N   UNL     1       2.039   3.595  20.008  0.00  0.00    +0.000 N 
ATOM      7  C   UNL     1       2.247   3.324  18.689  0.00  0.00    +0.000 C 
ATOM      8  O   UNL     1       1.456   3.584  17.789  0.00  0.00    +0.000 OA
ATOM      9  H   UNL     1       4.675   1.866  20.289  0.00  0.00    +0.000 HD
ENDROOT
BRANCH   2  10
ATOM     10  C   UNL     1       4.596   3.880  18.092  0.00  0.00    +0.000 A 
ATOM     11  C   UNL     1       4.333   4.543  16.860  0.00  0.00    +0.000 A 
ATOM     12  C   UNL     1       5.090   5.640  16.437  0.00  0.00    +0.000 A 
ATOM     13  C   UNL     1       6.112   6.061  17.254  0.00  0.00    +0.000 A 
ATOM     14  C   UNL     1       6.383   5.438  18.448  0.00  0.00    +0.000 A 
ATOM     15  C   UNL     1       5.649   4.356  18.896  0.00  0.00    +0.000 A 
ATOM     16  O   UNL     1       7.420   6.018  19.110  0.00  0.00    +0.000 OA
ATOM     17  C   UNL     1       7.805   7.040  18.167  0.00  0.00    +0.000 C 
ATOM     18  O   UNL     1       6.945   7.105  17.010  0.00  0.00    +0.000 OA
ENDBRANCH   2  10
BRANCH   6  19
ATOM     19  C   UNL     1       1.065   4.528  20.519  0.00  0.00    +0.000 C 
BRANCH  19  20
ATOM     20  C   UNL     1       1.526   5.973  20.506  0.00  0.00    +0.000 C 
ATOM     21  O   UNL     1       2.649   6.238  20.070  0.00  0.00    +0.000 OA
ATOM     22  N   UNL     1       0.568   6.892  20.907  0.00  0.00    +0.000 N 
ATOM     23  H   UNL     1      -0.296   6.529  21.303  0.00  0.00    +0.000 HD
BRANCH  22  24
ATOM     24  C   UNL     1       0.762   8.289  20.973  0.00  0.00    +0.000 A 
ATOM     25  C   UNL     1       0.607   9.014  22.170  0.00  0.00    +0.000 A 
ATOM     26  C   UNL     1       0.663  10.405  22.191  0.00  0.00    +0.000 A 
ATOM     27  C   UNL     1       0.894  11.063  21.002  0.00  0.00    +0.000 A 
ATOM     28  C   UNL     1       1.118  10.358  19.816  0.00  0.00    +0.000 A 
ATOM     29  C   UNL     1       1.070   8.971  19.787  0.00  0.00    +0.000 A 
ATOM     30  C   UNL     1       1.287  11.309  18.670  0.00  0.00    +0.000 C 
ATOM     31  C   UNL     1       1.577  12.626  19.409  0.00  0.00    +0.000 C 
ATOM     32  C   UNL     1       0.864  12.538  20.763  0.00  0.00    +0.000 C 
ENDBRANCH  22  24
ENDBRANCH  19  20
ENDBRANCH   6  19
TORSDOF 4
ENDMDL
MODEL 8
REMARK VINA RESULT:      -8.1      5.862      9.009
REMARK  Name = 
REMARK  5 active torsions:
REMARK  status: ('A' for Active; 'I' for Inactive)
REMARK    1  A    between atoms: C_1  and  C_2
REMARK    2  A    between atoms: C_2  and  C_3
REMARK    3  A    between atoms: N_15  and  C_16
REMARK    4  A    between atoms: C_16  and  C_17
REMARK    5  A    between atoms: N_19  and  C_20
REMARK                            x       y       z     vdW  Elec       q    Type
REMARK                         _______ _______ _______ _____ _____    ______ ____
ROOT
ATOM      1  C   UNL     1       3.380   3.741  18.364  0.00  0.00    +0.000 C 
ATOM      2  C   UNL     1       4.141   5.019  18.040  0.00  0.00    +0.000 C 
ATOM      3  N   UNL     1       4.561   5.019  16.654  0.00  0.00    +0.000 N 
ATOM      4  C   UNL     1       5.869   5.420  16.506  0.00  0.00    +0.000 C 
ATOM      5  O   UNL     1       6.397   5.621  15.427  0.00  0.00    +0.000 OA
ATOM      6  N   UNL     1       6.420   5.540  17.740  0.00  0.00    +0.000 N 
ATOM      7  C   UNL     1       5.547   5.085  18.682  0.00  0.00    +0.000 C 
ATOM      8  O   UNL     1       5.837   4.854  19.851  0.00  0.00    +0.000 OA
ATOM      9  H   UNL     1       3.951   4.945  15.851  0.00  0.00    +0.000 HD
ENDROOT
BRANCH   2  10
ATOM     10  C   UNL     1       3.382   6.287  18.452  0.00  0.00    +0.000 A 
ATOM     11  C   UNL     1       3.239   7.346  17.512  0.00  0.00    +0.000 A 
ATOM     12  C   UNL     1       2.491   8.492  17.800  0.00  0.00    +0.000 A 
ATOM     13  C   UNL     1       1.896   8.569  19.036  0.00  0.00    +0.000 A 
ATOM     14  C   UNL     1       2.018   7.559  19.959  0.00  0.00    +0.000 A 
ATOM     15  C   UNL     1       2.745   6.412  19.702  0.00  0.00    +0.000 A 
ATOM     16  O   UNL     1       1.342   7.824  21.109  0.00  0.00    +0.000 OA
ATOM     17  C   UNL     1       0.828   9.142  20.822  0.00  0.00    +0.000 C 
ATOM     18  O   UNL     1       1.134   9.599  19.488  0.00  0.00    +0.000 OA
ENDBRANCH   2  10
BRANCH   6  19
ATOM     19  C   UNL     1       7.692   6.160  18.020  0.00  0.00    +0.000 C 
BRANCH  19  20
ATOM     20  C   UNL     1       7.654   7.676  18.029  0.00  0.00    +0.000 C 
ATOM     21  O   UNL     1       6.689   8.252  17.521  0.00  0.00    +0.000 OA
ATOM     22  N   UNL     1       8.693   8.278  18.721  0.00  0.00    +0.000 N 
ATOM     23  H   UNL     1       9.457   7.684  19.037  0.00  0.00    +0.000 HD
BRANCH  22  24
ATOM     24  C   UNL     1       8.868   9.671  18.871  0.00  0.00    +0.000 A 
ATOM     25  C   UNL     1       9.413  10.240  20.038  0.00  0.00    +0.000 A 
ATOM     26  C   UNL     1       9.449  11.618  20.228  0.00  0.00    +0.000 A 
ATOM     27  C   UNL     1       8.949  12.424  19.228  0.00  0.00    +0.000 A 
ATOM     28  C   UNL     1       8.467  11.882  18.034  0.00  0.00    +0.000 A 
ATOM     29  C   UNL     1       8.432  10.508  17.834  0.00  0.00    +0.000 A 
ATOM     30  C   UNL     1       7.935  12.966  17.146  0.00  0.00    +0.000 C 
ATOM     31  C   UNL     1       8.575  14.214  17.777  0.00  0.00    +0.000 C 
ATOM     32  C   UNL     1       8.765  13.908  19.267  0.00  0.00    +0.000 C 
ENDBRANCH  22  24
ENDBRANCH  19  20
ENDBRANCH   6  19
TORSDOF 4
ENDMDL
MODEL 9
REMARK VINA RESULT:      -8.0      4.143      8.583
REMARK  Name = 
REMARK  5 active torsions:
REMARK  status: ('A' for Active; 'I' for Inactive)
REMARK    1  A    between atoms: C_1  and  C_2
REMARK    2  A    between atoms: C_2  and  C_3
REMARK    3  A    between atoms: N_15  and  C_16
REMARK    4  A    between atoms: C_16  and  C_17
REMARK    5  A    between atoms: N_19  and  C_20
REMARK                            x       y       z     vdW  Elec       q    Type
REMARK                         _______ _______ _______ _____ _____    ______ ____
ROOT
ATOM      1  C   UNL     1       4.514   3.982  16.221  0.00  0.00    +0.000 C 
ATOM      2  C   UNL     1       4.736   4.181  17.714  0.00  0.00    +0.000 C 
ATOM      3  N   UNL     1       4.995   2.911  18.359  0.00  0.00    +0.000 N 
ATOM      4  C   UNL     1       4.281   2.764  19.527  0.00  0.00    +0.000 C 
ATOM      5  O   UNL     1       4.436   1.838  20.303  0.00  0.00    +0.000 OA
ATOM      6  N   UNL     1       3.418   3.806  19.632  0.00  0.00    +0.000 N 
ATOM      7  C   UNL     1       3.449   4.549  18.490  0.00  0.00    +0.000 C 
ATOM      8  O   UNL     1       2.628   5.409  18.193  0.00  0.00    +0.000 OA
ATOM      9  H   UNL     1       5.748   2.275  18.132  0.00  0.00    +0.000 HD
ENDROOT
BRANCH   2  10
ATOM     10  C   UNL     1       5.787   5.254  18.024  0.00  0.00    +0.000 A 
ATOM     11  C   UNL     1       6.823   4.961  18.956  0.00  0.00    +0.000 A 
ATOM     12  C   UNL     1       7.854   5.867  19.221  0.00  0.00    +0.000 A 
ATOM     13  C   UNL     1       7.836   7.066  18.550  0.00  0.00    +0.000 A 
ATOM     14  C   UNL     1       6.848   7.370  17.644  0.00  0.00    +0.000 A 
ATOM     15  C   UNL     1       5.820   6.494  17.357  0.00  0.00    +0.000 A 
ATOM     16  O   UNL     1       7.023   8.596  17.081  0.00  0.00    +0.000 OA
ATOM     17  C   UNL     1       8.202   9.049  17.779  0.00  0.00    +0.000 C 
ATOM     18  O   UNL     1       8.752   8.062  18.676  0.00  0.00    +0.000 OA
ENDBRANCH   2  10
BRANCH   6  19
ATOM     19  C   UNL     1       2.667   4.139  20.817  0.00  0.00    +0.000 C 
BRANCH  19  20
ATOM     20  C   UNL     1       1.679   5.274  20.625  0.00  0.00    +0.000 C 
ATOM     21  O   UNL     1       0.501   5.005  20.378  0.00  0.00    +0.000 OA
ATOM     22  N   UNL     1       2.197   6.539  20.854  0.00  0.00    +0.000 N 
ATOM     23  H   UNL     1       3.203   6.620  20.988  0.00  0.00    +0.000 HD
BRANCH  22  24
ATOM     24  C   UNL     1       1.472   7.745  20.742  0.00  0.00    +0.000 A 
ATOM     25  C   UNL     1       0.588   8.189  21.746  0.00  0.00    +0.000 A 
ATOM     26  C   UNL     1      -0.223   9.304  21.560  0.00  0.00    +0.000 A 
ATOM     27  C   UNL     1      -0.129   9.983  20.365  0.00  0.00    +0.000 A 
ATOM     28  C   UNL     1       0.790   9.600  19.384  0.00  0.00    +0.000 A 
ATOM     29  C   UNL     1       1.608   8.492  19.563  0.00  0.00    +0.000 A 
ATOM     30  C   UNL     1       0.648  10.467  18.170  0.00  0.00    +0.000 C 
ATOM     31  C   UNL     1      -0.139  11.659  18.740  0.00  0.00    +0.000 C 
ATOM     32  C   UNL     1      -0.986  11.116  19.897  0.00  0.00    +0.000 C 
ENDBRANCH  22  24
ENDBRANCH  19  20
ENDBRANCH   6  19
TORSDOF 4
ENDMDL
