MODEL 1
REMARK VINA RESULT:      -8.4      0.000      0.000
REMARK  Name = 
REMARK  5 active torsions:
REMARK  status: ('A' for Active; 'I' for Inactive)
REMARK    1  A    between atoms: C_2  and  C_16
REMARK    2  A    between atoms: N_3  and  C_4
REMARK    3  A    between atoms: C_7  and  N_8
REMARK    4  A    between atoms: C_9  and  C_11
REMARK    5  A    between atoms: C_20  and  N_21
REMARK                            x       y       z     vdW  Elec       q    Type
REMARK                         _______ _______ _______ _____ _____    ______ ____
ROOT
ATOM      1  O   UNL     1       7.705  10.106  17.485  0.00  0.00    +0.000 OA
ATOM      2  C   UNL     1       8.571   9.795  18.296  0.00  0.00    +0.000 C 
ATOM      3  N   UNL     1       8.820   8.523  18.801  0.00  0.00    +0.000 N 
ATOM      4  H   UNL     1       9.428   8.445  19.606  0.00  0.00    +0.000 HD
ENDROOT
BRANCH   3   5
ATOM      5  C   UNL     1       8.100   7.364  18.426  0.00  0.00    +0.000 A 
ATOM      6  C   UNL     1       7.410   7.283  17.221  0.00  0.00    +0.000 A 
ATOM      7  C   UNL     1       6.622   6.178  16.912  0.00  0.00    +0.000 A 
ATOM      8  C   UNL     1       6.508   5.105  17.790  0.00  0.00    +0.000 A 
ATOM      9  C   UNL     1       7.254   5.145  18.976  0.00  0.00    +0.000 A 
ATOM     10  C   UNL     1       8.052   6.263  19.289  0.00  0.00    +0.000 A 
BRANCH   8  11
ATOM     11  N   UNL     1       5.673   3.995  17.530  0.00  0.00    +0.000 N 
ATOM     12  C   UNL     1       4.343   3.882  17.898  0.00  0.00    +0.000 C 
ATOM     13  O   UNL     1       3.668   4.707  18.499  0.00  0.00    +0.000 OA
ATOM     14  H   UNL     1       6.091   3.210  17.050  0.00  0.00    +0.000 HD
BRANCH  12  15
ATOM     15  C   UNL     1       3.688   2.610  17.467  0.00  0.00    +0.000 C 
ATOM     16  C   UNL     1       2.283   2.322  17.946  0.00  0.00    +0.000 C 
ATOM     17  C   UNL     1       3.429   1.519  18.488  0.00  0.00    +0.000 C 
ENDBRANCH  12  15
ENDBRANCH   8  11
ENDBRANCH   3   5
BRANCH   2  18
ATOM     18  C   UNL     1       9.384  10.903  18.847  0.00  0.00    +0.000 A 
ATOM     19  C   UNL     1       9.772  10.815  20.186  0.00  0.00    +0.000 A 
ATOM     20  C   UNL     1      10.476  11.855  20.769  0.00  0.00    +0.000 A 
ATOM     21  C   UNL     1      10.775  12.994  20.016  0.00  0.00    +0.000 A 
ATOM     22  C   UNL     1      10.376  13.136  18.673  0.00  0.00    +0.000 A 
ATOM     23  C   UNL     1       9.685  12.053  18.102  0.00  0.00    +0.000 A 
BRANCH  22  24
ATOM     24  N   UNL     1      10.648  14.284  17.960  0.00  0.00    +0.000 N 
ATOM     25  C   UNL     1       9.705  15.390  17.809  0.00  0.00    +0.000 C 
ATOM     26  C   UNL     1      10.546  16.449  17.183  0.00  0.00    +0.000 C 
ATOM     27  C   UNL     1      11.809  16.042  17.027  0.00  0.00    +0.000 C 
ATOM     28  C   UNL     1      11.995  14.644  17.514  0.00  0.00    +0.000 C 
ENDBRANCH  22  24
ENDBRANCH   2  18
TORSDOF 5
ENDMDL
MODEL 2
REMARK VINA RESULT:      -8.1      1.558      2.097
REMARK  Name = 
REMARK  5 active torsions:
REMARK  status: ('A' for Active; 'I' for Inactive)
REMARK    1  A    between atoms: C_2  and  C_16
REMARK    2  A    between atoms: N_3  and  C_4
REMARK    3  A    between atoms: C_7  and  N_8
REMARK    4  A    between atoms: C_9  and  C_11
REMARK    5  A    between atoms: C_20  and  N_21
REMARK                            x       y       z     vdW  Elec       q    Type
REMARK                         _______ _______ _______ _____ _____    ______ ____
ROOT
ATOM      1  O   UNL     1       9.173   9.512  19.631  0.00  0.00    +0.000 OA
ATOM      2  C   UNL     1       8.885   9.907  18.506  0.00  0.00    +0.000 C 
ATOM      3  N   UNL     1       8.164   9.212  17.540  0.00  0.00    +0.000 N 
ATOM      4  H   UNL     1       8.172   9.573  16.595  0.00  0.00    +0.000 HD
ENDROOT
BRANCH   3   5
ATOM      5  C   UNL     1       7.625   7.917  17.728  0.00  0.00    +0.000 A 
ATOM      6  C   UNL     1       6.500   7.479  17.036  0.00  0.00    +0.000 A 
ATOM      7  C   UNL     1       5.920   6.244  17.307  0.00  0.00    +0.000 A 
ATOM      8  C   UNL     1       6.453   5.393  18.270  0.00  0.00    +0.000 A 
ATOM      9  C   UNL     1       7.625   5.794  18.926  0.00  0.00    +0.000 A 
ATOM     10  C   UNL     1       8.213   7.045  18.650  0.00  0.00    +0.000 A 
BRANCH   8  11
ATOM     11  N   UNL     1       5.855   4.157  18.609  0.00  0.00    +0.000 N 
ATOM     12  C   UNL     1       4.665   3.999  19.299  0.00  0.00    +0.000 C 
ATOM     13  O   UNL     1       3.934   4.881  19.728  0.00  0.00    +0.000 OA
ATOM     14  H   UNL     1       6.352   3.320  18.337  0.00  0.00    +0.000 HD
BRANCH  12  15
ATOM     15  C   UNL     1       4.249   2.577  19.493  0.00  0.00    +0.000 C 
ATOM     16  C   UNL     1       3.626   1.841  18.328  0.00  0.00    +0.000 C 
ATOM     17  C   UNL     1       2.774   2.224  19.502  0.00  0.00    +0.000 C 
ENDBRANCH  12  15
ENDBRANCH   8  11
ENDBRANCH   3   5
BRANCH   2  18
ATOM     18  C   UNL     1       9.425  11.228  18.115  0.00  0.00    +0.000 A 
ATOM     19  C   UNL     1      10.770  11.291  17.742  0.00  0.00    +0.000 A 
ATOM     20  C   UNL     1      11.343  12.513  17.433  0.00  0.00    +0.000 A 
ATOM     21  C   UNL     1      10.573  13.677  17.514  0.00  0.00    +0.000 A 
ATOM     22  C   UNL     1       9.223  13.661  17.914  0.00  0.00    +0.000 A 
ATOM     23  C   UNL     1       8.663  12.403  18.198  0.00  0.00    +0.000 A 
BRANCH  22  24
ATOM     24  N   UNL     1       8.493  14.825  18.025  0.00  0.00    +0.000 N 
ATOM     25  C   UNL     1       7.121  14.880  18.526  0.00  0.00    +0.000 C 
ATOM     26  C   UNL     1       6.887  16.344  18.672  0.00  0.00    +0.000 C 
ATOM     27  C   UNL     1       7.975  17.048  18.345  0.00  0.00    +0.000 C 
ATOM     28  C   UNL     1       9.093  16.156  17.920  0.00  0.00    +0.000 C 
ENDBRANCH  22  24
ENDBRANCH   2  18
TORSDOF 5
ENDMDL
MODEL 3
REMARK VINA RESULT:      -7.9      6.734      9.605
REMARK  Name = 
REMARK  5 active torsions:
REMARK  status: ('A' for Active; 'I' for Inactive)
REMARK    1  A    between atoms: C_2  and  C_16
REMARK    2  A    between atoms: N_3  and  C_4
REMARK    3  A    between atoms: C_7  and  N_8
REMARK    4  A    between atoms: C_9  and  C_11
REMARK    5  A    between atoms: C_20  and  N_21
REMARK                            x       y       z     vdW  Elec       q    Type
REMARK                         _______ _______ _______ _____ _____    ______ ____
ROOT
ATOM      1  O   UNL     1       2.482   5.319  17.755  0.00  0.00    +0.000 OA
ATOM      2  C   UNL     1       3.493   5.999  17.898  0.00  0.00    +0.000 C 
ATOM      3  N   UNL     1       3.561   7.292  18.408  0.00  0.00    +0.000 N 
ATOM      4  H   UNL     1       4.425   7.803  18.285  0.00  0.00    +0.000 HD
ENDROOT
BRANCH   3   5
ATOM      5  C   UNL     1       2.441   8.024  18.869  0.00  0.00    +0.000 A 
ATOM      6  C   UNL     1       1.824   8.996  18.088  0.00  0.00    +0.000 A 
ATOM      7  C   UNL     1       0.790   9.779  18.593  0.00  0.00    +0.000 A 
ATOM      8  C   UNL     1       0.325   9.610  19.894  0.00  0.00    +0.000 A 
ATOM      9  C   UNL     1       0.893   8.588  20.667  0.00  0.00    +0.000 A 
ATOM     10  C   UNL     1       1.939   7.793  20.155  0.00  0.00    +0.000 A 
BRANCH   8  11
ATOM     11  N   UNL     1      -0.683  10.427  20.454  0.00  0.00    +0.000 N 
ATOM     12  C   UNL     1      -0.473  11.500  21.303  0.00  0.00    +0.000 C 
ATOM     13  O   UNL     1       0.600  11.925  21.709  0.00  0.00    +0.000 OA
ATOM     14  H   UNL     1      -1.640  10.192  20.226  0.00  0.00    +0.000 HD
BRANCH  12  15
ATOM     15  C   UNL     1      -1.720  12.210  21.721  0.00  0.00    +0.000 C 
ATOM     16  C   UNL     1      -1.641  13.197  22.864  0.00  0.00    +0.000 C 
ATOM     17  C   UNL     1      -2.349  11.889  23.063  0.00  0.00    +0.000 C 
ENDBRANCH  12  15
ENDBRANCH   8  11
ENDBRANCH   3   5
BRANCH   2  18
ATOM     18  C   UNL     1       4.758   5.408  17.407  0.00  0.00    +0.000 A 
ATOM     19  C   UNL     1       5.821   5.320  18.309  0.00  0.00    +0.000 A 
ATOM     20  C   UNL     1       7.048   4.837  17.883  0.00  0.00    +0.000 A 
ATOM     21  C   UNL     1       7.215   4.459  16.547  0.00  0.00    +0.000 A 
ATOM     22  C   UNL     1       6.178   4.560  15.600  0.00  0.00    +0.000 A 
ATOM     23  C   UNL     1       4.938   5.031  16.068  0.00  0.00    +0.000 A 
BRANCH  22  24
ATOM     24  N   UNL     1       6.376   4.218  14.279  0.00  0.00    +0.000 N 
ATOM     25  C   UNL     1       5.390   3.509  13.467  0.00  0.00    +0.000 C 
ATOM     26  C   UNL     1       5.971   3.602  12.098  0.00  0.00    +0.000 C 
ATOM     27  C   UNL     1       7.111   4.300  12.097  0.00  0.00    +0.000 C 
ATOM     28  C   UNL     1       7.466   4.765  13.469  0.00  0.00    +0.000 C 
ENDBRANCH  22  24
ENDBRANCH   2  18
TORSDOF 5
ENDMDL
MODEL 4
REMARK VINA RESULT:      -7.9      1.947      2.785
REMARK  Name = 
REMARK  5 active torsions:
REMARK  status: ('A' for Active; 'I' for Inactive)
REMARK    1  A    between atoms: C_2  and  C_16
REMARK    2  A    between atoms: N_3  and  C_4
REMARK    3  A    between atoms: C_7  and  N_8
REMARK    4  A    between atoms: C_9  and  C_11
REMARK    5  A    between atoms: C_20  and  N_21
REMARK                            x       y       z     vdW  Elec       q    Type
REMARK                         _______ _______ _______ _____ _____    ______ ____
ROOT
ATOM      1  O   UNL     1       7.831  10.088  17.650  0.00  0.00    +0.000 OA
ATOM      2  C   UNL     1       8.678   9.710  18.452  0.00  0.00    +0.000 C 
ATOM      3  N   UNL     1       8.864   8.411  18.914  0.00  0.00    +0.000 N 
ATOM      4  H   UNL     1       9.465   8.278  19.718  0.00  0.00    +0.000 HD
ENDROOT
BRANCH   3   5
ATOM      5  C   UNL     1       8.093   7.300  18.497  0.00  0.00    +0.000 A 
ATOM      6  C   UNL     1       7.359   7.315  17.316  0.00  0.00    +0.000 A 
ATOM      7  C   UNL     1       6.524   6.256  16.971  0.00  0.00    +0.000 A 
ATOM      8  C   UNL     1       6.404   5.136  17.787  0.00  0.00    +0.000 A 
ATOM      9  C   UNL     1       7.191   5.080  18.946  0.00  0.00    +0.000 A 
ATOM     10  C   UNL     1       8.038   6.152  19.295  0.00  0.00    +0.000 A 
BRANCH   8  11
ATOM     11  N   UNL     1       5.522   4.071  17.493  0.00  0.00    +0.000 N 
ATOM     12  C   UNL     1       4.182   4.015  17.836  0.00  0.00    +0.000 C 
ATOM     13  O   UNL     1       3.535   4.859  18.440  0.00  0.00    +0.000 OA
ATOM     14  H   UNL     1       5.913   3.276  17.006  0.00  0.00    +0.000 HD
BRANCH  12  15
ATOM     15  C   UNL     1       3.477   2.782  17.371  0.00  0.00    +0.000 C 
ATOM     16  C   UNL     1       2.202   2.371  18.072  0.00  0.00    +0.000 C 
ATOM     17  C   UNL     1       3.447   1.556  18.263  0.00  0.00    +0.000 C 
ENDBRANCH  12  15
ENDBRANCH   8  11
ENDBRANCH   3   5
BRANCH   2  18
ATOM     18  C   UNL     1       9.539  10.759  19.042  0.00  0.00    +0.000 A 
ATOM     19  C   UNL     1      10.819  10.920  18.507  0.00  0.00    +0.000 A 
ATOM     20  C   UNL     1      11.689  11.841  19.066  0.00  0.00    +0.000 A 
ATOM     21  C   UNL     1      11.284  12.588  20.176  0.00  0.00    +0.000 A 
ATOM     22  C   UNL     1      10.015  12.435  20.765  0.00  0.00    +0.000 A 
ATOM     23  C   UNL     1       9.145  11.511  20.159  0.00  0.00    +0.000 A 
BRANCH  22  24
ATOM     24  N   UNL     1       9.649  13.155  21.882  0.00  0.00    +0.000 N 
ATOM     25  C   UNL     1       9.864  14.594  22.028  0.00  0.00    +0.000 C 
ATOM     26  C   UNL     1       9.096  14.912  23.264  0.00  0.00    +0.000 C 
ATOM     27  C   UNL     1       8.484  13.828  23.752  0.00  0.00    +0.000 C 
ATOM     28  C   UNL     1       8.764  12.623  22.919  0.00  0.00    +0.000 C 
ENDBRANCH  22  24
ENDBRANCH   2  18
TORSDOF 5
ENDMDL
MODEL 5
REMARK VINA RESULT:      -7.8      6.798      9.628
REMARK  Name = 
REMARK  5 active torsions:
REMARK  status: ('A' for Active; 'I' for Inactive)
REMARK    1  A    between atoms: C_2  and  C_16
REMARK    2  A    between atoms: N_3  and  C_4
REMARK    3  A    between atoms: C_7  and  N_8
REMARK    4  A    between atoms: C_9  and  C_11
REMARK    5  A    between atoms: C_20  and  N_21
REMARK                            x       y       z     vdW  Elec       q    Type
REMARK                         _______ _______ _______ _____ _____    ______ ____
ROOT
ATOM      1  O   UNL     1       2.471   5.353  18.045  0.00  0.00    +0.000 OA
ATOM      2  C   UNL     1       3.433   6.105  17.926  0.00  0.00    +0.000 C 
ATOM      3  N   UNL     1       3.450   7.476  18.163  0.00  0.00    +0.000 N 
ATOM      4  H   UNL     1       4.250   8.001  17.836  0.00  0.00    +0.000 HD
ENDROOT
BRANCH   3   5
ATOM      5  C   UNL     1       2.332   8.220  18.610  0.00  0.00    +0.000 A 
ATOM      6  C   UNL     1       1.652   9.101  17.776  0.00  0.00    +0.000 A 
ATOM      7  C   UNL     1       0.621   9.902  18.258  0.00  0.00    +0.000 A 
ATOM      8  C   UNL     1       0.221   9.840  19.589  0.00  0.00    +0.000 A 
ATOM      9  C   UNL     1       0.854   8.907  20.423  0.00  0.00    +0.000 A 
ATOM     10  C   UNL     1       1.897   8.095  19.934  0.00  0.00    +0.000 A 
BRANCH   8  11
ATOM     11  N   UNL     1      -0.783  10.680  20.122  0.00  0.00    +0.000 N 
ATOM     12  C   UNL     1      -0.609  11.599  21.143  0.00  0.00    +0.000 C 
ATOM     13  O   UNL     1       0.423  11.844  21.751  0.00  0.00    +0.000 OA
ATOM     14  H   UNL     1      -1.711  10.586  19.733  0.00  0.00    +0.000 HD
BRANCH  12  15
ATOM     15  C   UNL     1      -1.836  12.379  21.487  0.00  0.00    +0.000 C 
ATOM     16  C   UNL     1      -2.881  12.593  20.416  0.00  0.00    +0.000 C 
ATOM     17  C   UNL     1      -2.046  13.751  20.877  0.00  0.00    +0.000 C 
ENDBRANCH  12  15
ENDBRANCH   8  11
ENDBRANCH   3   5
BRANCH   2  18
ATOM     18  C   UNL     1       4.679   5.502  17.405  0.00  0.00    +0.000 A 
ATOM     19  C   UNL     1       5.715   5.273  18.314  0.00  0.00    +0.000 A 
ATOM     20  C   UNL     1       6.927   4.773  17.867  0.00  0.00    +0.000 A 
ATOM     21  C   UNL     1       7.108   4.519  16.504  0.00  0.00    +0.000 A 
ATOM     22  C   UNL     1       6.101   4.764  15.551  0.00  0.00    +0.000 A 
ATOM     23  C   UNL     1       4.874   5.248  16.039  0.00  0.00    +0.000 A 
BRANCH  22  24
ATOM     24  N   UNL     1       6.315   4.542  14.208  0.00  0.00    +0.000 N 
ATOM     25  C   UNL     1       7.481   5.036  13.477  0.00  0.00    +0.000 C 
ATOM     26  C   UNL     1       7.361   4.339  12.166  0.00  0.00    +0.000 C 
ATOM     27  C   UNL     1       6.303   3.522  12.141  0.00  0.00    +0.000 C 
ATOM     28  C   UNL     1       5.553   3.563  13.431  0.00  0.00    +0.000 C 
ENDBRANCH  22  24
ENDBRANCH   2  18
TORSDOF 5
ENDMDL
MODEL 6
REMARK VINA RESULT:      -7.8      7.787     11.021
REMARK  Name = 
REMARK  5 active torsions:
REMARK  status: ('A' for Active; 'I' for Inactive)
REMARK    1  A    between atoms: C_2  and  C_16
REMARK    2  A    between atoms: N_3  and  C_4
REMARK    3  A    between atoms: C_7  and  N_8
REMARK    4  A    between atoms: C_9  and  C_11
REMARK    5  A    between atoms: C_20  and  N_21
REMARK                            x       y       z     vdW  Elec       q    Type
REMARK                         _______ _______ _______ _____ _____    ______ ____
ROOT
ATOM      1  O   UNL     1       2.044   8.355  19.200  0.00  0.00    +0.000 OA
ATOM      2  C   UNL     1       1.757   7.498  20.029  0.00  0.00    +0.000 C 
ATOM      3  N   UNL     1       0.961   7.666  21.158  0.00  0.00    +0.000 N 
ATOM      4  H   UNL     1       0.972   6.933  21.856  0.00  0.00    +0.000 HD
ENDROOT
BRANCH   3   5
ATOM      5  C   UNL     1       0.331   8.882  21.513  0.00  0.00    +0.000 A 
ATOM      6  C   UNL     1       0.223   9.943  20.621  0.00  0.00    +0.000 A 
ATOM      7  C   UNL     1      -0.306  11.169  21.016  0.00  0.00    +0.000 A 
ATOM      8  C   UNL     1      -0.760  11.373  22.315  0.00  0.00    +0.000 A 
ATOM      9  C   UNL     1      -0.718  10.290  23.204  0.00  0.00    +0.000 A 
ATOM     10  C   UNL     1      -0.184   9.049  22.803  0.00  0.00    +0.000 A 
BRANCH   8  11
ATOM     11  N   UNL     1      -1.249  12.622  22.763  0.00  0.00    +0.000 N 
ATOM     12  C   UNL     1      -2.572  12.915  23.049  0.00  0.00    +0.000 C 
ATOM     13  O   UNL     1      -3.532  12.161  22.969  0.00  0.00    +0.000 OA
ATOM     14  H   UNL     1      -0.574  13.367  22.864  0.00  0.00    +0.000 HD
BRANCH  12  15
ATOM     15  C   UNL     1      -2.804  14.309  23.535  0.00  0.00    +0.000 C 
ATOM     16  C   UNL     1      -1.730  14.972  24.367  0.00  0.00    +0.000 C 
ATOM     17  C   UNL     1      -3.018  14.558  25.016  0.00  0.00    +0.000 C 
ENDBRANCH  12  15
ENDBRANCH   8  11
ENDBRANCH   3   5
BRANCH   2  18
ATOM     18  C   UNL     1       2.385   6.170  19.846  0.00  0.00    +0.000 A 
ATOM     19  C   UNL     1       1.952   5.132  20.675  0.00  0.00    +0.000 A 
ATOM     20  C   UNL     1       2.554   3.887  20.591  0.00  0.00    +0.000 A 
ATOM     21  C   UNL     1       3.603   3.687  19.689  0.00  0.00    +0.000 A 
ATOM     22  C   UNL     1       4.089   4.714  18.857  0.00  0.00    +0.000 A 
ATOM     23  C   UNL     1       3.442   5.959  18.948  0.00  0.00    +0.000 A 
BRANCH  22  24
ATOM     24  N   UNL     1       5.150   4.505  18.002  0.00  0.00    +0.000 N 
ATOM     25  C   UNL     1       5.000   4.131  16.597  0.00  0.00    +0.000 C 
ATOM     26  C   UNL     1       6.389   4.267  16.076  0.00  0.00    +0.000 C 
ATOM     27  C   UNL     1       7.227   4.697  17.024  0.00  0.00    +0.000 C 
ATOM     28  C   UNL     1       6.522   4.901  18.323  0.00  0.00    +0.000 C 
ENDBRANCH  22  24
ENDBRANCH   2  18
TORSDOF 5
ENDMDL
MODEL 7
REMARK VINA RESULT:      -7.7      2.041     10.396
REMARK  Name = 
REMARK  5 active torsions:
REMARK  status: ('A' for Active; 'I' for Inactive)
REMARK    1  A    between atoms: C_2  and  C_16
REMARK    2  A    between atoms: N_3  and  C_4
REMARK    3  A    between atoms: C_7  and  N_8
REMARK    4  A    between atoms: C_9  and  C_11
REMARK    5  A    between atoms: C_20  and  N_21
REMARK                            x       y       z     vdW  Elec       q    Type
REMARK                         _______ _______ _______ _____ _____    ______ ____
ROOT
ATOM      1  O   UNL     1       8.261   6.751  18.866  0.00  0.00    +0.000 OA
ATOM      2  C   UNL     1       7.606   7.133  17.902  0.00  0.00    +0.000 C 
ATOM      3  N   UNL     1       7.533   8.431  17.408  0.00  0.00    +0.000 N 
ATOM      4  H   UNL     1       6.805   8.640  16.737  0.00  0.00    +0.000 HD
ENDROOT
BRANCH   3   5
ATOM      5  C   UNL     1       8.242   9.529  17.949  0.00  0.00    +0.000 A 
ATOM      6  C   UNL     1       9.061   9.399  19.066  0.00  0.00    +0.000 A 
ATOM      7  C   UNL     1       9.670  10.507  19.649  0.00  0.00    +0.000 A 
ATOM      8  C   UNL     1       9.493  11.785  19.128  0.00  0.00    +0.000 A 
ATOM      9  C   UNL     1       8.724  11.919  17.963  0.00  0.00    +0.000 A 
ATOM     10  C   UNL     1       8.109  10.797  17.372  0.00  0.00    +0.000 A 
BRANCH   8  11
ATOM     11  N   UNL     1      10.050  12.936  19.730  0.00  0.00    +0.000 N 
ATOM     12  C   UNL     1      11.222  13.562  19.342  0.00  0.00    +0.000 C 
ATOM     13  O   UNL     1      11.968  13.240  18.427  0.00  0.00    +0.000 OA
ATOM     14  H   UNL     1       9.556  13.321  20.524  0.00  0.00    +0.000 HD
BRANCH  12  15
ATOM     15  C   UNL     1      11.562  14.782  20.136  0.00  0.00    +0.000 C 
ATOM     16  C   UNL     1      10.558  15.291  21.145  0.00  0.00    +0.000 C 
ATOM     17  C   UNL     1      10.803  16.071  19.887  0.00  0.00    +0.000 C 
ENDBRANCH  12  15
ENDBRANCH   8  11
ENDBRANCH   3   5
BRANCH   2  18
ATOM     18  C   UNL     1       6.749   6.119  17.247  0.00  0.00    +0.000 A 
ATOM     19  C   UNL     1       7.187   5.595  16.029  0.00  0.00    +0.000 A 
ATOM     20  C   UNL     1       6.391   4.694  15.341  0.00  0.00    +0.000 A 
ATOM     21  C   UNL     1       5.147   4.332  15.864  0.00  0.00    +0.000 A 
ATOM     22  C   UNL     1       4.655   4.859  17.074  0.00  0.00    +0.000 A 
ATOM     23  C   UNL     1       5.497   5.752  17.761  0.00  0.00    +0.000 A 
BRANCH  22  24
ATOM     24  N   UNL     1       3.409   4.517  17.553  0.00  0.00    +0.000 N 
ATOM     25  C   UNL     1       2.778   3.219  17.325  0.00  0.00    +0.000 C 
ATOM     26  C   UNL     1       1.595   3.270  18.228  0.00  0.00    +0.000 C 
ATOM     27  C   UNL     1       1.556   4.413  18.919  0.00  0.00    +0.000 C 
ATOM     28  C   UNL     1       2.704   5.300  18.569  0.00  0.00    +0.000 C 
ENDBRANCH  22  24
ENDBRANCH   2  18
TORSDOF 5
ENDMDL
MODEL 8
REMARK VINA RESULT:      -7.6      7.062     11.084
REMARK  Name = 
REMARK  5 active torsions:
REMARK  status: ('A' for Active; 'I' for Inactive)
REMARK    1  A    between atoms: C_2  and  C_16
REMARK    2  A    between atoms: N_3  and  C_4
REMARK    3  A    between atoms: C_7  and  N_8
REMARK    4  A    between atoms: C_9  and  C_11
REMARK    5  A    between atoms: C_20  and  N_21
REMARK                            x       y       z     vdW  Elec       q    Type
REMARK                         _______ _______ _______ _____ _____    ______ ____
ROOT
ATOM      1  O   UNL     1       1.225   8.847  20.868  0.00  0.00    +0.000 OA
ATOM      2  C   UNL     1       1.595   8.606  19.724  0.00  0.00    +0.000 C 
ATOM      3  N   UNL     1       1.516   9.459  18.628  0.00  0.00    +0.000 N 
ATOM      4  H   UNL     1       1.673   9.063  17.710  0.00  0.00    +0.000 HD
ENDROOT
BRANCH   3   5
ATOM      5  C   UNL     1       0.998  10.775  18.680  0.00  0.00    +0.000 A 
ATOM      6  C   UNL     1      -0.369  11.028  18.726  0.00  0.00    +0.000 A 
ATOM      7  C   UNL     1      -0.866  12.327  18.672  0.00  0.00    +0.000 A 
ATOM      8  C   UNL     1      -0.013  13.422  18.585  0.00  0.00    +0.000 A 
ATOM      9  C   UNL     1       1.368  13.183  18.606  0.00  0.00    +0.000 A 
ATOM     10  C   UNL     1       1.871  11.868  18.662  0.00  0.00    +0.000 A 
BRANCH   8  11
ATOM     11  N   UNL     1      -0.488  14.749  18.472  0.00  0.00    +0.000 N 
ATOM     12  C   UNL     1      -0.588  15.662  19.508  0.00  0.00    +0.000 C 
ATOM     13  O   UNL     1      -0.287  15.488  20.681  0.00  0.00    +0.000 OA
ATOM     14  H   UNL     1      -0.798  15.046  17.557  0.00  0.00    +0.000 HD
BRANCH  12  15
ATOM     15  C   UNL     1      -1.094  17.007  19.099  0.00  0.00    +0.000 C 
ATOM     16  C   UNL     1      -0.681  17.556  17.752  0.00  0.00    +0.000 C 
ATOM     17  C   UNL     1      -0.129  18.172  19.003  0.00  0.00    +0.000 C 
ENDBRANCH  12  15
ENDBRANCH   8  11
ENDBRANCH   3   5
BRANCH   2  18
ATOM     18  C   UNL     1       2.111   7.242  19.473  0.00  0.00    +0.000 A 
ATOM     19  C   UNL     1       1.904   6.281  20.466  0.00  0.00    +0.000 A 
ATOM     20  C   UNL     1       2.426   5.007  20.311  0.00  0.00    +0.000 A 
ATOM     21  C   UNL     1       3.172   4.700  19.169  0.00  0.00    +0.000 A 
ATOM     22  C   UNL     1       3.429   5.648  18.160  0.00  0.00    +0.000 A 
ATOM     23  C   UNL     1       2.866   6.925  18.334  0.00  0.00    +0.000 A 
BRANCH  22  24
ATOM     24  N   UNL     1       4.200   5.335  17.061  0.00  0.00    +0.000 N 
ATOM     25  C   UNL     1       4.989   6.315  16.315  0.00  0.00    +0.000 C 
ATOM     26  C   UNL     1       5.800   5.455  15.409  0.00  0.00    +0.000 C 
ATOM     27  C   UNL     1       5.557   4.157  15.618  0.00  0.00    +0.000 C 
ATOM     28  C   UNL     1       4.536   3.960  16.688  0.00  0.00    +0.000 C 
ENDBRANCH  22  24
ENDBRANCH   2  18
TORSDOF 5
ENDMDL
MODEL 9
REMARK VINA RESULT:      -7.6      8.367     11.680
REMARK  Name = 
REMARK  5 active torsions:
REMARK  status: ('A' for Active; 'I' for Inactive)
REMARK    1  A    between atoms: C_2  and  C_16
REMARK    2  A    between atoms: N_3  and  C_4
REMARK    3  A    between atoms: C_7  and  N_8
REMARK    4  A    between atoms: C_9  and  C_11
REMARK    5  A    between atoms: C_20  and  N_21
REMARK                            x       y       z     vdW  Elec       q    Type
REMARK                         _______ _______ _______ _____ _____    ______ ____
ROOT
ATOM      1  O   UNL     1       2.193   9.673  17.330  0.00  0.00    +0.000 OA
ATOM      2  C   UNL     1       1.908   8.889  18.229  0.00  0.00    +0.000 C 
ATOM      3  N   UNL     1       0.972   9.086  19.238  0.00  0.00    +0.000 N 
ATOM      4  H   UNL     1       0.981   8.447  20.022  0.00  0.00    +0.000 HD
ENDROOT
BRANCH   3   5
ATOM      5  C   UNL     1       0.173  10.247  19.366  0.00  0.00    +0.000 A 
ATOM      6  C   UNL     1       0.513  11.285  20.228  0.00  0.00    +0.000 A 
ATOM      7  C   UNL     1      -0.334  12.372  20.420  0.00  0.00    +0.000 A 
ATOM      8  C   UNL     1      -1.547  12.469  19.746  0.00  0.00    +0.000 A 
ATOM      9  C   UNL     1      -1.869  11.464  18.824  0.00  0.00    +0.000 A 
ATOM     10  C   UNL     1      -1.010  10.363  18.629  0.00  0.00    +0.000 A 
BRANCH   8  11
ATOM     11  N   UNL     1      -2.454  13.531  19.962  0.00  0.00    +0.000 N 
ATOM     12  C   UNL     1      -3.441  13.565  20.933  0.00  0.00    +0.000 C 
ATOM     13  O   UNL     1      -3.697  12.701  21.760  0.00  0.00    +0.000 OA
ATOM     14  H   UNL     1      -2.385  14.325  19.340  0.00  0.00    +0.000 HD
BRANCH  12  15
ATOM     15  C   UNL     1      -4.240  14.828  20.959  0.00  0.00    +0.000 C 
ATOM     16  C   UNL     1      -5.399  14.930  21.924  0.00  0.00    +0.000 C 
ATOM     17  C   UNL     1      -5.669  14.819  20.452  0.00  0.00    +0.000 C 
ENDBRANCH  12  15
ENDBRANCH   8  11
ENDBRANCH   3   5
BRANCH   2  18
ATOM     18  C   UNL     1       2.697   7.638  18.284  0.00  0.00    +0.000 A 
ATOM     19  C   UNL     1       3.757   7.503  17.385  0.00  0.00    +0.000 A 
ATOM     20  C   UNL     1       4.485   6.325  17.349  0.00  0.00    +0.000 A 
ATOM     21  C   UNL     1       4.138   5.273  18.201  0.00  0.00    +0.000 A 
ATOM     22  C   UNL     1       3.058   5.357  19.101  0.00  0.00    +0.000 A 
ATOM     23  C   UNL     1       2.354   6.574  19.132  0.00  0.00    +0.000 A 
BRANCH  22  24
ATOM     24  N   UNL     1       2.709   4.293  19.906  0.00  0.00    +0.000 N 
ATOM     25  C   UNL     1       3.526   3.091  20.064  0.00  0.00    +0.000 C 
ATOM     26  C   UNL     1       2.851   2.387  21.189  0.00  0.00    +0.000 C 
ATOM     27  C   UNL     1       1.813   3.090  21.654  0.00  0.00    +0.000 C 
ATOM     28  C   UNL     1       1.636   4.363  20.898  0.00  0.00    +0.000 C 
ENDBRANCH  22  24
ENDBRANCH   2  18
TORSDOF 5
ENDMDL
