MODEL 1
REMARK VINA RESULT:     -10.6      0.000      0.000
REMARK  Name = 
REMARK  3 active torsions:
REMARK  status: ('A' for Active; 'I' for Inactive)
REMARK    1  A    between atoms: C_1  and  S_2
REMARK    2  A    between atoms: S_2  and  C_5
REMARK    3  A    between atoms: C_12  and  C_14
REMARK                            x       y       z     vdW  Elec       q    Type
REMARK                         _______ _______ _______ _____ _____    ______ ____
ROOT
ATOM      1  C   UNL     1      -0.649  11.387  22.016  0.00  0.00    +0.000 A 
ATOM      2  C   UNL     1      -0.732  10.375  22.972  0.00  0.00    +0.000 A 
ATOM      3  C   UNL     1      -0.125   9.128  22.735  0.00  0.00    +0.000 A 
ATOM      4  C   UNL     1       0.601   8.914  21.533  0.00  0.00    +0.000 A 
ATOM      5  N   UNL     1       1.303   7.765  21.166  0.00  0.00    +0.000 NA
ATOM      6  C   UNL     1       1.812   7.925  19.962  0.00  0.00    +0.000 A 
ATOM      7  N   UNL     1       2.610   6.986  19.342  0.00  0.00    +0.000 N 
ATOM      8  C   UNL     1       2.870   6.925  17.981  0.00  0.00    +0.000 C 
ATOM      9  O   UNL     1       2.435   7.702  17.123  0.00  0.00    +0.000 OA
ATOM     10  S   UNL     1       1.521   9.434  19.229  0.00  0.00    +0.000 S 
ATOM     11  C   UNL     1       0.634   9.944  20.600  0.00  0.00    +0.000 A 
ATOM     12  C   UNL     1       0.022  11.187  20.807  0.00  0.00    +0.000 A 
ATOM     13  H   UNL     1       2.916   6.230  19.942  0.00  0.00    +0.000 HD
ENDROOT
BRANCH   8  14
ATOM     14  C   UNL     1       3.753   5.742  17.539  0.00  0.00    +0.000 C 
ATOM     15  C   UNL     1       3.270   4.454  18.179  0.00  0.00    +0.000 A 
ATOM     16  C   UNL     1       1.948   4.002  18.013  0.00  0.00    +0.000 A 
ATOM     17  C   UNL     1       1.496   2.866  18.692  0.00  0.00    +0.000 A 
ATOM     18  C   UNL     1       2.358   2.158  19.523  0.00  0.00    +0.000 A 
ATOM     19  C   UNL     1       3.675   2.583  19.669  0.00  0.00    +0.000 A 
ATOM     20  C   UNL     1       4.126   3.724  19.004  0.00  0.00    +0.000 A 
ATOM     21  O   UNL     1       5.427   4.073  19.252  0.00  0.00    +0.000 OA
ATOM     22  C   UNL     1       5.933   5.209  18.680  0.00  0.00    +0.000 A 
ATOM     23  C   UNL     1       7.251   5.514  19.022  0.00  0.00    +0.000 A 
ATOM     24  C   UNL     1       7.863   6.655  18.510  0.00  0.00    +0.000 A 
ATOM     25  C   UNL     1       7.159   7.485  17.643  0.00  0.00    +0.000 A 
ATOM     26  C   UNL     1       5.841   7.179  17.295  0.00  0.00    +0.000 A 
ATOM     27  C   UNL     1       5.208   6.042  17.828  0.00  0.00    +0.000 A 
ENDBRANCH   8  14
BRANCH   1  29
ATOM     28  C   UNL     1      -3.061  12.661  22.596  0.00  0.00    +0.000 C 
ATOM     29  S   UNL     1      -1.339  12.998  22.331  0.00  0.00    +0.000 S 
ATOM     30  O   UNL     1      -1.213  13.771  21.108  0.00  0.00    +0.000 OA
ATOM     31  O   UNL     1      -0.775  13.475  23.579  0.00  0.00    +0.000 OA
ENDBRANCH   1  29
TORSDOF 2
ENDMDL
MODEL 2
REMARK VINA RESULT:     -10.0      1.517      3.614
REMARK  Name = 
REMARK  3 active torsions:
REMARK  status: ('A' for Active; 'I' for Inactive)
REMARK    1  A    between atoms: C_1  and  S_2
REMARK    2  A    between atoms: S_2  and  C_5
REMARK    3  A    between atoms: C_12  and  C_14
REMARK                            x       y       z     vdW  Elec       q    Type
REMARK                         _______ _______ _______ _____ _____    ______ ____
ROOT
ATOM      1  C   UNL     1      -1.428  12.159  21.473  0.00  0.00    +0.000 A 
ATOM      2  C   UNL     1      -1.444  11.558  22.732  0.00  0.00    +0.000 A 
ATOM      3  C   UNL     1      -0.732  10.365  22.954  0.00  0.00    +0.000 A 
ATOM      4  C   UNL     1       0.030   9.791  21.901  0.00  0.00    +0.000 A 
ATOM      5  N   UNL     1       0.831   8.650  21.966  0.00  0.00    +0.000 NA
ATOM      6  C   UNL     1       1.346   8.405  20.778  0.00  0.00    +0.000 A 
ATOM      7  N   UNL     1       2.229   7.375  20.529  0.00  0.00    +0.000 N 
ATOM      8  C   UNL     1       2.516   6.847  19.279  0.00  0.00    +0.000 C 
ATOM      9  O   UNL     1       2.033   7.222  18.204  0.00  0.00    +0.000 OA
ATOM     10  S   UNL     1       0.943   9.517  19.553  0.00  0.00    +0.000 S 
ATOM     11  C   UNL     1      -0.006  10.413  20.658  0.00  0.00    +0.000 A 
ATOM     12  C   UNL     1      -0.722  11.591  20.410  0.00  0.00    +0.000 A 
ATOM     13  H   UNL     1       2.586   6.916  21.358  0.00  0.00    +0.000 HD
ENDROOT
BRANCH   8  14
ATOM     14  C   UNL     1       3.501   5.662  19.284  0.00  0.00    +0.000 C 
ATOM     15  C   UNL     1       4.293   5.629  17.991  0.00  0.00    +0.000 A 
ATOM     16  C   UNL     1       5.056   6.733  17.568  0.00  0.00    +0.000 A 
ATOM     17  C   UNL     1       5.698   6.717  16.326  0.00  0.00    +0.000 A 
ATOM     18  C   UNL     1       5.606   5.598  15.504  0.00  0.00    +0.000 A 
ATOM     19  C   UNL     1       4.878   4.492  15.929  0.00  0.00    +0.000 A 
ATOM     20  C   UNL     1       4.224   4.510  17.162  0.00  0.00    +0.000 A 
ATOM     21  O   UNL     1       3.504   3.383  17.460  0.00  0.00    +0.000 OA
ATOM     22  C   UNL     1       2.791   3.338  18.628  0.00  0.00    +0.000 A 
ATOM     23  C   UNL     1       2.049   2.173  18.830  0.00  0.00    +0.000 A 
ATOM     24  C   UNL     1       1.274   2.025  19.977  0.00  0.00    +0.000 A 
ATOM     25  C   UNL     1       1.251   3.040  20.930  0.00  0.00    +0.000 A 
ATOM     26  C   UNL     1       1.996   4.205  20.731  0.00  0.00    +0.000 A 
ATOM     27  C   UNL     1       2.761   4.372  19.563  0.00  0.00    +0.000 A 
ENDBRANCH   8  14
BRANCH   1  29
ATOM     28  C   UNL     1      -3.814  13.225  20.501  0.00  0.00    +0.000 C 
ATOM     29  S   UNL     1      -2.254  13.711  21.193  0.00  0.00    +0.000 S 
ATOM     30  O   UNL     1      -1.507  14.422  20.170  0.00  0.00    +0.000 OA
ATOM     31  O   UNL     1      -2.502  14.310  22.490  0.00  0.00    +0.000 OA
ENDBRANCH   1  29
TORSDOF 2
ENDMDL
MODEL 3
REMARK VINA RESULT:     -10.0      0.927      1.180
REMARK  Name = 
REMARK  3 active torsions:
REMARK  status: ('A' for Active; 'I' for Inactive)
REMARK    1  A    between atoms: C_1  and  S_2
REMARK    2  A    between atoms: S_2  and  C_5
REMARK    3  A    between atoms: C_12  and  C_14
REMARK                            x       y       z     vdW  Elec       q    Type
REMARK                         _______ _______ _______ _____ _____    ______ ____
ROOT
ATOM      1  C   UNL     1      -0.767  11.963  22.019  0.00  0.00    +0.000 A 
ATOM      2  C   UNL     1      -1.024  10.991  22.986  0.00  0.00    +0.000 A 
ATOM      3  C   UNL     1      -0.553   9.677  22.808  0.00  0.00    +0.000 A 
ATOM      4  C   UNL     1       0.214   9.352  21.658  0.00  0.00    +0.000 A 
ATOM      5  N   UNL     1       0.799   8.121  21.355  0.00  0.00    +0.000 NA
ATOM      6  C   UNL     1       1.394   8.192  20.182  0.00  0.00    +0.000 A 
ATOM      7  N   UNL     1       2.113   7.153  19.629  0.00  0.00    +0.000 N 
ATOM      8  C   UNL     1       2.445   7.030  18.288  0.00  0.00    +0.000 C 
ATOM      9  O   UNL     1       2.156   7.831  17.391  0.00  0.00    +0.000 OA
ATOM     10  S   UNL     1       1.325   9.707  19.407  0.00  0.00    +0.000 S 
ATOM     11  C   UNL     1       0.423  10.348  20.711  0.00  0.00    +0.000 A 
ATOM     12  C   UNL     1      -0.052  11.658  20.859  0.00  0.00    +0.000 A 
ATOM     13  H   UNL     1       2.293   6.382  20.260  0.00  0.00    +0.000 HD
ENDROOT
BRANCH   8  14
ATOM     14  C   UNL     1       3.209   5.743  17.922  0.00  0.00    +0.000 C 
ATOM     15  C   UNL     1       2.746   4.589  18.790  0.00  0.00    +0.000 A 
ATOM     16  C   UNL     1       1.394   4.205  18.842  0.00  0.00    +0.000 A 
ATOM     17  C   UNL     1       0.973   3.204  19.723  0.00  0.00    +0.000 A 
ATOM     18  C   UNL     1       1.895   2.561  20.543  0.00  0.00    +0.000 A 
ATOM     19  C   UNL     1       3.239   2.915  20.476  0.00  0.00    +0.000 A 
ATOM     20  C   UNL     1       3.659   3.924  19.608  0.00  0.00    +0.000 A 
ATOM     21  O   UNL     1       4.997   4.217  19.654  0.00  0.00    +0.000 OA
ATOM     22  C   UNL     1       5.484   5.229  18.871  0.00  0.00    +0.000 A 
ATOM     23  C   UNL     1       6.847   5.492  19.015  0.00  0.00    +0.000 A 
ATOM     24  C   UNL     1       7.446   6.510  18.279  0.00  0.00    +0.000 A 
ATOM     25  C   UNL     1       6.683   7.259  17.387  0.00  0.00    +0.000 A 
ATOM     26  C   UNL     1       5.319   6.994  17.239  0.00  0.00    +0.000 A 
ATOM     27  C   UNL     1       4.702   5.984  17.998  0.00  0.00    +0.000 A 
ENDBRANCH   8  14
BRANCH   1  29
ATOM     28  C   UNL     1       0.101  14.591  21.672  0.00  0.00    +0.000 C 
ATOM     29  S   UNL     1      -1.282  13.650  22.263  0.00  0.00    +0.000 S 
ATOM     30  O   UNL     1      -1.397  13.866  23.695  0.00  0.00    +0.000 OA
ATOM     31  O   UNL     1      -2.405  13.893  21.377  0.00  0.00    +0.000 OA
ENDBRANCH   1  29
TORSDOF 2
ENDMDL
MODEL 4
REMARK VINA RESULT:      -9.9      1.391      1.833
REMARK  Name = 
REMARK  3 active torsions:
REMARK  status: ('A' for Active; 'I' for Inactive)
REMARK    1  A    between atoms: C_1  and  S_2
REMARK    2  A    between atoms: S_2  and  C_5
REMARK    3  A    between atoms: C_12  and  C_14
REMARK                            x       y       z     vdW  Elec       q    Type
REMARK                         _______ _______ _______ _____ _____    ______ ____
ROOT
ATOM      1  C   UNL     1      -0.647  12.214  21.411  0.00  0.00    +0.000 A 
ATOM      2  C   UNL     1      -0.455  12.868  20.194  0.00  0.00    +0.000 A 
ATOM      3  C   UNL     1       0.200  12.211  19.135  0.00  0.00    +0.000 A 
ATOM      4  C   UNL     1       0.634  10.869  19.298  0.00  0.00    +0.000 A 
ATOM      5  N   UNL     1       1.246  10.059  18.341  0.00  0.00    +0.000 NA
ATOM      6  C   UNL     1       1.543   8.892  18.874  0.00  0.00    +0.000 A 
ATOM      7  N   UNL     1       2.106   7.851  18.165  0.00  0.00    +0.000 N 
ATOM      8  C   UNL     1       2.761   6.762  18.720  0.00  0.00    +0.000 C 
ATOM      9  O   UNL     1       2.934   6.555  19.927  0.00  0.00    +0.000 OA
ATOM     10  S   UNL     1       1.087   8.684  20.502  0.00  0.00    +0.000 S 
ATOM     11  C   UNL     1       0.443  10.268  20.538  0.00  0.00    +0.000 A 
ATOM     12  C   UNL     1      -0.190  10.909  21.611  0.00  0.00    +0.000 A 
ATOM     13  H   UNL     1       2.126   7.987  17.162  0.00  0.00    +0.000 HD
ENDROOT
BRANCH   8  14
ATOM     14  C   UNL     1       3.346   5.765  17.700  0.00  0.00    +0.000 C 
ATOM     15  C   UNL     1       2.863   4.359  17.999  0.00  0.00    +0.000 A 
ATOM     16  C   UNL     1       1.492   4.051  18.062  0.00  0.00    +0.000 A 
ATOM     17  C   UNL     1       1.068   2.772  18.437  0.00  0.00    +0.000 A 
ATOM     18  C   UNL     1       2.002   1.784  18.730  0.00  0.00    +0.000 A 
ATOM     19  C   UNL     1       3.360   2.073  18.642  0.00  0.00    +0.000 A 
ATOM     20  C   UNL     1       3.786   3.353  18.281  0.00  0.00    +0.000 A 
ATOM     21  O   UNL     1       5.143   3.536  18.266  0.00  0.00    +0.000 OA
ATOM     22  C   UNL     1       5.645   4.776  17.973  0.00  0.00    +0.000 A 
ATOM     23  C   UNL     1       7.035   4.885  18.024  0.00  0.00    +0.000 A 
ATOM     24  C   UNL     1       7.653   6.105  17.759  0.00  0.00    +0.000 A 
ATOM     25  C   UNL     1       6.879   7.213  17.429  0.00  0.00    +0.000 A 
ATOM     26  C   UNL     1       5.487   7.104  17.373  0.00  0.00    +0.000 A 
ATOM     27  C   UNL     1       4.854   5.883  17.664  0.00  0.00    +0.000 A 
ENDBRANCH   8  14
BRANCH   1  29
ATOM     28  C   UNL     1      -2.587  14.158  21.891  0.00  0.00    +0.000 C 
ATOM     29  S   UNL     1      -1.544  12.996  22.734  0.00  0.00    +0.000 S 
ATOM     30  O   UNL     1      -0.584  13.744  23.527  0.00  0.00    +0.000 OA
ATOM     31  O   UNL     1      -2.391  11.987  23.341  0.00  0.00    +0.000 OA
ENDBRANCH   1  29
TORSDOF 2
ENDMDL
MODEL 5
REMARK VINA RESULT:      -9.6      1.645      3.797
REMARK  Name = 
REMARK  3 active torsions:
REMARK  status: ('A' for Active; 'I' for Inactive)
REMARK    1  A    between atoms: C_1  and  S_2
REMARK    2  A    between atoms: S_2  and  C_5
REMARK    3  A    between atoms: C_12  and  C_14
REMARK                            x       y       z     vdW  Elec       q    Type
REMARK                         _______ _______ _______ _____ _____    ______ ____
ROOT
ATOM      1  C   UNL     1      -1.026  12.636  21.161  0.00  0.00    +0.000 A 
ATOM      2  C   UNL     1      -1.167  12.039  22.413  0.00  0.00    +0.000 A 
ATOM      3  C   UNL     1      -0.592  10.778  22.663  0.00  0.00    +0.000 A 
ATOM      4  C   UNL     1       0.160  10.132  21.646  0.00  0.00    +0.000 A 
ATOM      5  N   UNL     1       0.837   8.915  21.743  0.00  0.00    +0.000 NA
ATOM      6  C   UNL     1       1.384   8.621  20.582  0.00  0.00    +0.000 A 
ATOM      7  N   UNL     1       2.169   7.506  20.371  0.00  0.00    +0.000 N 
ATOM      8  C   UNL     1       2.465   6.954  19.133  0.00  0.00    +0.000 C 
ATOM      9  O   UNL     1       2.078   7.378  18.037  0.00  0.00    +0.000 OA
ATOM     10  S   UNL     1       1.160   9.769  19.345  0.00  0.00    +0.000 S 
ATOM     11  C   UNL     1       0.251  10.756  20.407  0.00  0.00    +0.000 A 
ATOM     12  C   UNL     1      -0.328  12.002  20.131  0.00  0.00    +0.000 A 
ATOM     13  H   UNL     1       2.435   7.012  21.214  0.00  0.00    +0.000 HD
ENDROOT
BRANCH   8  14
ATOM     14  C   UNL     1       3.323   5.675  19.180  0.00  0.00    +0.000 C 
ATOM     15  C   UNL     1       4.271   5.632  17.997  0.00  0.00    +0.000 A 
ATOM     16  C   UNL     1       5.185   6.673  17.751  0.00  0.00    +0.000 A 
ATOM     17  C   UNL     1       5.981   6.661  16.600  0.00  0.00    +0.000 A 
ATOM     18  C   UNL     1       5.891   5.605  15.698  0.00  0.00    +0.000 A 
ATOM     19  C   UNL     1       5.010   4.558  15.951  0.00  0.00    +0.000 A 
ATOM     20  C   UNL     1       4.205   4.574  17.091  0.00  0.00    +0.000 A 
ATOM     21  O   UNL     1       3.347   3.513  17.218  0.00  0.00    +0.000 OA
ATOM     22  C   UNL     1       2.485   3.477  18.281  0.00  0.00    +0.000 A 
ATOM     23  C   UNL     1       1.616   2.386  18.308  0.00  0.00    +0.000 A 
ATOM     24  C   UNL     1       0.686   2.256  19.336  0.00  0.00    +0.000 A 
ATOM     25  C   UNL     1       0.634   3.212  20.346  0.00  0.00    +0.000 A 
ATOM     26  C   UNL     1       1.508   4.303  20.323  0.00  0.00    +0.000 A 
ATOM     27  C   UNL     1       2.432   4.455  19.275  0.00  0.00    +0.000 A 
ENDBRANCH   8  14
BRANCH   1  29
ATOM     28  C   UNL     1      -1.234  15.167  22.313  0.00  0.00    +0.000 C 
ATOM     29  S   UNL     1      -1.674  14.265  20.850  0.00  0.00    +0.000 S 
ATOM     30  O   UNL     1      -3.122  14.155  20.805  0.00  0.00    +0.000 OA
ATOM     31  O   UNL     1      -0.931  14.822  19.736  0.00  0.00    +0.000 OA
ENDBRANCH   1  29
TORSDOF 2
ENDMDL
MODEL 6
REMARK VINA RESULT:      -9.6      1.583      2.102
REMARK  Name = 
REMARK  3 active torsions:
REMARK  status: ('A' for Active; 'I' for Inactive)
REMARK    1  A    between atoms: C_1  and  S_2
REMARK    2  A    between atoms: S_2  and  C_5
REMARK    3  A    between atoms: C_12  and  C_14
REMARK                            x       y       z     vdW  Elec       q    Type
REMARK                         _______ _______ _______ _____ _____    ______ ____
ROOT
ATOM      1  C   UNL     1      -0.288  12.872  20.383  0.00  0.00    +0.000 A 
ATOM      2  C   UNL     1       0.272  13.454  19.246  0.00  0.00    +0.000 A 
ATOM      3  C   UNL     1       1.042  12.675  18.362  0.00  0.00    +0.000 A 
ATOM      4  C   UNL     1       1.218  11.289  18.613  0.00  0.00    +0.000 A 
ATOM      5  N   UNL     1       1.901  10.369  17.816  0.00  0.00    +0.000 NA
ATOM      6  C   UNL     1       1.888   9.186  18.398  0.00  0.00    +0.000 A 
ATOM      7  N   UNL     1       2.431   8.053  17.830  0.00  0.00    +0.000 N 
ATOM      8  C   UNL     1       2.770   6.895  18.515  0.00  0.00    +0.000 C 
ATOM      9  O   UNL     1       2.631   6.701  19.728  0.00  0.00    +0.000 OA
ATOM     10  S   UNL     1       1.048   9.098  19.876  0.00  0.00    +0.000 S 
ATOM     11  C   UNL     1       0.662  10.761  19.772  0.00  0.00    +0.000 A 
ATOM     12  C   UNL     1      -0.093  11.521  20.676  0.00  0.00    +0.000 A 
ATOM     13  H   UNL     1       2.699   8.154  16.859  0.00  0.00    +0.000 HD
ENDROOT
BRANCH   8  14
ATOM     14  C   UNL     1       3.412   5.792  17.650  0.00  0.00    +0.000 C 
ATOM     15  C   UNL     1       2.891   4.429  18.061  0.00  0.00    +0.000 A 
ATOM     16  C   UNL     1       1.515   4.137  18.057  0.00  0.00    +0.000 A 
ATOM     17  C   UNL     1       1.048   2.907  18.534  0.00  0.00    +0.000 A 
ATOM     18  C   UNL     1       1.946   1.950  18.996  0.00  0.00    +0.000 A 
ATOM     19  C   UNL     1       3.311   2.221  18.975  0.00  0.00    +0.000 A 
ATOM     20  C   UNL     1       3.778   3.453  18.513  0.00  0.00    +0.000 A 
ATOM     21  O   UNL     1       5.135   3.625  18.576  0.00  0.00    +0.000 OA
ATOM     22  C   UNL     1       5.673   4.824  18.190  0.00  0.00    +0.000 A 
ATOM     23  C   UNL     1       7.057   4.931  18.329  0.00  0.00    +0.000 A 
ATOM     24  C   UNL     1       7.708   6.111  17.982  0.00  0.00    +0.000 A 
ATOM     25  C   UNL     1       6.974   7.183  17.482  0.00  0.00    +0.000 A 
ATOM     26  C   UNL     1       5.588   7.077  17.338  0.00  0.00    +0.000 A 
ATOM     27  C   UNL     1       4.921   5.897  17.710  0.00  0.00    +0.000 A 
ENDBRANCH   8  14
BRANCH   1  29
ATOM     28  C   UNL     1      -1.196  12.963  23.019  0.00  0.00    +0.000 C 
ATOM     29  S   UNL     1      -1.333  13.820  21.471  0.00  0.00    +0.000 S 
ATOM     30  O   UNL     1      -2.697  13.678  20.994  0.00  0.00    +0.000 OA
ATOM     31  O   UNL     1      -0.726  15.128  21.624  0.00  0.00    +0.000 OA
ENDBRANCH   1  29
TORSDOF 2
ENDMDL
MODEL 7
REMARK VINA RESULT:      -9.4      1.049      1.342
REMARK  Name = 
REMARK  3 active torsions:
REMARK  status: ('A' for Active; 'I' for Inactive)
REMARK    1  A    between atoms: C_1  and  S_2
REMARK    2  A    between atoms: S_2  and  C_5
REMARK    3  A    between atoms: C_12  and  C_14
REMARK                            x       y       z     vdW  Elec       q    Type
REMARK                         _______ _______ _______ _____ _____    ______ ____
ROOT
ATOM      1  C   UNL     1      -0.393  12.352  20.760  0.00  0.00    +0.000 A 
ATOM      2  C   UNL     1      -0.718  11.465  21.786  0.00  0.00    +0.000 A 
ATOM      3  C   UNL     1      -0.232  10.144  21.756  0.00  0.00    +0.000 A 
ATOM      4  C   UNL     1       0.617   9.727  20.697  0.00  0.00    +0.000 A 
ATOM      5  N   UNL     1       1.224   8.480  20.545  0.00  0.00    +0.000 NA
ATOM      6  C   UNL     1       1.903   8.455  19.416  0.00  0.00    +0.000 A 
ATOM      7  N   UNL     1       2.663   7.378  19.009  0.00  0.00    +0.000 N 
ATOM      8  C   UNL     1       3.092   7.143  17.711  0.00  0.00    +0.000 C 
ATOM      9  O   UNL     1       2.867   7.862  16.730  0.00  0.00    +0.000 OA
ATOM     10  S   UNL     1       1.888   9.897  18.510  0.00  0.00    +0.000 S 
ATOM     11  C   UNL     1       0.892  10.641  19.686  0.00  0.00    +0.000 A 
ATOM     12  C   UNL     1       0.405  11.955  19.685  0.00  0.00    +0.000 A 
ATOM     13  H   UNL     1       2.797   6.665  19.715  0.00  0.00    +0.000 HD
ENDROOT
BRANCH   8  14
ATOM     14  C   UNL     1       3.883   5.835  17.514  0.00  0.00    +0.000 C 
ATOM     15  C   UNL     1       3.243   4.707  18.299  0.00  0.00    +0.000 A 
ATOM     16  C   UNL     1       1.897   4.349  18.106  0.00  0.00    +0.000 A 
ATOM     17  C   UNL     1       1.299   3.373  18.910  0.00  0.00    +0.000 A 
ATOM     18  C   UNL     1       2.040   2.730  19.897  0.00  0.00    +0.000 A 
ATOM     19  C   UNL     1       3.380   3.059  20.075  0.00  0.00    +0.000 A 
ATOM     20  C   UNL     1       3.975   4.042  19.283  0.00  0.00    +0.000 A 
ATOM     21  O   UNL     1       5.287   4.313  19.572  0.00  0.00    +0.000 OA
ATOM     22  C   UNL     1       5.932   5.301  18.876  0.00  0.00    +0.000 A 
ATOM     23  C   UNL     1       7.250   5.541  19.265  0.00  0.00    +0.000 A 
ATOM     24  C   UNL     1       7.996   6.534  18.637  0.00  0.00    +0.000 A 
ATOM     25  C   UNL     1       7.427   7.279  17.607  0.00  0.00    +0.000 A 
ATOM     26  C   UNL     1       6.109   7.036  17.213  0.00  0.00    +0.000 A 
ATOM     27  C   UNL     1       5.341   6.052  17.861  0.00  0.00    +0.000 A 
ENDBRANCH   8  14
BRANCH   1  29
ATOM     28  C   UNL     1       0.039  14.737  22.139  0.00  0.00    +0.000 C 
ATOM     29  S   UNL     1      -0.928  14.049  20.820  0.00  0.00    +0.000 S 
ATOM     30  O   UNL     1      -2.321  14.051  21.232  0.00  0.00    +0.000 OA
ATOM     31  O   UNL     1      -0.514  14.679  19.580  0.00  0.00    +0.000 OA
ENDBRANCH   1  29
TORSDOF 2
ENDMDL
MODEL 8
REMARK VINA RESULT:      -8.2      3.005      9.643
REMARK  Name = 
REMARK  3 active torsions:
REMARK  status: ('A' for Active; 'I' for Inactive)
REMARK    1  A    between atoms: C_1  and  S_2
REMARK    2  A    between atoms: S_2  and  C_5
REMARK    3  A    between atoms: C_12  and  C_14
REMARK                            x       y       z     vdW  Elec       q    Type
REMARK                         _______ _______ _______ _____ _____    ______ ____
ROOT
ATOM      1  C   UNL     1       4.283   5.738  18.351  0.00  0.00    +0.000 A 
ATOM      2  C   UNL     1       4.543   6.350  17.125  0.00  0.00    +0.000 A 
ATOM      3  C   UNL     1       3.842   7.513  16.755  0.00  0.00    +0.000 A 
ATOM      4  C   UNL     1       2.893   8.080  17.647  0.00  0.00    +0.000 A 
ATOM      5  N   UNL     1       2.156   9.250  17.461  0.00  0.00    +0.000 NA
ATOM      6  C   UNL     1       1.348   9.430  18.486  0.00  0.00    +0.000 A 
ATOM      7  N   UNL     1       0.528  10.531  18.625  0.00  0.00    +0.000 N 
ATOM      8  C   UNL     1      -0.577  10.609  19.459  0.00  0.00    +0.000 C 
ATOM      9  O   UNL     1      -0.989   9.713  20.206  0.00  0.00    +0.000 OA
ATOM     10  S   UNL     1       1.446   8.261  19.720  0.00  0.00    +0.000 S 
ATOM     11  C   UNL     1       2.651   7.419  18.846  0.00  0.00    +0.000 A 
ATOM     12  C   UNL     1       3.324   6.250  19.228  0.00  0.00    +0.000 A 
ATOM     13  H   UNL     1       0.709  11.277  17.964  0.00  0.00    +0.000 HD
ENDROOT
BRANCH   8  14
ATOM     14  C   UNL     1      -1.354  11.938  19.386  0.00  0.00    +0.000 C 
ATOM     15  C   UNL     1      -1.688  12.432  20.780  0.00  0.00    +0.000 A 
ATOM     16  C   UNL     1      -0.685  12.652  21.741  0.00  0.00    +0.000 A 
ATOM     17  C   UNL     1      -1.022  13.011  23.050  0.00  0.00    +0.000 A 
ATOM     18  C   UNL     1      -2.356  13.178  23.408  0.00  0.00    +0.000 A 
ATOM     19  C   UNL     1      -3.352  12.991  22.455  0.00  0.00    +0.000 A 
ATOM     20  C   UNL     1      -3.019  12.618  21.152  0.00  0.00    +0.000 A 
ATOM     21  O   UNL     1      -4.081  12.422  20.309  0.00  0.00    +0.000 OA
ATOM     22  C   UNL     1      -3.845  12.005  19.026  0.00  0.00    +0.000 A 
ATOM     23  C   UNL     1      -4.984  11.786  18.250  0.00  0.00    +0.000 A 
ATOM     24  C   UNL     1      -4.863  11.345  16.936  0.00  0.00    +0.000 A 
ATOM     25  C   UNL     1      -3.599  11.135  16.391  0.00  0.00    +0.000 A 
ATOM     26  C   UNL     1      -2.458  11.359  17.165  0.00  0.00    +0.000 A 
ATOM     27  C   UNL     1      -2.573  11.780  18.502  0.00  0.00    +0.000 A 
ENDBRANCH   8  14
BRANCH   1  29
ATOM     28  C   UNL     1       4.048   3.391  19.839  0.00  0.00    +0.000 C 
ATOM     29  S   UNL     1       5.216   4.315  18.875  0.00  0.00    +0.000 S 
ATOM     30  O   UNL     1       6.264   4.785  19.763  0.00  0.00    +0.000 OA
ATOM     31  O   UNL     1       5.532   3.543  17.688  0.00  0.00    +0.000 OA
ENDBRANCH   1  29
TORSDOF 2
ENDMDL
MODEL 9
REMARK VINA RESULT:      -7.9      2.957      9.233
REMARK  Name = 
REMARK  3 active torsions:
REMARK  status: ('A' for Active; 'I' for Inactive)
REMARK    1  A    between atoms: C_1  and  S_2
REMARK    2  A    between atoms: S_2  and  C_5
REMARK    3  A    between atoms: C_12  and  C_14
REMARK                            x       y       z     vdW  Elec       q    Type
REMARK                         _______ _______ _______ _____ _____    ______ ____
ROOT
ATOM      1  C   UNL     1       3.180   4.721  19.226  0.00  0.00    +0.000 A 
ATOM      2  C   UNL     1       2.529   4.749  20.459  0.00  0.00    +0.000 A 
ATOM      3  C   UNL     1       1.892   5.926  20.894  0.00  0.00    +0.000 A 
ATOM      4  C   UNL     1       1.885   7.075  20.059  0.00  0.00    +0.000 A 
ATOM      5  N   UNL     1       1.259   8.297  20.312  0.00  0.00    +0.000 NA
ATOM      6  C   UNL     1       1.511   9.134  19.327  0.00  0.00    +0.000 A 
ATOM      7  N   UNL     1       0.985  10.407  19.256  0.00  0.00    +0.000 N 
ATOM      8  C   UNL     1       1.478  11.437  18.469  0.00  0.00    +0.000 C 
ATOM      9  O   UNL     1       2.454  11.370  17.712  0.00  0.00    +0.000 OA
ATOM     10  S   UNL     1       2.457   8.515  18.053  0.00  0.00    +0.000 S 
ATOM     11  C   UNL     1       2.568   7.006  18.851  0.00  0.00    +0.000 A 
ATOM     12  C   UNL     1       3.225   5.850  18.405  0.00  0.00    +0.000 A 
ATOM     13  H   UNL     1       0.257  10.600  19.932  0.00  0.00    +0.000 HD
ENDROOT
BRANCH   8  14
ATOM     14  C   UNL     1       0.736  12.780  18.616  0.00  0.00    +0.000 C 
ATOM     15  C   UNL     1       1.349  13.603  19.732  0.00  0.00    +0.000 A 
ATOM     16  C   UNL     1       2.714  13.942  19.731  0.00  0.00    +0.000 A 
ATOM     17  C   UNL     1       3.280  14.616  20.818  0.00  0.00    +0.000 A 
ATOM     18  C   UNL     1       2.489  14.978  21.904  0.00  0.00    +0.000 A 
ATOM     19  C   UNL     1       1.132  14.672  21.899  0.00  0.00    +0.000 A 
ATOM     20  C   UNL     1       0.568  13.987  20.822  0.00  0.00    +0.000 A 
ATOM     21  O   UNL     1      -0.767  13.704  20.942  0.00  0.00    +0.000 OA
ATOM     22  C   UNL     1      -1.387  12.989  19.952  0.00  0.00    +0.000 A 
ATOM     23  C   UNL     1      -2.735  12.705  20.176  0.00  0.00    +0.000 A 
ATOM     24  C   UNL     1      -3.461  11.970  19.242  0.00  0.00    +0.000 A 
ATOM     25  C   UNL     1      -2.841  11.531  18.076  0.00  0.00    +0.000 A 
ATOM     26  C   UNL     1      -1.493  11.818  17.848  0.00  0.00    +0.000 A 
ATOM     27  C   UNL     1      -0.747  12.538  18.798  0.00  0.00    +0.000 A 
ENDBRANCH   8  14
BRANCH   1  29
ATOM     28  C   UNL     1       2.551   2.094  18.533  0.00  0.00    +0.000 C 
ATOM     29  S   UNL     1       3.920   3.219  18.620  0.00  0.00    +0.000 S 
ATOM     30  O   UNL     1       4.833   2.742  19.644  0.00  0.00    +0.000 OA
ATOM     31  O   UNL     1       4.380   3.476  17.269  0.00  0.00    +0.000 OA
ENDBRANCH   1  29
TORSDOF 2
ENDMDL
