MODEL 1
REMARK VINA RESULT:      -8.1      0.000      0.000
REMARK  Name = 
REMARK  5 active torsions:
REMARK  status: ('A' for Active; 'I' for Inactive)
REMARK    1  A    between atoms: C_2  and  C_18
REMARK    2  A    between atoms: N_3  and  C_4
REMARK    3  A    between atoms: C_7  and  C_8
REMARK    4  A    between atoms: C_8  and  N_9
REMARK    5  A    between atoms: C_23  and  C_24
REMARK                            x       y       z     vdW  Elec       q    Type
REMARK                         _______ _______ _______ _____ _____    ______ ____
ROOT
ATOM      1  O   UNL     1       1.198  11.545  19.277  0.00  0.00    +0.000 OA
ATOM      2  C   UNL     1       0.461  10.855  19.967  0.00  0.00    +0.000 C 
ATOM      3  N   UNL     1       0.540   9.494  20.210  0.00  0.00    +0.000 N 
ATOM      4  H   UNL     1      -0.191   9.073  20.769  0.00  0.00    +0.000 HD
ENDROOT
BRANCH   3   5
ATOM      5  C   UNL     1       1.451   8.599  19.608  0.00  0.00    +0.000 A 
ATOM      6  C   UNL     1       1.947   8.769  18.316  0.00  0.00    +0.000 A 
ATOM      7  C   UNL     1       2.742   7.787  17.722  0.00  0.00    +0.000 A 
ATOM      8  C   UNL     1       3.060   6.614  18.412  0.00  0.00    +0.000 A 
ATOM      9  C   UNL     1       2.638   6.479  19.741  0.00  0.00    +0.000 A 
ATOM     10  C   UNL     1       1.840   7.466  20.335  0.00  0.00    +0.000 A 
BRANCH   8  11
ATOM     11  C   UNL     1       3.856   5.532  17.725  0.00  0.00    +0.000 C 
BRANCH  11  12
ATOM     12  N   UNL     1       5.274   5.810  17.752  0.00  0.00    +0.000 N 
ATOM     13  C   UNL     1       6.082   5.461  18.792  0.00  0.00    +0.000 C 
ATOM     14  O   UNL     1       5.764   4.835  19.792  0.00  0.00    +0.000 OA
ATOM     15  C   UNL     1       7.460   5.993  18.530  0.00  0.00    +0.000 C 
ATOM     16  C   UNL     1       7.386   6.558  17.125  0.00  0.00    +0.000 C 
ATOM     17  C   UNL     1       5.940   6.463  16.753  0.00  0.00    +0.000 C 
ATOM     18  O   UNL     1       5.462   6.881  15.711  0.00  0.00    +0.000 OA
ENDBRANCH  11  12
ENDBRANCH   8  11
ENDBRANCH   3   5
BRANCH   2  19
ATOM     19  C   UNL     1      -0.653  11.554  20.647  0.00  0.00    +0.000 A 
ATOM     20  C   UNL     1      -0.479  11.912  21.995  0.00  0.00    +0.000 A 
ATOM     21  C   UNL     1      -1.430  12.697  22.642  0.00  0.00    +0.000 A 
ATOM     22  C   UNL     1      -2.543  13.153  21.943  0.00  0.00    +0.000 A 
ATOM     23  C   UNL     1      -2.727  12.790  20.608  0.00  0.00    +0.000 A 
ATOM     24  C   UNL     1      -1.800  11.960  19.943  0.00  0.00    +0.000 A 
BRANCH  24  25
ATOM     25  C   UNL     1      -2.128  11.542  18.528  0.00  0.00    +0.000 C 
ATOM     26  F   UNL     1      -2.019  10.220  18.242  0.00  0.00    +0.000 F 
ATOM     27  F   UNL     1      -3.433  11.841  18.234  0.00  0.00    +0.000 F 
ATOM     28  F   UNL     1      -1.396  12.214  17.596  0.00  0.00    +0.000 F 
ENDBRANCH  24  25
ENDBRANCH   2  19
TORSDOF 5
ENDMDL
MODEL 2
REMARK VINA RESULT:      -8.1      1.218      1.740
REMARK  Name = 
REMARK  5 active torsions:
REMARK  status: ('A' for Active; 'I' for Inactive)
REMARK    1  A    between atoms: C_2  and  C_18
REMARK    2  A    between atoms: N_3  and  C_4
REMARK    3  A    between atoms: C_7  and  C_8
REMARK    4  A    between atoms: C_8  and  N_9
REMARK    5  A    between atoms: C_23  and  C_24
REMARK                            x       y       z     vdW  Elec       q    Type
REMARK                         _______ _______ _______ _____ _____    ______ ____
ROOT
ATOM      1  O   UNL     1      -1.120   9.969  19.178  0.00  0.00    +0.000 OA
ATOM      2  C   UNL     1      -0.258  10.426  19.916  0.00  0.00    +0.000 C 
ATOM      3  N   UNL     1       1.045   9.988  20.087  0.00  0.00    +0.000 N 
ATOM      4  H   UNL     1       1.610  10.456  20.783  0.00  0.00    +0.000 HD
ENDROOT
BRANCH   3   5
ATOM      5  C   UNL     1       1.613   8.836  19.501  0.00  0.00    +0.000 A 
ATOM      6  C   UNL     1       1.812   7.645  20.199  0.00  0.00    +0.000 A 
ATOM      7  C   UNL     1       2.497   6.580  19.612  0.00  0.00    +0.000 A 
ATOM      8  C   UNL     1       2.993   6.683  18.310  0.00  0.00    +0.000 A 
ATOM      9  C   UNL     1       2.719   7.844  17.575  0.00  0.00    +0.000 A 
ATOM     10  C   UNL     1       2.032   8.912  18.166  0.00  0.00    +0.000 A 
BRANCH   8  11
ATOM     11  C   UNL     1       3.796   5.550  17.721  0.00  0.00    +0.000 C 
BRANCH  11  12
ATOM     12  N   UNL     1       5.215   5.821  17.759  0.00  0.00    +0.000 N 
ATOM     13  C   UNL     1       6.010   5.480  18.813  0.00  0.00    +0.000 C 
ATOM     14  O   UNL     1       5.678   4.868  19.817  0.00  0.00    +0.000 OA
ATOM     15  C   UNL     1       7.393   6.002  18.559  0.00  0.00    +0.000 C 
ATOM     16  C   UNL     1       7.337   6.550  17.146  0.00  0.00    +0.000 C 
ATOM     17  C   UNL     1       5.895   6.458  16.760  0.00  0.00    +0.000 C 
ATOM     18  O   UNL     1       5.430   6.865  15.709  0.00  0.00    +0.000 OA
ENDBRANCH  11  12
ENDBRANCH   8  11
ENDBRANCH   3   5
BRANCH   2  19
ATOM     19  C   UNL     1      -0.639  11.606  20.724  0.00  0.00    +0.000 A 
ATOM     20  C   UNL     1      -0.984  11.396  22.071  0.00  0.00    +0.000 A 
ATOM     21  C   UNL     1      -1.209  12.481  22.915  0.00  0.00    +0.000 A 
ATOM     22  C   UNL     1      -1.064  13.777  22.431  0.00  0.00    +0.000 A 
ATOM     23  C   UNL     1      -0.735  13.990  21.092  0.00  0.00    +0.000 A 
ATOM     24  C   UNL     1      -0.544  12.909  20.206  0.00  0.00    +0.000 A 
BRANCH  24  25
ATOM     25  C   UNL     1      -0.284  13.234  18.753  0.00  0.00    +0.000 C 
ATOM     26  F   UNL     1      -1.176  12.756  17.851  0.00  0.00    +0.000 F 
ATOM     27  F   UNL     1      -0.307  14.591  18.559  0.00  0.00    +0.000 F 
ATOM     28  F   UNL     1       0.953  12.842  18.339  0.00  0.00    +0.000 F 
ENDBRANCH  24  25
ENDBRANCH   2  19
TORSDOF 5
ENDMDL
MODEL 3
REMARK VINA RESULT:      -8.0      1.666      2.297
REMARK  Name = 
REMARK  5 active torsions:
REMARK  status: ('A' for Active; 'I' for Inactive)
REMARK    1  A    between atoms: C_2  and  C_18
REMARK    2  A    between atoms: N_3  and  C_4
REMARK    3  A    between atoms: C_7  and  C_8
REMARK    4  A    between atoms: C_8  and  N_9
REMARK    5  A    between atoms: C_23  and  C_24
REMARK                            x       y       z     vdW  Elec       q    Type
REMARK                         _______ _______ _______ _____ _____    ______ ____
ROOT
ATOM      1  O   UNL     1       1.353  11.560  20.323  0.00  0.00    +0.000 OA
ATOM      2  C   UNL     1       0.394  10.841  20.569  0.00  0.00    +0.000 C 
ATOM      3  N   UNL     1       0.275   9.475  20.378  0.00  0.00    +0.000 N 
ATOM      4  H   UNL     1      -0.616   9.046  20.591  0.00  0.00    +0.000 HD
ENDROOT
BRANCH   3   5
ATOM      5  C   UNL     1       1.227   8.643  19.748  0.00  0.00    +0.000 A 
ATOM      6  C   UNL     1       1.661   8.837  18.438  0.00  0.00    +0.000 A 
ATOM      7  C   UNL     1       2.503   7.909  17.821  0.00  0.00    +0.000 A 
ATOM      8  C   UNL     1       2.932   6.769  18.507  0.00  0.00    +0.000 A 
ATOM      9  C   UNL     1       2.569   6.616  19.851  0.00  0.00    +0.000 A 
ATOM     10  C   UNL     1       1.724   7.548  20.468  0.00  0.00    +0.000 A 
BRANCH   8  11
ATOM     11  C   UNL     1       3.779   5.742  17.797  0.00  0.00    +0.000 C 
BRANCH  11  12
ATOM     12  N   UNL     1       3.410   4.395  18.168  0.00  0.00    +0.000 N 
ATOM     13  C   UNL     1       4.242   3.555  18.847  0.00  0.00    +0.000 C 
ATOM     14  O   UNL     1       5.355   3.815  19.281  0.00  0.00    +0.000 OA
ATOM     15  C   UNL     1       3.579   2.215  18.968  0.00  0.00    +0.000 C 
ATOM     16  C   UNL     1       2.185   2.433  18.413  0.00  0.00    +0.000 C 
ATOM     17  C   UNL     1       2.208   3.823  17.861  0.00  0.00    +0.000 C 
ATOM     18  O   UNL     1       1.283   4.349  17.265  0.00  0.00    +0.000 OA
ENDBRANCH  11  12
ENDBRANCH   8  11
ENDBRANCH   3   5
BRANCH   2  19
ATOM     19  C   UNL     1      -0.791  11.502  21.161  0.00  0.00    +0.000 A 
ATOM     20  C   UNL     1      -0.793  11.725  22.549  0.00  0.00    +0.000 A 
ATOM     21  C   UNL     1      -1.812  12.470  23.139  0.00  0.00    +0.000 A 
ATOM     22  C   UNL     1      -2.815  13.019  22.348  0.00  0.00    +0.000 A 
ATOM     23  C   UNL     1      -2.824  12.789  20.972  0.00  0.00    +0.000 A 
ATOM     24  C   UNL     1      -1.828  12.003  20.356  0.00  0.00    +0.000 A 
BRANCH  24  25
ATOM     25  C   UNL     1      -1.970  11.729  18.876  0.00  0.00    +0.000 C 
ATOM     26  F   UNL     1      -1.911  10.431  18.487  0.00  0.00    +0.000 F 
ATOM     27  F   UNL     1      -3.193  12.156  18.429  0.00  0.00    +0.000 F 
ATOM     28  F   UNL     1      -1.064  12.413  18.124  0.00  0.00    +0.000 F 
ENDBRANCH  24  25
ENDBRANCH   2  19
TORSDOF 5
ENDMDL
MODEL 4
REMARK VINA RESULT:      -8.0      0.260      1.641
REMARK  Name = 
REMARK  5 active torsions:
REMARK  status: ('A' for Active; 'I' for Inactive)
REMARK    1  A    between atoms: C_2  and  C_18
REMARK    2  A    between atoms: N_3  and  C_4
REMARK    3  A    between atoms: C_7  and  C_8
REMARK    4  A    between atoms: C_8  and  N_9
REMARK    5  A    between atoms: C_23  and  C_24
REMARK                            x       y       z     vdW  Elec       q    Type
REMARK                         _______ _______ _______ _____ _____    ______ ____
ROOT
ATOM      1  O   UNL     1       1.248  11.395  19.577  0.00  0.00    +0.000 OA
ATOM      2  C   UNL     1       0.470  10.663  20.172  0.00  0.00    +0.000 C 
ATOM      3  N   UNL     1       0.526   9.287  20.316  0.00  0.00    +0.000 N 
ATOM      4  H   UNL     1      -0.236   8.833  20.802  0.00  0.00    +0.000 HD
ENDROOT
BRANCH   3   5
ATOM      5  C   UNL     1       1.463   8.429  19.698  0.00  0.00    +0.000 A 
ATOM      6  C   UNL     1       1.991   8.665  18.429  0.00  0.00    +0.000 A 
ATOM      7  C   UNL     1       2.811   7.718  17.812  0.00  0.00    +0.000 A 
ATOM      8  C   UNL     1       3.123   6.518  18.455  0.00  0.00    +0.000 A 
ATOM      9  C   UNL     1       2.667   6.316  19.763  0.00  0.00    +0.000 A 
ATOM     10  C   UNL     1       1.843   7.267  20.381  0.00  0.00    +0.000 A 
BRANCH   8  11
ATOM     11  C   UNL     1       3.949   5.477  17.739  0.00  0.00    +0.000 C 
BRANCH  11  12
ATOM     12  N   UNL     1       5.354   5.812  17.741  0.00  0.00    +0.000 N 
ATOM     13  C   UNL     1       5.969   6.447  16.703  0.00  0.00    +0.000 C 
ATOM     14  O   UNL     1       5.445   6.866  15.682  0.00  0.00    +0.000 OA
ATOM     15  C   UNL     1       7.437   6.539  16.999  0.00  0.00    +0.000 C 
ATOM     16  C   UNL     1       7.570   6.019  18.417  0.00  0.00    +0.000 C 
ATOM     17  C   UNL     1       6.207   5.512  18.765  0.00  0.00    +0.000 C 
ATOM     18  O   UNL     1       5.920   4.952  19.810  0.00  0.00    +0.000 OA
ENDBRANCH  11  12
ENDBRANCH   8  11
ENDBRANCH   3   5
BRANCH   2  19
ATOM     19  C   UNL     1      -0.674  11.322  20.842  0.00  0.00    +0.000 A 
ATOM     20  C   UNL     1      -0.614  11.482  22.237  0.00  0.00    +0.000 A 
ATOM     21  C   UNL     1      -1.590  12.222  22.902  0.00  0.00    +0.000 A 
ATOM     22  C   UNL     1      -2.612  12.828  22.178  0.00  0.00    +0.000 A 
ATOM     23  C   UNL     1      -2.683  12.659  20.795  0.00  0.00    +0.000 A 
ATOM     24  C   UNL     1      -1.732  11.880  20.104  0.00  0.00    +0.000 A 
BRANCH  24  25
ATOM     25  C   UNL     1      -1.941  11.675  18.621  0.00  0.00    +0.000 C 
ATOM     26  F   UNL     1      -1.118  12.360  17.788  0.00  0.00    +0.000 F 
ATOM     27  F   UNL     1      -1.735  10.361  18.289  0.00  0.00    +0.000 F 
ATOM     28  F   UNL     1      -3.218  11.939  18.227  0.00  0.00    +0.000 F 
ENDBRANCH  24  25
ENDBRANCH   2  19
TORSDOF 5
ENDMDL
MODEL 5
REMARK VINA RESULT:      -7.9      2.056      2.914
REMARK  Name = 
REMARK  5 active torsions:
REMARK  status: ('A' for Active; 'I' for Inactive)
REMARK    1  A    between atoms: C_2  and  C_18
REMARK    2  A    between atoms: N_3  and  C_4
REMARK    3  A    between atoms: C_7  and  C_8
REMARK    4  A    between atoms: C_8  and  N_9
REMARK    5  A    between atoms: C_23  and  C_24
REMARK                            x       y       z     vdW  Elec       q    Type
REMARK                         _______ _______ _______ _____ _____    ______ ____
ROOT
ATOM      1  O   UNL     1      -1.037  10.046  19.021  0.00  0.00    +0.000 OA
ATOM      2  C   UNL     1      -0.205  10.441  19.827  0.00  0.00    +0.000 C 
ATOM      3  N   UNL     1       1.065   9.942  20.060  0.00  0.00    +0.000 N 
ATOM      4  H   UNL     1       1.605  10.362  20.806  0.00  0.00    +0.000 HD
ENDROOT
BRANCH   3   5
ATOM      5  C   UNL     1       1.621   8.786  19.470  0.00  0.00    +0.000 A 
ATOM      6  C   UNL     1       1.874   7.614  20.181  0.00  0.00    +0.000 A 
ATOM      7  C   UNL     1       2.545   6.546  19.580  0.00  0.00    +0.000 A 
ATOM      8  C   UNL     1       2.972   6.630  18.252  0.00  0.00    +0.000 A 
ATOM      9  C   UNL     1       2.643   7.771  17.509  0.00  0.00    +0.000 A 
ATOM     10  C   UNL     1       1.970   8.841  18.114  0.00  0.00    +0.000 A 
BRANCH   8  11
ATOM     11  C   UNL     1       3.762   5.496  17.646  0.00  0.00    +0.000 C 
BRANCH  11  12
ATOM     12  N   UNL     1       3.343   4.214  18.164  0.00  0.00    +0.000 N 
ATOM     13  C   UNL     1       4.146   3.422  18.930  0.00  0.00    +0.000 C 
ATOM     14  O   UNL     1       5.270   3.684  19.332  0.00  0.00    +0.000 OA
ATOM     15  C   UNL     1       3.431   2.131  19.200  0.00  0.00    +0.000 C 
ATOM     16  C   UNL     1       2.043   2.341  18.625  0.00  0.00    +0.000 C 
ATOM     17  C   UNL     1       2.118   3.659  17.923  0.00  0.00    +0.000 C 
ATOM     18  O   UNL     1       1.211   4.153  17.274  0.00  0.00    +0.000 OA
ENDBRANCH  11  12
ENDBRANCH   8  11
ENDBRANCH   3   5
BRANCH   2  19
ATOM     19  C   UNL     1      -0.587  11.609  20.652  0.00  0.00    +0.000 A 
ATOM     20  C   UNL     1      -0.901  11.384  22.003  0.00  0.00    +0.000 A 
ATOM     21  C   UNL     1      -1.124  12.459  22.861  0.00  0.00    +0.000 A 
ATOM     22  C   UNL     1      -1.009  13.761  22.384  0.00  0.00    +0.000 A 
ATOM     23  C   UNL     1      -0.712  13.988  21.040  0.00  0.00    +0.000 A 
ATOM     24  C   UNL     1      -0.523  12.917  20.142  0.00  0.00    +0.000 A 
BRANCH  24  25
ATOM     25  C   UNL     1      -0.298  13.257  18.686  0.00  0.00    +0.000 C 
ATOM     26  F   UNL     1      -1.210  12.784  17.801  0.00  0.00    +0.000 F 
ATOM     27  F   UNL     1      -0.330  14.616  18.505  0.00  0.00    +0.000 F 
ATOM     28  F   UNL     1       0.930  12.874  18.239  0.00  0.00    +0.000 F 
ENDBRANCH  24  25
ENDBRANCH   2  19
TORSDOF 5
ENDMDL
MODEL 6
REMARK VINA RESULT:      -7.9      1.789      2.538
REMARK  Name = 
REMARK  5 active torsions:
REMARK  status: ('A' for Active; 'I' for Inactive)
REMARK    1  A    between atoms: C_2  and  C_18
REMARK    2  A    between atoms: N_3  and  C_4
REMARK    3  A    between atoms: C_7  and  C_8
REMARK    4  A    between atoms: C_8  and  N_9
REMARK    5  A    between atoms: C_23  and  C_24
REMARK                            x       y       z     vdW  Elec       q    Type
REMARK                         _______ _______ _______ _____ _____    ______ ____
ROOT
ATOM      1  O   UNL     1       1.672   9.832  22.414  0.00  0.00    +0.000 OA
ATOM      2  C   UNL     1       0.801  10.074  21.589  0.00  0.00    +0.000 C 
ATOM      3  N   UNL     1       0.625   9.508  20.337  0.00  0.00    +0.000 N 
ATOM      4  H   UNL     1      -0.125   9.867  19.761  0.00  0.00    +0.000 HD
ENDROOT
BRANCH   3   5
ATOM      5  C   UNL     1       1.501   8.592  19.714  0.00  0.00    +0.000 A 
ATOM      6  C   UNL     1       2.079   8.819  18.466  0.00  0.00    +0.000 A 
ATOM      7  C   UNL     1       2.832   7.825  17.837  0.00  0.00    +0.000 A 
ATOM      8  C   UNL     1       3.024   6.584  18.449  0.00  0.00    +0.000 A 
ATOM      9  C   UNL     1       2.519   6.383  19.740  0.00  0.00    +0.000 A 
ATOM     10  C   UNL     1       1.764   7.382  20.369  0.00  0.00    +0.000 A 
BRANCH   8  11
ATOM     11  C   UNL     1       3.776   5.497  17.720  0.00  0.00    +0.000 C 
BRANCH  11  12
ATOM     12  N   UNL     1       5.198   5.749  17.701  0.00  0.00    +0.000 N 
ATOM     13  C   UNL     1       5.837   6.341  16.653  0.00  0.00    +0.000 C 
ATOM     14  O   UNL     1       5.325   6.785  15.636  0.00  0.00    +0.000 OA
ATOM     15  C   UNL     1       7.311   6.347  16.929  0.00  0.00    +0.000 C 
ATOM     16  C   UNL     1       7.432   5.828  18.349  0.00  0.00    +0.000 C 
ATOM     17  C   UNL     1       6.045   5.404  18.717  0.00  0.00    +0.000 C 
ATOM     18  O   UNL     1       5.739   4.867  19.769  0.00  0.00    +0.000 OA
ENDBRANCH  11  12
ENDBRANCH   8  11
ENDBRANCH   3   5
BRANCH   2  19
ATOM     19  C   UNL     1      -0.207  11.088  21.971  0.00  0.00    +0.000 A 
ATOM     20  C   UNL     1      -1.218  10.703  22.868  0.00  0.00    +0.000 A 
ATOM     21  C   UNL     1      -2.105  11.650  23.376  0.00  0.00    +0.000 A 
ATOM     22  C   UNL     1      -1.972  12.987  23.015  0.00  0.00    +0.000 A 
ATOM     23  C   UNL     1      -0.978  13.371  22.114  0.00  0.00    +0.000 A 
ATOM     24  C   UNL     1      -0.095  12.426  21.553  0.00  0.00    +0.000 A 
BRANCH  24  25
ATOM     25  C   UNL     1       0.888  12.917  20.516  0.00  0.00    +0.000 C 
ATOM     26  F   UNL     1       0.743  12.431  19.258  0.00  0.00    +0.000 F 
ATOM     27  F   UNL     1       0.779  14.275  20.363  0.00  0.00    +0.000 F 
ATOM     28  F   UNL     1       2.184  12.709  20.877  0.00  0.00    +0.000 F 
ENDBRANCH  24  25
ENDBRANCH   2  19
TORSDOF 5
ENDMDL
MODEL 7
REMARK VINA RESULT:      -7.9      1.597      2.399
REMARK  Name = 
REMARK  5 active torsions:
REMARK  status: ('A' for Active; 'I' for Inactive)
REMARK    1  A    between atoms: C_2  and  C_18
REMARK    2  A    between atoms: N_3  and  C_4
REMARK    3  A    between atoms: C_7  and  C_8
REMARK    4  A    between atoms: C_8  and  N_9
REMARK    5  A    between atoms: C_23  and  C_24
REMARK                            x       y       z     vdW  Elec       q    Type
REMARK                         _______ _______ _______ _____ _____    ______ ____
ROOT
ATOM      1  O   UNL     1       1.049  11.571  19.048  0.00  0.00    +0.000 OA
ATOM      2  C   UNL     1       0.400  10.894  19.834  0.00  0.00    +0.000 C 
ATOM      3  N   UNL     1       0.557   9.554  20.143  0.00  0.00    +0.000 N 
ATOM      4  H   UNL     1      -0.107   9.139  20.784  0.00  0.00    +0.000 HD
ENDROOT
BRANCH   3   5
ATOM      5  C   UNL     1       1.454   8.661  19.517  0.00  0.00    +0.000 A 
ATOM      6  C   UNL     1       1.928   8.842  18.218  0.00  0.00    +0.000 A 
ATOM      7  C   UNL     1       2.708   7.862  17.601  0.00  0.00    +0.000 A 
ATOM      8  C   UNL     1       3.034   6.682  18.274  0.00  0.00    +0.000 A 
ATOM      9  C   UNL     1       2.634   6.535  19.608  0.00  0.00    +0.000 A 
ATOM     10  C   UNL     1       1.851   7.520  20.226  0.00  0.00    +0.000 A 
BRANCH   8  11
ATOM     11  C   UNL     1       3.813   5.603  17.562  0.00  0.00    +0.000 C 
BRANCH  11  12
ATOM     12  N   UNL     1       3.606   4.306  18.164  0.00  0.00    +0.000 N 
ATOM     13  C   UNL     1       2.469   3.576  17.987  0.00  0.00    +0.000 C 
ATOM     14  O   UNL     1       1.515   3.861  17.278  0.00  0.00    +0.000 OA
ATOM     15  C   UNL     1       2.554   2.341  18.834  0.00  0.00    +0.000 C 
ATOM     16  C   UNL     1       3.959   2.368  19.402  0.00  0.00    +0.000 C 
ATOM     17  C   UNL     1       4.513   3.692  18.981  0.00  0.00    +0.000 C 
ATOM     18  O   UNL     1       5.610   4.120  19.302  0.00  0.00    +0.000 OA
ENDBRANCH  11  12
ENDBRANCH   8  11
ENDBRANCH   3   5
BRANCH   2  19
ATOM     19  C   UNL     1      -0.684  11.589  20.565  0.00  0.00    +0.000 A 
ATOM     20  C   UNL     1      -0.451  11.938  21.906  0.00  0.00    +0.000 A 
ATOM     21  C   UNL     1      -1.375  12.719  22.599  0.00  0.00    +0.000 A 
ATOM     22  C   UNL     1      -2.517  13.179  21.951  0.00  0.00    +0.000 A 
ATOM     23  C   UNL     1      -2.758  12.823  20.624  0.00  0.00    +0.000 A 
ATOM     24  C   UNL     1      -1.860  11.998  19.914  0.00  0.00    +0.000 A 
BRANCH  24  25
ATOM     25  C   UNL     1      -2.249  11.587  18.512  0.00  0.00    +0.000 C 
ATOM     26  F   UNL     1      -2.129  10.271  18.206  0.00  0.00    +0.000 F 
ATOM     27  F   UNL     1      -3.572  11.863  18.285  0.00  0.00    +0.000 F 
ATOM     28  F   UNL     1      -1.577  12.283  17.554  0.00  0.00    +0.000 F 
ENDBRANCH  24  25
ENDBRANCH   2  19
TORSDOF 5
ENDMDL
MODEL 8
REMARK VINA RESULT:      -7.8      2.167      3.257
REMARK  Name = 
REMARK  5 active torsions:
REMARK  status: ('A' for Active; 'I' for Inactive)
REMARK    1  A    between atoms: C_2  and  C_18
REMARK    2  A    between atoms: N_3  and  C_4
REMARK    3  A    between atoms: C_7  and  C_8
REMARK    4  A    between atoms: C_8  and  N_9
REMARK    5  A    between atoms: C_23  and  C_24
REMARK                            x       y       z     vdW  Elec       q    Type
REMARK                         _______ _______ _______ _____ _____    ______ ____
ROOT
ATOM      1  O   UNL     1      -1.221  10.139  19.275  0.00  0.00    +0.000 OA
ATOM      2  C   UNL     1      -0.334  10.585  19.991  0.00  0.00    +0.000 C 
ATOM      3  N   UNL     1       0.956  10.110  20.154  0.00  0.00    +0.000 N 
ATOM      4  H   UNL     1       1.546  10.575  20.832  0.00  0.00    +0.000 HD
ENDROOT
BRANCH   3   5
ATOM      5  C   UNL     1       1.479   8.926  19.587  0.00  0.00    +0.000 A 
ATOM      6  C   UNL     1       1.755   7.782  20.334  0.00  0.00    +0.000 A 
ATOM      7  C   UNL     1       2.393   6.686  19.749  0.00  0.00    +0.000 A 
ATOM      8  C   UNL     1       2.763   6.712  18.402  0.00  0.00    +0.000 A 
ATOM      9  C   UNL     1       2.408   7.825  17.628  0.00  0.00    +0.000 A 
ATOM     10  C   UNL     1       1.769   8.923  18.217  0.00  0.00    +0.000 A 
BRANCH   8  11
ATOM     11  C   UNL     1       3.519   5.549  17.809  0.00  0.00    +0.000 C 
BRANCH  11  12
ATOM     12  N   UNL     1       2.976   4.281  18.240  0.00  0.00    +0.000 N 
ATOM     13  C   UNL     1       1.745   3.832  17.865  0.00  0.00    +0.000 C 
ATOM     14  O   UNL     1       0.966   4.375  17.095  0.00  0.00    +0.000 OA
ATOM     15  C   UNL     1       1.467   2.540  18.576  0.00  0.00    +0.000 C 
ATOM     16  C   UNL     1       2.766   2.215  19.288  0.00  0.00    +0.000 C 
ATOM     17  C   UNL     1       3.627   3.418  19.075  0.00  0.00    +0.000 C 
ATOM     18  O   UNL     1       4.739   3.570  19.555  0.00  0.00    +0.000 OA
ENDBRANCH  11  12
ENDBRANCH   8  11
ENDBRANCH   3   5
BRANCH   2  19
ATOM     19  C   UNL     1      -0.666  11.795  20.777  0.00  0.00    +0.000 A 
ATOM     20  C   UNL     1      -1.020  11.625  22.126  0.00  0.00    +0.000 A 
ATOM     21  C   UNL     1      -1.200  12.734  22.950  0.00  0.00    +0.000 A 
ATOM     22  C   UNL     1      -1.000  14.013  22.443  0.00  0.00    +0.000 A 
ATOM     23  C   UNL     1      -0.662  14.187  21.100  0.00  0.00    +0.000 A 
ATOM     24  C   UNL     1      -0.516  13.083  20.235  0.00  0.00    +0.000 A 
BRANCH  24  25
ATOM     25  C   UNL     1      -0.240  13.371  18.777  0.00  0.00    +0.000 C 
ATOM     26  F   UNL     1      -1.126  12.872  17.878  0.00  0.00    +0.000 F 
ATOM     27  F   UNL     1      -0.257  14.722  18.547  0.00  0.00    +0.000 F 
ATOM     28  F   UNL     1       0.998  12.964  18.384  0.00  0.00    +0.000 F 
ENDBRANCH  24  25
ENDBRANCH   2  19
TORSDOF 5
ENDMDL
MODEL 9
REMARK VINA RESULT:      -7.8      1.966      2.801
REMARK  Name = 
REMARK  5 active torsions:
REMARK  status: ('A' for Active; 'I' for Inactive)
REMARK    1  A    between atoms: C_2  and  C_18
REMARK    2  A    between atoms: N_3  and  C_4
REMARK    3  A    between atoms: C_7  and  C_8
REMARK    4  A    between atoms: C_8  and  N_9
REMARK    5  A    between atoms: C_23  and  C_24
REMARK                            x       y       z     vdW  Elec       q    Type
REMARK                         _______ _______ _______ _____ _____    ______ ____
ROOT
ATOM      1  O   UNL     1       1.598  10.710  21.762  0.00  0.00    +0.000 OA
ATOM      2  C   UNL     1       0.545  10.490  21.179  0.00  0.00    +0.000 C 
ATOM      3  N   UNL     1       0.285   9.538  20.208  0.00  0.00    +0.000 N 
ATOM      4  H   UNL     1      -0.638   9.529  19.794  0.00  0.00    +0.000 HD
ENDROOT
BRANCH   3   5
ATOM      5  C   UNL     1       1.238   8.683  19.612  0.00  0.00    +0.000 A 
ATOM      6  C   UNL     1       1.740   8.880  18.326  0.00  0.00    +0.000 A 
ATOM      7  C   UNL     1       2.580   7.933  17.736  0.00  0.00    +0.000 A 
ATOM      8  C   UNL     1       2.940   6.772  18.425  0.00  0.00    +0.000 A 
ATOM      9  C   UNL     1       2.509   6.613  19.749  0.00  0.00    +0.000 A 
ATOM     10  C   UNL     1       1.666   7.564  20.339  0.00  0.00    +0.000 A 
BRANCH   8  11
ATOM     11  C   UNL     1       3.786   5.727  17.741  0.00  0.00    +0.000 C 
BRANCH  11  12
ATOM     12  N   UNL     1       3.476   4.395  18.209  0.00  0.00    +0.000 N 
ATOM     13  C   UNL     1       2.293   3.771  17.948  0.00  0.00    +0.000 C 
ATOM     14  O   UNL     1       1.375   4.193  17.260  0.00  0.00    +0.000 OA
ATOM     15  C   UNL     1       2.274   2.456  18.669  0.00  0.00    +0.000 C 
ATOM     16  C   UNL     1       3.667   2.325  19.252  0.00  0.00    +0.000 C 
ATOM     17  C   UNL     1       4.322   3.640  18.971  0.00  0.00    +0.000 C 
ATOM     18  O   UNL     1       5.440   3.953  19.345  0.00  0.00    +0.000 OA
ENDBRANCH  11  12
ENDBRANCH   8  11
ENDBRANCH   3   5
BRANCH   2  19
ATOM     19  C   UNL     1      -0.611  11.331  21.564  0.00  0.00    +0.000 A 
ATOM     20  C   UNL     1      -1.271  11.029  22.768  0.00  0.00    +0.000 A 
ATOM     21  C   UNL     1      -2.269  11.872  23.252  0.00  0.00    +0.000 A 
ATOM     22  C   UNL     1      -2.593  13.033  22.557  0.00  0.00    +0.000 A 
ATOM     23  C   UNL     1      -1.949  13.330  21.356  0.00  0.00    +0.000 A 
ATOM     24  C   UNL     1      -0.966  12.471  20.822  0.00  0.00    +0.000 A 
BRANCH  24  25
ATOM     25  C   UNL     1      -0.390  12.823  19.470  0.00  0.00    +0.000 C 
ATOM     26  F   UNL     1      -0.648  11.964  18.453  0.00  0.00    +0.000 F 
ATOM     27  F   UNL     1      -0.898  14.019  19.034  0.00  0.00    +0.000 F 
ATOM     28  F   UNL     1       0.959  13.009  19.504  0.00  0.00    +0.000 F 
ENDBRANCH  24  25
ENDBRANCH   2  19
TORSDOF 5
ENDMDL
