MODEL 1
REMARK VINA RESULT:      -8.0      0.000      0.000
REMARK  Name = 
REMARK  5 active torsions:
REMARK  status: ('A' for Active; 'I' for Inactive)
REMARK    1  A    between atoms: C_2  and  C_20
REMARK    2  A    between atoms: N_3  and  C_4
REMARK    3  A    between atoms: C_8  and  C_9
REMARK    4  A    between atoms: N_11  and  C_12
REMARK    5  A    between atoms: C_17  and  O_18
REMARK                            x       y       z     vdW  Elec       q    Type
REMARK                         _______ _______ _______ _____ _____    ______ ____
ROOT
ATOM      1  C   UNL     1       3.304   5.658  18.647  0.00  0.00    +0.000 A 
ATOM      2  C   UNL     1       3.068   4.664  19.598  0.00  0.00    +0.000 A 
ATOM      3  C   UNL     1       2.251   4.910  20.706  0.00  0.00    +0.000 A 
ATOM      4  C   UNL     1       1.670   6.165  20.889  0.00  0.00    +0.000 A 
ATOM      5  C   UNL     1       1.932   7.178  19.965  0.00  0.00    +0.000 A 
ATOM      6  C   UNL     1       2.741   6.921  18.844  0.00  0.00    +0.000 A 
ENDROOT
BRANCH   1   9
ATOM      7  O   UNL     1       5.955   4.373  18.371  0.00  0.00    +0.000 OA
ATOM      8  C   UNL     1       5.332   4.863  17.435  0.00  0.00    +0.000 C 
ATOM      9  N   UNL     1       4.082   5.456  17.488  0.00  0.00    +0.000 N 
ATOM     10  H   UNL     1       3.616   5.633  16.604  0.00  0.00    +0.000 HD
BRANCH   8  11
ATOM     11  C   UNL     1       5.924   4.767  16.084  0.00  0.00    +0.000 A 
ATOM     12  C   UNL     1       5.354   4.006  15.063  0.00  0.00    +0.000 A 
ATOM     13  C   UNL     1       5.993   3.949  13.825  0.00  0.00    +0.000 A 
ATOM     14  C   UNL     1       7.172   4.660  13.658  0.00  0.00    +0.000 A 
ATOM     15  N   UNL     1       7.733   5.424  14.620  0.00  0.00    +0.000 NA
ATOM     16  C   UNL     1       7.089   5.471  15.812  0.00  0.00    +0.000 A 
ENDBRANCH   8  11
ENDBRANCH   1   9
BRANCH   5  17
ATOM     17  C   UNL     1       1.314   8.523  20.079  0.00  0.00    +0.000 C 
ATOM     18  O   UNL     1       1.116   9.139  19.038  0.00  0.00    +0.000 OA
ATOM     19  N   UNL     1       1.080   8.989  21.355  0.00  0.00    +0.000 N 
ATOM     20  H   UNL     1       1.451   8.485  22.153  0.00  0.00    +0.000 HD
BRANCH  19  21
ATOM     21  C   UNL     1       0.527  10.260  21.666  0.00  0.00    +0.000 A 
ATOM     22  C   UNL     1       0.931  11.455  21.085  0.00  0.00    +0.000 A 
ATOM     23  N   UNL     1       0.413  12.673  21.398  0.00  0.00    +0.000 NA
ATOM     24  C   UNL     1      -0.549  12.701  22.342  0.00  0.00    +0.000 A 
ATOM     25  C   UNL     1      -1.037  11.572  22.976  0.00  0.00    +0.000 A 
ATOM     26  C   UNL     1      -0.495  10.341  22.615  0.00  0.00    +0.000 A 
BRANCH  26  27
ATOM     27  O   UNL     1      -0.952   9.187  23.201  0.00  0.00    +0.000 OA
ATOM     28  H   UNL     1      -0.334   8.939  23.910  0.00  0.00    +0.000 HD
ENDBRANCH  26  27
ENDBRANCH  19  21
ENDBRANCH   5  17
TORSDOF 5
ENDMDL
MODEL 2
REMARK VINA RESULT:      -8.0      1.916      3.027
REMARK  Name = 
REMARK  5 active torsions:
REMARK  status: ('A' for Active; 'I' for Inactive)
REMARK    1  A    between atoms: C_2  and  C_20
REMARK    2  A    between atoms: N_3  and  C_4
REMARK    3  A    between atoms: C_8  and  C_9
REMARK    4  A    between atoms: N_11  and  C_12
REMARK    5  A    between atoms: C_17  and  O_18
REMARK                            x       y       z     vdW  Elec       q    Type
REMARK                         _______ _______ _______ _____ _____    ______ ____
ROOT
ATOM      1  C   UNL     1       3.893   3.581  17.395  0.00  0.00    +0.000 A 
ATOM      2  C   UNL     1       3.674   2.308  17.925  0.00  0.00    +0.000 A 
ATOM      3  C   UNL     1       2.917   2.137  19.088  0.00  0.00    +0.000 A 
ATOM      4  C   UNL     1       2.382   3.242  19.751  0.00  0.00    +0.000 A 
ATOM      5  C   UNL     1       2.629   4.521  19.251  0.00  0.00    +0.000 A 
ATOM      6  C   UNL     1       3.377   4.688  18.072  0.00  0.00    +0.000 A 
ENDROOT
BRANCH   1   9
ATOM      7  O   UNL     1       6.718   4.384  17.034  0.00  0.00    +0.000 OA
ATOM      8  C   UNL     1       5.933   4.212  16.107  0.00  0.00    +0.000 C 
ATOM      9  N   UNL     1       4.610   3.814  16.202  0.00  0.00    +0.000 N 
ATOM     10  H   UNL     1       4.152   3.523  15.344  0.00  0.00    +0.000 HD
BRANCH   8  11
ATOM     11  C   UNL     1       6.443   4.374  14.730  0.00  0.00    +0.000 A 
ATOM     12  C   UNL     1       5.930   3.659  13.646  0.00  0.00    +0.000 A 
ATOM     13  C   UNL     1       6.487   3.854  12.384  0.00  0.00    +0.000 A 
ATOM     14  C   UNL     1       7.530   4.759  12.255  0.00  0.00    +0.000 A 
ATOM     15  N   UNL     1       8.029   5.482  13.281  0.00  0.00    +0.000 NA
ATOM     16  C   UNL     1       7.466   5.283  14.497  0.00  0.00    +0.000 A 
ENDBRANCH   8  11
ENDBRANCH   1   9
BRANCH   5  17
ATOM     17  C   UNL     1       2.056   5.735  19.886  0.00  0.00    +0.000 C 
ATOM     18  O   UNL     1       1.411   5.578  20.915  0.00  0.00    +0.000 OA
ATOM     19  N   UNL     1       2.245   6.928  19.220  0.00  0.00    +0.000 N 
ATOM     20  H   UNL     1       2.629   6.927  18.282  0.00  0.00    +0.000 HD
BRANCH  19  21
ATOM     21  C   UNL     1       1.747   8.186  19.652  0.00  0.00    +0.000 A 
ATOM     22  C   UNL     1       1.374   8.476  20.958  0.00  0.00    +0.000 A 
ATOM     23  N   UNL     1       0.879   9.676  21.365  0.00  0.00    +0.000 NA
ATOM     24  C   UNL     1       0.744  10.629  20.422  0.00  0.00    +0.000 A 
ATOM     25  C   UNL     1       1.096  10.455  19.096  0.00  0.00    +0.000 A 
ATOM     26  C   UNL     1       1.616   9.219  18.721  0.00  0.00    +0.000 A 
BRANCH  26  27
ATOM     27  O   UNL     1       1.996   8.995  17.421  0.00  0.00    +0.000 OA
ATOM     28  H   UNL     1       2.044   8.034  17.278  0.00  0.00    +0.000 HD
ENDBRANCH  26  27
ENDBRANCH  19  21
ENDBRANCH   5  17
TORSDOF 5
ENDMDL
MODEL 3
REMARK VINA RESULT:      -7.9      1.855      2.127
REMARK  Name = 
REMARK  5 active torsions:
REMARK  status: ('A' for Active; 'I' for Inactive)
REMARK    1  A    between atoms: C_2  and  C_20
REMARK    2  A    between atoms: N_3  and  C_4
REMARK    3  A    between atoms: C_8  and  C_9
REMARK    4  A    between atoms: N_11  and  C_12
REMARK    5  A    between atoms: C_17  and  O_18
REMARK                            x       y       z     vdW  Elec       q    Type
REMARK                         _______ _______ _______ _____ _____    ______ ____
ROOT
ATOM      1  C   UNL     1       3.041   5.906  18.739  0.00  0.00    +0.000 A 
ATOM      2  C   UNL     1       2.656   4.941  19.671  0.00  0.00    +0.000 A 
ATOM      3  C   UNL     1       1.819   5.271  20.741  0.00  0.00    +0.000 A 
ATOM      4  C   UNL     1       1.367   6.581  20.905  0.00  0.00    +0.000 A 
ATOM      5  C   UNL     1       1.778   7.562  20.002  0.00  0.00    +0.000 A 
ATOM      6  C   UNL     1       2.607   7.222  18.918  0.00  0.00    +0.000 A 
ENDROOT
BRANCH   1   9
ATOM      7  O   UNL     1       5.899   5.152  18.625  0.00  0.00    +0.000 OA
ATOM      8  C   UNL     1       5.191   5.298  17.634  0.00  0.00    +0.000 C 
ATOM      9  N   UNL     1       3.846   5.625  17.615  0.00  0.00    +0.000 N 
ATOM     10  H   UNL     1       3.355   5.514  16.733  0.00  0.00    +0.000 HD
BRANCH   8  11
ATOM     11  C   UNL     1       5.794   5.040  16.310  0.00  0.00    +0.000 A 
ATOM     12  C   UNL     1       5.159   4.277  15.328  0.00  0.00    +0.000 A 
ATOM     13  C   UNL     1       5.811   4.061  14.115  0.00  0.00    +0.000 A 
ATOM     14  C   UNL     1       7.066   4.621  13.931  0.00  0.00    +0.000 A 
ATOM     15  N   UNL     1       7.692   5.384  14.853  0.00  0.00    +0.000 NA
ATOM     16  C   UNL     1       7.036   5.588  16.021  0.00  0.00    +0.000 A 
ENDBRANCH   8  11
ENDBRANCH   1   9
BRANCH   5  17
ATOM     17  C   UNL     1       1.303   8.965  20.097  0.00  0.00    +0.000 C 
ATOM     18  O   UNL     1       1.033   9.390  21.214  0.00  0.00    +0.000 OA
ATOM     19  N   UNL     1       1.142   9.645  18.909  0.00  0.00    +0.000 N 
ATOM     20  H   UNL     1       1.211   9.147  18.029  0.00  0.00    +0.000 HD
BRANCH  19  21
ATOM     21  C   UNL     1       0.669  10.979  18.795  0.00  0.00    +0.000 A 
ATOM     22  C   UNL     1       1.473  12.108  18.892  0.00  0.00    +0.000 A 
ATOM     23  N   UNL     1       1.014  13.385  18.800  0.00  0.00    +0.000 NA
ATOM     24  C   UNL     1      -0.310  13.544  18.611  0.00  0.00    +0.000 A 
ATOM     25  C   UNL     1      -1.201  12.492  18.486  0.00  0.00    +0.000 A 
ATOM     26  C   UNL     1      -0.691  11.199  18.566  0.00  0.00    +0.000 A 
BRANCH  26  27
ATOM     27  O   UNL     1      -1.527  10.118  18.434  0.00  0.00    +0.000 OA
ATOM     28  H   UNL     1      -1.945   9.949  19.296  0.00  0.00    +0.000 HD
ENDBRANCH  26  27
ENDBRANCH  19  21
ENDBRANCH   5  17
TORSDOF 5
ENDMDL
MODEL 4
REMARK VINA RESULT:      -7.8      4.899      7.097
REMARK  Name = 
REMARK  5 active torsions:
REMARK  status: ('A' for Active; 'I' for Inactive)
REMARK    1  A    between atoms: C_2  and  C_20
REMARK    2  A    between atoms: N_3  and  C_4
REMARK    3  A    between atoms: C_8  and  C_9
REMARK    4  A    between atoms: N_11  and  C_12
REMARK    5  A    between atoms: C_17  and  O_18
REMARK                            x       y       z     vdW  Elec       q    Type
REMARK                         _______ _______ _______ _____ _____    ______ ____
ROOT
ATOM      1  C   UNL     1       6.849   6.390  16.406  0.00  0.00    +0.000 A 
ATOM      2  C   UNL     1       7.308   5.778  15.239  0.00  0.00    +0.000 A 
ATOM      3  C   UNL     1       6.751   4.575  14.793  0.00  0.00    +0.000 A 
ATOM      4  C   UNL     1       5.734   3.956  15.521  0.00  0.00    +0.000 A 
ATOM      5  C   UNL     1       5.296   4.540  16.710  0.00  0.00    +0.000 A 
ATOM      6  C   UNL     1       5.848   5.757  17.146  0.00  0.00    +0.000 A 
ENDROOT
BRANCH   1   9
ATOM      7  O   UNL     1       8.383   6.969  18.869  0.00  0.00    +0.000 OA
ATOM      8  C   UNL     1       8.036   7.826  18.063  0.00  0.00    +0.000 C 
ATOM      9  N   UNL     1       7.340   7.624  16.882  0.00  0.00    +0.000 N 
ATOM     10  H   UNL     1       7.303   8.400  16.229  0.00  0.00    +0.000 HD
BRANCH   8  11
ATOM     11  C   UNL     1       8.447   9.223  18.318  0.00  0.00    +0.000 A 
ATOM     12  C   UNL     1       9.238   9.589  19.408  0.00  0.00    +0.000 A 
ATOM     13  C   UNL     1       9.558  10.934  19.588  0.00  0.00    +0.000 A 
ATOM     14  C   UNL     1       9.080  11.856  18.668  0.00  0.00    +0.000 A 
ATOM     15  N   UNL     1       8.335  11.526  17.591  0.00  0.00    +0.000 NA
ATOM     16  C   UNL     1       8.043  10.212  17.431  0.00  0.00    +0.000 A 
ENDBRANCH   8  11
ENDBRANCH   1   9
BRANCH   5  17
ATOM     17  C   UNL     1       4.191   3.954  17.511  0.00  0.00    +0.000 C 
ATOM     18  O   UNL     1       3.346   3.303  16.908  0.00  0.00    +0.000 OA
ATOM     19  N   UNL     1       4.178   4.252  18.857  0.00  0.00    +0.000 N 
ATOM     20  H   UNL     1       4.813   4.952  19.225  0.00  0.00    +0.000 HD
BRANCH  19  21
ATOM     21  C   UNL     1       3.189   3.812  19.777  0.00  0.00    +0.000 A 
ATOM     22  C   UNL     1       1.930   4.384  19.908  0.00  0.00    +0.000 A 
ATOM     23  N   UNL     1       0.991   3.973  20.802  0.00  0.00    +0.000 NA
ATOM     24  C   UNL     1       1.328   2.947  21.609  0.00  0.00    +0.000 A 
ATOM     25  C   UNL     1       2.547   2.295  21.556  0.00  0.00    +0.000 A 
ATOM     26  C   UNL     1       3.474   2.732  20.614  0.00  0.00    +0.000 A 
BRANCH  26  27
ATOM     27  O   UNL     1       4.695   2.112  20.507  0.00  0.00    +0.000 OA
ATOM     28  H   UNL     1       4.890   1.982  19.563  0.00  0.00    +0.000 HD
ENDBRANCH  26  27
ENDBRANCH  19  21
ENDBRANCH   5  17
TORSDOF 5
ENDMDL
MODEL 5
REMARK VINA RESULT:      -7.7      1.382      2.190
REMARK  Name = 
REMARK  5 active torsions:
REMARK  status: ('A' for Active; 'I' for Inactive)
REMARK    1  A    between atoms: C_2  and  C_20
REMARK    2  A    between atoms: N_3  and  C_4
REMARK    3  A    between atoms: C_8  and  C_9
REMARK    4  A    between atoms: N_11  and  C_12
REMARK    5  A    between atoms: C_17  and  O_18
REMARK                            x       y       z     vdW  Elec       q    Type
REMARK                         _______ _______ _______ _____ _____    ______ ____
ROOT
ATOM      1  C   UNL     1       2.973   5.344  18.742  0.00  0.00    +0.000 A 
ATOM      2  C   UNL     1       2.455   4.294  19.502  0.00  0.00    +0.000 A 
ATOM      3  C   UNL     1       1.622   4.544  20.597  0.00  0.00    +0.000 A 
ATOM      4  C   UNL     1       1.309   5.855  20.960  0.00  0.00    +0.000 A 
ATOM      5  C   UNL     1       1.854   6.912  20.231  0.00  0.00    +0.000 A 
ATOM      6  C   UNL     1       2.678   6.656  19.121  0.00  0.00    +0.000 A 
ENDROOT
BRANCH   1   9
ATOM      7  O   UNL     1       5.889   5.737  18.428  0.00  0.00    +0.000 OA
ATOM      8  C   UNL     1       5.146   5.380  17.520  0.00  0.00    +0.000 C 
ATOM      9  N   UNL     1       3.782   5.154  17.602  0.00  0.00    +0.000 N 
ATOM     10  H   UNL     1       3.345   4.672  16.822  0.00  0.00    +0.000 HD
BRANCH   8  11
ATOM     11  C   UNL     1       5.752   5.088  16.204  0.00  0.00    +0.000 A 
ATOM     12  C   UNL     1       5.098   4.348  15.219  0.00  0.00    +0.000 A 
ATOM     13  C   UNL     1       5.754   4.097  14.016  0.00  0.00    +0.000 A 
ATOM     14  C   UNL     1       7.035   4.601  13.843  0.00  0.00    +0.000 A 
ATOM     15  N   UNL     1       7.681   5.342  14.769  0.00  0.00    +0.000 NA
ATOM     16  C   UNL     1       7.021   5.580  15.928  0.00  0.00    +0.000 A 
ENDBRANCH   8  11
ENDBRANCH   1   9
BRANCH   5  17
ATOM     17  C   UNL     1       1.529   8.328  20.540  0.00  0.00    +0.000 C 
ATOM     18  O   UNL     1       1.491   8.649  21.722  0.00  0.00    +0.000 OA
ATOM     19  N   UNL     1       1.231   9.142  19.468  0.00  0.00    +0.000 N 
ATOM     20  H   UNL     1       1.105   8.737  18.547  0.00  0.00    +0.000 HD
BRANCH  19  21
ATOM     21  C   UNL     1       0.866  10.511  19.564  0.00  0.00    +0.000 A 
ATOM     22  C   UNL     1       0.063  11.040  20.566  0.00  0.00    +0.000 A 
ATOM     23  N   UNL     1      -0.300  12.349  20.647  0.00  0.00    +0.000 NA
ATOM     24  C   UNL     1       0.154  13.166  19.677  0.00  0.00    +0.000 A 
ATOM     25  C   UNL     1       0.972  12.751  18.640  0.00  0.00    +0.000 A 
ATOM     26  C   UNL     1       1.337  11.408  18.603  0.00  0.00    +0.000 A 
BRANCH  26  27
ATOM     27  O   UNL     1       2.158  10.943  17.606  0.00  0.00    +0.000 OA
ATOM     28  H   UNL     1       1.755  11.167  16.749  0.00  0.00    +0.000 HD
ENDBRANCH  26  27
ENDBRANCH  19  21
ENDBRANCH   5  17
TORSDOF 5
ENDMDL
MODEL 6
REMARK VINA RESULT:      -7.7      1.929      2.327
REMARK  Name = 
REMARK  5 active torsions:
REMARK  status: ('A' for Active; 'I' for Inactive)
REMARK    1  A    between atoms: C_2  and  C_20
REMARK    2  A    between atoms: N_3  and  C_4
REMARK    3  A    between atoms: C_8  and  C_9
REMARK    4  A    between atoms: N_11  and  C_12
REMARK    5  A    between atoms: C_17  and  O_18
REMARK                            x       y       z     vdW  Elec       q    Type
REMARK                         _______ _______ _______ _____ _____    ______ ____
ROOT
ATOM      1  C   UNL     1       3.992   6.272  17.487  0.00  0.00    +0.000 A 
ATOM      2  C   UNL     1       3.865   5.446  18.604  0.00  0.00    +0.000 A 
ATOM      3  C   UNL     1       3.039   5.806  19.674  0.00  0.00    +0.000 A 
ATOM      4  C   UNL     1       2.340   7.013  19.648  0.00  0.00    +0.000 A 
ATOM      5  C   UNL     1       2.490   7.865  18.554  0.00  0.00    +0.000 A 
ATOM      6  C   UNL     1       3.309   7.491  17.474  0.00  0.00    +0.000 A 
ENDROOT
BRANCH   1   9
ATOM      7  O   UNL     1       4.842   3.612  16.511  0.00  0.00    +0.000 OA
ATOM      8  C   UNL     1       5.154   4.669  15.973  0.00  0.00    +0.000 C 
ATOM      9  N   UNL     1       4.774   5.943  16.360  0.00  0.00    +0.000 N 
ATOM     10  H   UNL     1       4.946   6.697  15.703  0.00  0.00    +0.000 HD
BRANCH   8  11
ATOM     11  C   UNL     1       5.967   4.604  14.740  0.00  0.00    +0.000 A 
ATOM     12  C   UNL     1       5.612   3.816  13.644  0.00  0.00    +0.000 A 
ATOM     13  C   UNL     1       6.450   3.793  12.530  0.00  0.00    +0.000 A 
ATOM     14  C   UNL     1       7.603   4.563  12.555  0.00  0.00    +0.000 A 
ATOM     15  N   UNL     1       7.957   5.354  13.591  0.00  0.00    +0.000 NA
ATOM     16  C   UNL     1       7.123   5.367  14.659  0.00  0.00    +0.000 A 
ENDBRANCH   8  11
ENDBRANCH   1   9
BRANCH   5  17
ATOM     17  C   UNL     1       1.744   9.144  18.446  0.00  0.00    +0.000 C 
ATOM     18  O   UNL     1       2.090   9.922  17.565  0.00  0.00    +0.000 OA
ATOM     19  N   UNL     1       0.769   9.372  19.394  0.00  0.00    +0.000 N 
ATOM     20  H   UNL     1       0.687   8.753  20.193  0.00  0.00    +0.000 HD
BRANCH  19  21
ATOM     21  C   UNL     1      -0.026  10.546  19.475  0.00  0.00    +0.000 A 
ATOM     22  C   UNL     1       0.022  11.456  20.523  0.00  0.00    +0.000 A 
ATOM     23  N   UNL     1      -0.753  12.570  20.608  0.00  0.00    +0.000 NA
ATOM     24  C   UNL     1      -1.624  12.783  19.601  0.00  0.00    +0.000 A 
ATOM     25  C   UNL     1      -1.746  11.952  18.501  0.00  0.00    +0.000 A 
ATOM     26  C   UNL     1      -0.922  10.832  18.442  0.00  0.00    +0.000 A 
BRANCH  26  27
ATOM     27  O   UNL     1      -0.990   9.980  17.367  0.00  0.00    +0.000 OA
ATOM     28  H   UNL     1      -0.298   9.303  17.470  0.00  0.00    +0.000 HD
ENDBRANCH  26  27
ENDBRANCH  19  21
ENDBRANCH   5  17
TORSDOF 5
ENDMDL
MODEL 7
REMARK VINA RESULT:      -7.7      1.173      1.210
REMARK  Name = 
REMARK  5 active torsions:
REMARK  status: ('A' for Active; 'I' for Inactive)
REMARK    1  A    between atoms: C_2  and  C_20
REMARK    2  A    between atoms: N_3  and  C_4
REMARK    3  A    between atoms: C_8  and  C_9
REMARK    4  A    between atoms: N_11  and  C_12
REMARK    5  A    between atoms: C_17  and  O_18
REMARK                            x       y       z     vdW  Elec       q    Type
REMARK                         _______ _______ _______ _____ _____    ______ ____
ROOT
ATOM      1  C   UNL     1       2.937   6.198  18.733  0.00  0.00    +0.000 A 
ATOM      2  C   UNL     1       2.596   5.289  19.736  0.00  0.00    +0.000 A 
ATOM      3  C   UNL     1       1.741   5.659  20.779  0.00  0.00    +0.000 A 
ATOM      4  C   UNL     1       1.227   6.954  20.844  0.00  0.00    +0.000 A 
ATOM      5  C   UNL     1       1.593   7.882  19.868  0.00  0.00    +0.000 A 
ATOM      6  C   UNL     1       2.440   7.502  18.812  0.00  0.00    +0.000 A 
ENDROOT
BRANCH   1   9
ATOM      7  O   UNL     1       5.768   5.339  18.700  0.00  0.00    +0.000 OA
ATOM      8  C   UNL     1       5.090   5.497  17.690  0.00  0.00    +0.000 C 
ATOM      9  N   UNL     1       3.758   5.872  17.633  0.00  0.00    +0.000 N 
ATOM     10  H   UNL     1       3.285   5.766  16.741  0.00  0.00    +0.000 HD
BRANCH   8  11
ATOM     11  C   UNL     1       5.714   5.198  16.384  0.00  0.00    +0.000 A 
ATOM     12  C   UNL     1       5.068   4.462  15.390  0.00  0.00    +0.000 A 
ATOM     13  C   UNL     1       5.740   4.203  14.197  0.00  0.00    +0.000 A 
ATOM     14  C   UNL     1       7.028   4.695  14.044  0.00  0.00    +0.000 A 
ATOM     15  N   UNL     1       7.667   5.431  14.979  0.00  0.00    +0.000 NA
ATOM     16  C   UNL     1       6.991   5.678  16.127  0.00  0.00    +0.000 A 
ENDBRANCH   8  11
ENDBRANCH   1   9
BRANCH   5  17
ATOM     17  C   UNL     1       1.050   9.264  19.856  0.00  0.00    +0.000 C 
ATOM     18  O   UNL     1       1.637  10.091  19.169  0.00  0.00    +0.000 OA
ATOM     19  N   UNL     1      -0.030   9.511  20.677  0.00  0.00    +0.000 N 
ATOM     20  H   UNL     1      -0.325   8.809  21.347  0.00  0.00    +0.000 HD
BRANCH  19  21
ATOM     21  C   UNL     1      -0.666  10.772  20.825  0.00  0.00    +0.000 A 
ATOM     22  C   UNL     1      -1.275  11.470  19.791  0.00  0.00    +0.000 A 
ATOM     23  N   UNL     1      -1.867  12.687  19.931  0.00  0.00    +0.000 NA
ATOM     24  C   UNL     1      -1.843  13.236  21.162  0.00  0.00    +0.000 A 
ATOM     25  C   UNL     1      -1.276  12.625  22.266  0.00  0.00    +0.000 A 
ATOM     26  C   UNL     1      -0.697  11.371  22.086  0.00  0.00    +0.000 A 
BRANCH  26  27
ATOM     27  O   UNL     1      -0.134  10.712  23.150  0.00  0.00    +0.000 OA
ATOM     28  H   UNL     1      -0.841  10.485  23.779  0.00  0.00    +0.000 HD
ENDBRANCH  26  27
ENDBRANCH  19  21
ENDBRANCH   5  17
TORSDOF 5
ENDMDL
MODEL 8
REMARK VINA RESULT:      -7.7      3.263      9.676
REMARK  Name = 
REMARK  5 active torsions:
REMARK  status: ('A' for Active; 'I' for Inactive)
REMARK    1  A    between atoms: C_2  and  C_20
REMARK    2  A    between atoms: N_3  and  C_4
REMARK    3  A    between atoms: C_8  and  C_9
REMARK    4  A    between atoms: N_11  and  C_12
REMARK    5  A    between atoms: C_17  and  O_18
REMARK                            x       y       z     vdW  Elec       q    Type
REMARK                         _______ _______ _______ _____ _____    ______ ____
ROOT
ATOM      1  C   UNL     1       0.686  10.184  19.880  0.00  0.00    +0.000 A 
ATOM      2  C   UNL     1       1.182  10.770  18.715  0.00  0.00    +0.000 A 
ATOM      3  C   UNL     1       1.976  10.040  17.825  0.00  0.00    +0.000 A 
ATOM      4  C   UNL     1       2.302   8.711  18.099  0.00  0.00    +0.000 A 
ATOM      5  C   UNL     1       1.844   8.127  19.281  0.00  0.00    +0.000 A 
ATOM      6  C   UNL     1       1.032   8.860  20.164  0.00  0.00    +0.000 A 
ENDROOT
BRANCH   1   9
ATOM      7  O   UNL     1       1.202  12.642  21.443  0.00  0.00    +0.000 OA
ATOM      8  C   UNL     1       0.162  11.996  21.510  0.00  0.00    +0.000 C 
ATOM      9  N   UNL     1      -0.156  10.854  20.792  0.00  0.00    +0.000 N 
ATOM     10  H   UNL     1      -1.124  10.552  20.809  0.00  0.00    +0.000 HD
BRANCH   8  11
ATOM     11  C   UNL     1      -0.911  12.502  22.391  0.00  0.00    +0.000 A 
ATOM     12  C   UNL     1      -2.031  11.741  22.729  0.00  0.00    +0.000 A 
ATOM     13  C   UNL     1      -3.009  12.306  23.546  0.00  0.00    +0.000 A 
ATOM     14  C   UNL     1      -2.825  13.605  23.996  0.00  0.00    +0.000 A 
ATOM     15  N   UNL     1      -1.740  14.354  23.705  0.00  0.00    +0.000 NA
ATOM     16  C   UNL     1      -0.798  13.781  22.917  0.00  0.00    +0.000 A 
ENDBRANCH   8  11
ENDBRANCH   1   9
BRANCH   5  17
ATOM     17  C   UNL     1       2.121   6.706  19.613  0.00  0.00    +0.000 C 
ATOM     18  O   UNL     1       1.821   6.325  20.738  0.00  0.00    +0.000 OA
ATOM     19  N   UNL     1       2.756   5.958  18.644  0.00  0.00    +0.000 N 
ATOM     20  H   UNL     1       3.132   6.414  17.820  0.00  0.00    +0.000 HD
BRANCH  19  21
ATOM     21  C   UNL     1       3.132   4.596  18.788  0.00  0.00    +0.000 A 
ATOM     22  C   UNL     1       4.234   4.158  19.511  0.00  0.00    +0.000 A 
ATOM     23  N   UNL     1       4.603   2.854  19.632  0.00  0.00    +0.000 NA
ATOM     24  C   UNL     1       3.840   1.945  18.993  0.00  0.00    +0.000 A 
ATOM     25  C   UNL     1       2.714   2.267  18.256  0.00  0.00    +0.000 A 
ATOM     26  C   UNL     1       2.357   3.610  18.172  0.00  0.00    +0.000 A 
BRANCH  26  27
ATOM     27  O   UNL     1       1.241   3.986  17.467  0.00  0.00    +0.000 OA
ATOM     28  H   UNL     1       0.592   3.262  17.515  0.00  0.00    +0.000 HD
ENDBRANCH  26  27
ENDBRANCH  19  21
ENDBRANCH   5  17
TORSDOF 5
ENDMDL
MODEL 9
REMARK VINA RESULT:      -7.7      1.792      2.020
REMARK  Name = 
REMARK  5 active torsions:
REMARK  status: ('A' for Active; 'I' for Inactive)
REMARK    1  A    between atoms: C_2  and  C_20
REMARK    2  A    between atoms: N_3  and  C_4
REMARK    3  A    between atoms: C_8  and  C_9
REMARK    4  A    between atoms: N_11  and  C_12
REMARK    5  A    between atoms: C_17  and  O_18
REMARK                            x       y       z     vdW  Elec       q    Type
REMARK                         _______ _______ _______ _____ _____    ______ ____
ROOT
ATOM      1  C   UNL     1       3.979   6.279  17.505  0.00  0.00    +0.000 A 
ATOM      2  C   UNL     1       3.844   5.451  18.620  0.00  0.00    +0.000 A 
ATOM      3  C   UNL     1       3.002   5.805  19.679  0.00  0.00    +0.000 A 
ATOM      4  C   UNL     1       2.294   7.007  19.645  0.00  0.00    +0.000 A 
ATOM      5  C   UNL     1       2.452   7.861  18.552  0.00  0.00    +0.000 A 
ATOM      6  C   UNL     1       3.287   7.493  17.483  0.00  0.00    +0.000 A 
ENDROOT
BRANCH   1   9
ATOM      7  O   UNL     1       4.666   3.621  16.401  0.00  0.00    +0.000 OA
ATOM      8  C   UNL     1       5.076   4.680  15.938  0.00  0.00    +0.000 C 
ATOM      9  N   UNL     1       4.777   5.955  16.387  0.00  0.00    +0.000 N 
ATOM     10  H   UNL     1       5.030   6.730  15.783  0.00  0.00    +0.000 HD
BRANCH   8  11
ATOM     11  C   UNL     1       5.929   4.623  14.732  0.00  0.00    +0.000 A 
ATOM     12  C   UNL     1       5.615   3.838  13.622  0.00  0.00    +0.000 A 
ATOM     13  C   UNL     1       6.488   3.823  12.537  0.00  0.00    +0.000 A 
ATOM     14  C   UNL     1       7.637   4.598  12.602  0.00  0.00    +0.000 A 
ATOM     15  N   UNL     1       7.953   5.387  13.652  0.00  0.00    +0.000 NA
ATOM     16  C   UNL     1       7.084   5.392  14.693  0.00  0.00    +0.000 A 
ENDBRANCH   8  11
ENDBRANCH   1   9
BRANCH   5  17
ATOM     17  C   UNL     1       1.698   9.134  18.436  0.00  0.00    +0.000 C 
ATOM     18  O   UNL     1       1.944   9.845  17.468  0.00  0.00    +0.000 OA
ATOM     19  N   UNL     1       0.833   9.437  19.466  0.00  0.00    +0.000 N 
ATOM     20  H   UNL     1       0.840   8.878  20.311  0.00  0.00    +0.000 HD
BRANCH  19  21
ATOM     21  C   UNL     1       0.052  10.620  19.548  0.00  0.00    +0.000 A 
ATOM     22  C   UNL     1      -0.897  11.001  18.608  0.00  0.00    +0.000 A 
ATOM     23  N   UNL     1      -1.632  12.144  18.679  0.00  0.00    +0.000 NA
ATOM     24  C   UNL     1      -1.403  12.948  19.736  0.00  0.00    +0.000 A 
ATOM     25  C   UNL     1      -0.493  12.662  20.738  0.00  0.00    +0.000 A 
ATOM     26  C   UNL     1       0.226  11.474  20.640  0.00  0.00    +0.000 A 
BRANCH  26  27
ATOM     27  O   UNL     1       1.131  11.132  21.614  0.00  0.00    +0.000 OA
ATOM     28  H   UNL     1       1.156  11.847  22.273  0.00  0.00    +0.000 HD
ENDBRANCH  26  27
ENDBRANCH  19  21
ENDBRANCH   5  17
TORSDOF 5
ENDMDL
