MODEL 1
REMARK VINA RESULT:      -8.4      0.000      0.000
REMARK  Name = 
REMARK  7 active torsions:
REMARK  status: ('A' for Active; 'I' for Inactive)
REMARK    1  A    between atoms: C_1  and  N_2
REMARK    2  A    between atoms: C_6  and  C_7
REMARK    3  A    between atoms: C_7  and  C_8
REMARK    4  A    between atoms: C_12  and  N_13
REMARK    5  A    between atoms: C_18  and  C_19
REMARK    6  A    between atoms: C_22  and  C_23
REMARK    7  A    between atoms: C_23  and  C_24
REMARK                            x       y       z     vdW  Elec       q    Type
REMARK                         _______ _______ _______ _____ _____    ______ ____
ROOT
ATOM      1  N   UNL     1       3.856   4.713  19.241  0.00  0.00    +0.000 N 
ATOM      2  C   UNL     1       5.237   5.245  19.323  0.00  0.00    +0.000 C 
ATOM      3  C   UNL     1       5.735   5.017  17.920  0.00  0.00    +0.000 A 
ATOM      4  C   UNL     1       5.047   3.911  17.412  0.00  0.00    +0.000 A 
ATOM      5  C   UNL     1       5.156   3.481  16.102  0.00  0.00    +0.000 A 
ATOM      6  C   UNL     1       5.990   4.223  15.269  0.00  0.00    +0.000 A 
ATOM      7  C   UNL     1       6.670   5.364  15.751  0.00  0.00    +0.000 A 
ATOM      8  C   UNL     1       6.546   5.789  17.092  0.00  0.00    +0.000 A 
ATOM      9  C   UNL     1       3.926   3.614  18.346  0.00  0.00    +0.000 C 
ATOM     10  O   UNL     1       3.143   2.703  18.176  0.00  0.00    +0.000 OA
ENDROOT
BRANCH   1  15
ATOM     11  C   UNL     1       1.822   7.689  19.878  0.00  0.00    +0.000 A 
ATOM     12  C   UNL     1       2.367   8.500  18.870  0.00  0.00    +0.000 A 
ATOM     13  C   UNL     1       3.017   7.930  17.778  0.00  0.00    +0.000 A 
ATOM     14  C   UNL     1       3.230   6.561  17.732  0.00  0.00    +0.000 A 
ATOM     15  C   UNL     1       2.933   5.782  18.859  0.00  0.00    +0.000 A 
ATOM     16  C   UNL     1       2.087   6.311  19.845  0.00  0.00    +0.000 A 
BRANCH  11  17
ATOM     17  C   UNL     1       0.941   8.311  20.934  0.00  0.00    +0.000 C 
BRANCH  17  23
ATOM     18  C   UNL     1      -0.942  10.060  19.115  0.00  0.00    +0.000 C 
ATOM     19  N   UNL     1      -0.023  10.531  20.115  0.00  0.00    +0.000 N 
ATOM     20  C   UNL     1       0.133  11.830  20.492  0.00  0.00    +0.000 A 
ATOM     21  N   UNL     1       1.043  11.910  21.432  0.00  0.00    +0.000 NA
ATOM     22  N   UNL     1       1.480  10.635  21.694  0.00  0.00    +0.000 NA
ATOM     23  C   UNL     1       0.830   9.800  20.903  0.00  0.00    +0.000 A 
ENDBRANCH  17  23
ENDBRANCH  11  17
ENDBRANCH   1  15
BRANCH   8  24
ATOM     24  C   UNL     1       7.216   7.064  17.543  0.00  0.00    +0.000 C 
ATOM     25  C   UNL     1       8.051   6.823  18.787  0.00  0.00    +0.000 C 
ATOM     26  F   UNL     1       8.038   7.584  16.582  0.00  0.00    +0.000 F 
ATOM     27  F   UNL     1       6.338   8.068  17.821  0.00  0.00    +0.000 F 
ENDBRANCH   8  24
BRANCH   6  28
ATOM     28  C   UNL     1       6.094   3.858  13.840  0.00  0.00    +0.000 C 
ATOM     29  O   UNL     1       6.873   4.436  13.084  0.00  0.00    +0.000 OA
ENDBRANCH   6  28
TORSDOF 5
ENDMDL
MODEL 2
REMARK VINA RESULT:      -8.3      5.523      8.944
REMARK  Name = 
REMARK  7 active torsions:
REMARK  status: ('A' for Active; 'I' for Inactive)
REMARK    1  A    between atoms: C_1  and  N_2
REMARK    2  A    between atoms: C_6  and  C_7
REMARK    3  A    between atoms: C_7  and  C_8
REMARK    4  A    between atoms: C_12  and  N_13
REMARK    5  A    between atoms: C_18  and  C_19
REMARK    6  A    between atoms: C_22  and  C_23
REMARK    7  A    between atoms: C_23  and  C_24
REMARK                            x       y       z     vdW  Elec       q    Type
REMARK                         _______ _______ _______ _____ _____    ______ ____
ROOT
ATOM      1  N   UNL     1      -1.745  12.612  18.653  0.00  0.00    +0.000 N 
ATOM      2  C   UNL     1      -0.359  12.196  18.333  0.00  0.00    +0.000 C 
ATOM      3  C   UNL     1      -0.014  11.344  19.525  0.00  0.00    +0.000 A 
ATOM      4  C   UNL     1      -0.760  11.823  20.607  0.00  0.00    +0.000 A 
ATOM      5  C   UNL     1      -0.794  11.206  21.843  0.00  0.00    +0.000 A 
ATOM      6  C   UNL     1      -0.047  10.039  21.978  0.00  0.00    +0.000 A 
ATOM      7  C   UNL     1       0.689   9.516  20.891  0.00  0.00    +0.000 A 
ATOM      8  C   UNL     1       0.711  10.159  19.634  0.00  0.00    +0.000 A 
ATOM      9  C   UNL     1      -1.779  12.764  20.063  0.00  0.00    +0.000 C 
ATOM     10  O   UNL     1      -2.583  13.348  20.760  0.00  0.00    +0.000 OA
ENDROOT
BRANCH   1  15
ATOM     11  C   UNL     1      -5.089  11.445  17.730  0.00  0.00    +0.000 A 
ATOM     12  C   UNL     1      -4.823  11.185  16.376  0.00  0.00    +0.000 A 
ATOM     13  C   UNL     1      -3.517  10.971  15.941  0.00  0.00    +0.000 A 
ATOM     14  C   UNL     1      -2.457  11.123  16.820  0.00  0.00    +0.000 A 
ATOM     15  C   UNL     1      -2.695  11.648  18.098  0.00  0.00    +0.000 A 
ATOM     16  C   UNL     1      -4.006  11.645  18.599  0.00  0.00    +0.000 A 
BRANCH  11  17
ATOM     17  C   UNL     1      -6.519  11.460  18.214  0.00  0.00    +0.000 C 
BRANCH  17  23
ATOM     18  C   UNL     1      -6.696  14.270  19.622  0.00  0.00    +0.000 C 
ATOM     19  N   UNL     1      -6.818  12.981  20.245  0.00  0.00    +0.000 N 
ATOM     20  C   UNL     1      -7.105  12.765  21.559  0.00  0.00    +0.000 A 
ATOM     21  N   UNL     1      -7.153  11.476  21.793  0.00  0.00    +0.000 NA
ATOM     22  N   UNL     1      -6.913  10.831  20.605  0.00  0.00    +0.000 NA
ATOM     23  C   UNL     1      -6.718  11.740  19.667  0.00  0.00    +0.000 A 
ENDBRANCH  17  23
ENDBRANCH  11  17
ENDBRANCH   1  15
BRANCH   8  24
ATOM     24  C   UNL     1       1.435   9.521  18.473  0.00  0.00    +0.000 C 
ATOM     25  C   UNL     1       2.103   8.228  18.901  0.00  0.00    +0.000 C 
ATOM     26  F   UNL     1       0.593   9.233  17.434  0.00  0.00    +0.000 F 
ATOM     27  F   UNL     1       2.391  10.322  17.927  0.00  0.00    +0.000 F 
ENDBRANCH   8  24
BRANCH   6  28
ATOM     28  C   UNL     1      -0.097   9.292  23.254  0.00  0.00    +0.000 C 
ATOM     29  O   UNL     1       0.665   9.555  24.183  0.00  0.00    +0.000 OA
ENDBRANCH   6  28
TORSDOF 5
ENDMDL
MODEL 3
REMARK VINA RESULT:      -8.2      1.350      1.708
REMARK  Name = 
REMARK  7 active torsions:
REMARK  status: ('A' for Active; 'I' for Inactive)
REMARK    1  A    between atoms: C_1  and  N_2
REMARK    2  A    between atoms: C_6  and  C_7
REMARK    3  A    between atoms: C_7  and  C_8
REMARK    4  A    between atoms: C_12  and  N_13
REMARK    5  A    between atoms: C_18  and  C_19
REMARK    6  A    between atoms: C_22  and  C_23
REMARK    7  A    between atoms: C_23  and  C_24
REMARK                            x       y       z     vdW  Elec       q    Type
REMARK                         _______ _______ _______ _____ _____    ______ ____
ROOT
ATOM      1  N   UNL     1       3.090   3.875  18.837  0.00  0.00    +0.000 N 
ATOM      2  C   UNL     1       4.482   4.009  19.328  0.00  0.00    +0.000 C 
ATOM      3  C   UNL     1       5.257   4.059  18.038  0.00  0.00    +0.000 A 
ATOM      4  C   UNL     1       4.526   3.339  17.088  0.00  0.00    +0.000 A 
ATOM      5  C   UNL     1       4.871   3.273  15.750  0.00  0.00    +0.000 A 
ATOM      6  C   UNL     1       6.001   3.986  15.362  0.00  0.00    +0.000 A 
ATOM      7  C   UNL     1       6.737   4.749  16.297  0.00  0.00    +0.000 A 
ATOM      8  C   UNL     1       6.369   4.806  17.659  0.00  0.00    +0.000 A 
ATOM      9  C   UNL     1       3.177   3.082  17.663  0.00  0.00    +0.000 C 
ATOM     10  O   UNL     1       2.308   2.474  17.075  0.00  0.00    +0.000 OA
ENDROOT
BRANCH   1  15
ATOM     11  C   UNL     1       2.041   7.189  19.983  0.00  0.00    +0.000 A 
ATOM     12  C   UNL     1       2.739   7.942  19.025  0.00  0.00    +0.000 A 
ATOM     13  C   UNL     1       3.134   7.362  17.822  0.00  0.00    +0.000 A 
ATOM     14  C   UNL     1       2.940   6.007  17.605  0.00  0.00    +0.000 A 
ATOM     15  C   UNL     1       2.495   5.200  18.662  0.00  0.00    +0.000 A 
ATOM     16  C   UNL     1       1.894   5.809  19.774  0.00  0.00    +0.000 A 
BRANCH  11  17
ATOM     17  C   UNL     1       1.438   7.888  21.178  0.00  0.00    +0.000 C 
BRANCH  17  23
ATOM     18  C   UNL     1      -0.169   9.658  23.227  0.00  0.00    +0.000 C 
ATOM     19  N   UNL     1      -0.077   9.848  21.806  0.00  0.00    +0.000 N 
ATOM     20  C   UNL     1      -0.624  10.884  21.112  0.00  0.00    +0.000 A 
ATOM     21  N   UNL     1      -0.343  10.759  19.838  0.00  0.00    +0.000 NA
ATOM     22  N   UNL     1       0.421   9.628  19.692  0.00  0.00    +0.000 NA
ATOM     23  C   UNL     1       0.589   9.081  20.882  0.00  0.00    +0.000 A 
ENDBRANCH  17  23
ENDBRANCH  11  17
ENDBRANCH   1  15
BRANCH   8  24
ATOM     24  C   UNL     1       7.128   5.704  18.606  0.00  0.00    +0.000 C 
ATOM     25  C   UNL     1       7.477   7.020  17.938  0.00  0.00    +0.000 C 
ATOM     26  F   UNL     1       6.411   5.985  19.737  0.00  0.00    +0.000 F 
ATOM     27  F   UNL     1       8.285   5.150  19.065  0.00  0.00    +0.000 F 
ENDBRANCH   8  24
BRANCH   6  28
ATOM     28  C   UNL     1       6.383   4.013  13.933  0.00  0.00    +0.000 C 
ATOM     29  O   UNL     1       5.581   3.719  13.048  0.00  0.00    +0.000 OA
ENDBRANCH   6  28
TORSDOF 5
ENDMDL
MODEL 4
REMARK VINA RESULT:      -8.2      0.826      1.146
REMARK  Name = 
REMARK  7 active torsions:
REMARK  status: ('A' for Active; 'I' for Inactive)
REMARK    1  A    between atoms: C_1  and  N_2
REMARK    2  A    between atoms: C_6  and  C_7
REMARK    3  A    between atoms: C_7  and  C_8
REMARK    4  A    between atoms: C_12  and  N_13
REMARK    5  A    between atoms: C_18  and  C_19
REMARK    6  A    between atoms: C_22  and  C_23
REMARK    7  A    between atoms: C_23  and  C_24
REMARK                            x       y       z     vdW  Elec       q    Type
REMARK                         _______ _______ _______ _____ _____    ______ ____
ROOT
ATOM      1  N   UNL     1       3.921   4.404  19.007  0.00  0.00    +0.000 N 
ATOM      2  C   UNL     1       5.289   4.945  19.184  0.00  0.00    +0.000 C 
ATOM      3  C   UNL     1       5.823   4.890  17.777  0.00  0.00    +0.000 A 
ATOM      4  C   UNL     1       5.168   3.840  17.126  0.00  0.00    +0.000 A 
ATOM      5  C   UNL     1       5.314   3.568  15.779  0.00  0.00    +0.000 A 
ATOM      6  C   UNL     1       6.152   4.415  15.059  0.00  0.00    +0.000 A 
ATOM      7  C   UNL     1       6.799   5.504  15.687  0.00  0.00    +0.000 A 
ATOM      8  C   UNL     1       6.637   5.767  17.064  0.00  0.00    +0.000 A 
ATOM      9  C   UNL     1       4.031   3.419  17.992  0.00  0.00    +0.000 C 
ATOM     10  O   UNL     1       3.269   2.521  17.699  0.00  0.00    +0.000 OA
ENDROOT
BRANCH   1  15
ATOM     11  C   UNL     1       2.075   7.450  19.850  0.00  0.00    +0.000 A 
ATOM     12  C   UNL     1       2.505   8.229  18.764  0.00  0.00    +0.000 A 
ATOM     13  C   UNL     1       2.989   7.623  17.607  0.00  0.00    +0.000 A 
ATOM     14  C   UNL     1       3.155   6.248  17.559  0.00  0.00    +0.000 A 
ATOM     15  C   UNL     1       2.986   5.496  18.730  0.00  0.00    +0.000 A 
ATOM     16  C   UNL     1       2.293   6.065  19.808  0.00  0.00    +0.000 A 
BRANCH  11  17
ATOM     17  C   UNL     1       1.359   8.115  21.000  0.00  0.00    +0.000 C 
BRANCH  17  23
ATOM     18  C   UNL     1      -0.351   9.894  22.956  0.00  0.00    +0.000 C 
ATOM     19  N   UNL     1      -0.212  10.059  21.535  0.00  0.00    +0.000 N 
ATOM     20  C   UNL     1      -0.753  11.071  20.802  0.00  0.00    +0.000 A 
ATOM     21  N   UNL     1      -0.425  10.926  19.542  0.00  0.00    +0.000 NA
ATOM     22  N   UNL     1       0.365   9.807  19.445  0.00  0.00    +0.000 NA
ATOM     23  C   UNL     1       0.500   9.287  20.651  0.00  0.00    +0.000 A 
ENDBRANCH  17  23
ENDBRANCH  11  17
ENDBRANCH   1  15
BRANCH   8  24
ATOM     24  C   UNL     1       7.273   6.991  17.677  0.00  0.00    +0.000 C 
ATOM     25  C   UNL     1       8.082   6.621  18.906  0.00  0.00    +0.000 C 
ATOM     26  F   UNL     1       8.109   7.631  16.804  0.00  0.00    +0.000 F 
ATOM     27  F   UNL     1       6.370   7.942  18.045  0.00  0.00    +0.000 F 
ENDBRANCH   8  24
BRANCH   6  28
ATOM     28  C   UNL     1       6.295   4.221  13.599  0.00  0.00    +0.000 C 
ATOM     29  O   UNL     1       5.708   3.315  13.011  0.00  0.00    +0.000 OA
ENDBRANCH   6  28
TORSDOF 5
ENDMDL
MODEL 5
REMARK VINA RESULT:      -8.1      7.007      9.652
REMARK  Name = 
REMARK  7 active torsions:
REMARK  status: ('A' for Active; 'I' for Inactive)
REMARK    1  A    between atoms: C_1  and  N_2
REMARK    2  A    between atoms: C_6  and  C_7
REMARK    3  A    between atoms: C_7  and  C_8
REMARK    4  A    between atoms: C_12  and  N_13
REMARK    5  A    between atoms: C_18  and  C_19
REMARK    6  A    between atoms: C_22  and  C_23
REMARK    7  A    between atoms: C_23  and  C_24
REMARK                            x       y       z     vdW  Elec       q    Type
REMARK                         _______ _______ _______ _____ _____    ______ ____
ROOT
ATOM      1  N   UNL     1      -0.320  11.502  18.406  0.00  0.00    +0.000 N 
ATOM      2  C   UNL     1       0.432  10.720  19.415  0.00  0.00    +0.000 C 
ATOM      3  C   UNL     1      -0.054  11.333  20.701  0.00  0.00    +0.000 A 
ATOM      4  C   UNL     1      -0.401  12.659  20.422  0.00  0.00    +0.000 A 
ATOM      5  C   UNL     1      -1.005  13.498  21.340  0.00  0.00    +0.000 A 
ATOM      6  C   UNL     1      -1.284  12.957  22.592  0.00  0.00    +0.000 A 
ATOM      7  C   UNL     1      -0.974  11.610  22.887  0.00  0.00    +0.000 A 
ATOM      8  C   UNL     1      -0.358  10.766  21.936  0.00  0.00    +0.000 A 
ATOM      9  C   UNL     1      -0.420  12.813  18.941  0.00  0.00    +0.000 C 
ATOM     10  O   UNL     1      -0.687  13.858  18.385  0.00  0.00    +0.000 OA
ENDROOT
BRANCH   1  15
ATOM     11  C   UNL     1      -3.879  11.445  17.553  0.00  0.00    +0.000 A 
ATOM     12  C   UNL     1      -3.779  10.631  16.414  0.00  0.00    +0.000 A 
ATOM     13  C   UNL     1      -2.679   9.795  16.236  0.00  0.00    +0.000 A 
ATOM     14  C   UNL     1      -1.620   9.840  17.128  0.00  0.00    +0.000 A 
ATOM     15  C   UNL     1      -1.591  10.842  18.109  0.00  0.00    +0.000 A 
ATOM     16  C   UNL     1      -2.779  11.519  18.422  0.00  0.00    +0.000 A 
BRANCH  11  17
ATOM     17  C   UNL     1      -5.170  12.177  17.829  0.00  0.00    +0.000 C 
BRANCH  17  23
ATOM     18  C   UNL     1      -5.154  13.192  20.810  0.00  0.00    +0.000 C 
ATOM     19  N   UNL     1      -5.973  12.149  20.255  0.00  0.00    +0.000 N 
ATOM     20  C   UNL     1      -6.941  11.466  20.926  0.00  0.00    +0.000 A 
ATOM     21  N   UNL     1      -7.502  10.594  20.125  0.00  0.00    +0.000 NA
ATOM     22  N   UNL     1      -6.904  10.719  18.895  0.00  0.00    +0.000 NA
ATOM     23  C   UNL     1      -5.985  11.664  18.971  0.00  0.00    +0.000 A 
ENDBRANCH  17  23
ENDBRANCH  11  17
ENDBRANCH   1  15
BRANCH   8  24
ATOM     24  C   UNL     1      -0.126   9.310  22.260  0.00  0.00    +0.000 C 
ATOM     25  C   UNL     1       1.350   8.970  22.185  0.00  0.00    +0.000 C 
ATOM     26  F   UNL     1      -0.568   8.983  23.513  0.00  0.00    +0.000 F 
ATOM     27  F   UNL     1      -0.792   8.460  21.430  0.00  0.00    +0.000 F 
ENDBRANCH   8  24
BRANCH   6  28
ATOM     28  C   UNL     1      -1.993  13.782  23.594  0.00  0.00    +0.000 C 
ATOM     29  O   UNL     1      -3.174  13.581  23.871  0.00  0.00    +0.000 OA
ENDBRANCH   6  28
TORSDOF 5
ENDMDL
MODEL 6
REMARK VINA RESULT:      -8.0      0.719      1.227
REMARK  Name = 
REMARK  7 active torsions:
REMARK  status: ('A' for Active; 'I' for Inactive)
REMARK    1  A    between atoms: C_1  and  N_2
REMARK    2  A    between atoms: C_6  and  C_7
REMARK    3  A    between atoms: C_7  and  C_8
REMARK    4  A    between atoms: C_12  and  N_13
REMARK    5  A    between atoms: C_18  and  C_19
REMARK    6  A    between atoms: C_22  and  C_23
REMARK    7  A    between atoms: C_23  and  C_24
REMARK                            x       y       z     vdW  Elec       q    Type
REMARK                         _______ _______ _______ _____ _____    ______ ____
ROOT
ATOM      1  N   UNL     1       3.663   4.977  19.231  0.00  0.00    +0.000 N 
ATOM      2  C   UNL     1       5.065   5.446  19.342  0.00  0.00    +0.000 C 
ATOM      3  C   UNL     1       5.602   5.127  17.972  0.00  0.00    +0.000 A 
ATOM      4  C   UNL     1       4.880   4.032  17.488  0.00  0.00    +0.000 A 
ATOM      5  C   UNL     1       5.016   3.536  16.205  0.00  0.00    +0.000 A 
ATOM      6  C   UNL     1       5.915   4.197  15.373  0.00  0.00    +0.000 A 
ATOM      7  C   UNL     1       6.632   5.327  15.828  0.00  0.00    +0.000 A 
ATOM      8  C   UNL     1       6.480   5.820  17.142  0.00  0.00    +0.000 A 
ATOM      9  C   UNL     1       3.712   3.834  18.390  0.00  0.00    +0.000 C 
ATOM     10  O   UNL     1       2.892   2.954  18.232  0.00  0.00    +0.000 OA
ENDROOT
BRANCH   1  15
ATOM     11  C   UNL     1       1.903   8.164  19.597  0.00  0.00    +0.000 A 
ATOM     12  C   UNL     1       2.457   8.807  18.479  0.00  0.00    +0.000 A 
ATOM     13  C   UNL     1       3.005   8.064  17.436  0.00  0.00    +0.000 A 
ATOM     14  C   UNL     1       3.108   6.686  17.542  0.00  0.00    +0.000 A 
ATOM     15  C   UNL     1       2.808   6.068  18.764  0.00  0.00    +0.000 A 
ATOM     16  C   UNL     1       2.057   6.775  19.716  0.00  0.00    +0.000 A 
BRANCH  11  17
ATOM     17  C   UNL     1       1.128   8.975  20.608  0.00  0.00    +0.000 C 
BRANCH  17  23
ATOM     18  C   UNL     1       1.480  12.103  20.661  0.00  0.00    +0.000 C 
ATOM     19  N   UNL     1       0.399  11.364  20.069  0.00  0.00    +0.000 N 
ATOM     20  C   UNL     1      -0.631  11.905  19.362  0.00  0.00    +0.000 A 
ATOM     21  N   UNL     1      -1.434  10.953  18.955  0.00  0.00    +0.000 NA
ATOM     22  N   UNL     1      -0.912   9.758  19.386  0.00  0.00    +0.000 NA
ATOM     23  C   UNL     1       0.201  10.006  20.053  0.00  0.00    +0.000 A 
ENDBRANCH  17  23
ENDBRANCH  11  17
ENDBRANCH   1  15
BRANCH   8  24
ATOM     24  C   UNL     1       7.195   7.082  17.560  0.00  0.00    +0.000 C 
ATOM     25  C   UNL     1       8.063   6.832  18.778  0.00  0.00    +0.000 C 
ATOM     26  F   UNL     1       7.998   7.574  16.568  0.00  0.00    +0.000 F 
ATOM     27  F   UNL     1       6.350   8.109  17.856  0.00  0.00    +0.000 F 
ENDBRANCH   8  24
BRANCH   6  28
ATOM     28  C   UNL     1       6.054   3.759  13.966  0.00  0.00    +0.000 C 
ATOM     29  O   UNL     1       6.838   4.311  13.197  0.00  0.00    +0.000 OA
ENDBRANCH   6  28
TORSDOF 5
ENDMDL
MODEL 7
REMARK VINA RESULT:      -7.9      5.406      9.034
REMARK  Name = 
REMARK  7 active torsions:
REMARK  status: ('A' for Active; 'I' for Inactive)
REMARK    1  A    between atoms: C_1  and  N_2
REMARK    2  A    between atoms: C_6  and  C_7
REMARK    3  A    between atoms: C_7  and  C_8
REMARK    4  A    between atoms: C_12  and  N_13
REMARK    5  A    between atoms: C_18  and  C_19
REMARK    6  A    between atoms: C_22  and  C_23
REMARK    7  A    between atoms: C_23  and  C_24
REMARK                            x       y       z     vdW  Elec       q    Type
REMARK                         _______ _______ _______ _____ _____    ______ ____
ROOT
ATOM      1  N   UNL     1      -1.514  12.534  18.575  0.00  0.00    +0.000 N 
ATOM      2  C   UNL     1      -0.151  12.052  18.246  0.00  0.00    +0.000 C 
ATOM      3  C   UNL     1       0.163  11.189  19.439  0.00  0.00    +0.000 A 
ATOM      4  C   UNL     1      -0.551  11.707  20.524  0.00  0.00    +0.000 A 
ATOM      5  C   UNL     1      -0.604  11.097  21.764  0.00  0.00    +0.000 A 
ATOM      6  C   UNL     1       0.088   9.896  21.898  0.00  0.00    +0.000 A 
ATOM      7  C   UNL     1       0.790   9.335  20.807  0.00  0.00    +0.000 A 
ATOM      8  C   UNL     1       0.832   9.972  19.547  0.00  0.00    +0.000 A 
ATOM      9  C   UNL     1      -1.529  12.693  19.985  0.00  0.00    +0.000 C 
ATOM     10  O   UNL     1      -2.299  13.317  20.685  0.00  0.00    +0.000 OA
ENDROOT
BRANCH   1  15
ATOM     11  C   UNL     1      -4.798  11.675  17.207  0.00  0.00    +0.000 A 
ATOM     12  C   UNL     1      -4.349  11.074  16.020  0.00  0.00    +0.000 A 
ATOM     13  C   UNL     1      -3.049  10.581  15.926  0.00  0.00    +0.000 A 
ATOM     14  C   UNL     1      -2.152  10.779  16.963  0.00  0.00    +0.000 A 
ATOM     15  C   UNL     1      -2.513  11.613  18.031  0.00  0.00    +0.000 A 
ATOM     16  C   UNL     1      -3.869  11.913  18.231  0.00  0.00    +0.000 A 
BRANCH  11  17
ATOM     17  C   UNL     1      -6.263  12.005  17.361  0.00  0.00    +0.000 C 
BRANCH  17  23
ATOM     18  C   UNL     1      -6.968  13.773  19.868  0.00  0.00    +0.000 C 
ATOM     19  N   UNL     1      -6.887  14.206  18.500  0.00  0.00    +0.000 N 
ATOM     20  C   UNL     1      -7.037  15.488  18.069  0.00  0.00    +0.000 A 
ATOM     21  N   UNL     1      -6.892  15.535  16.767  0.00  0.00    +0.000 NA
ATOM     22  N   UNL     1      -6.622  14.261  16.335  0.00  0.00    +0.000 NA
ATOM     23  C   UNL     1      -6.611  13.457  17.383  0.00  0.00    +0.000 A 
ENDBRANCH  17  23
ENDBRANCH  11  17
ENDBRANCH   1  15
BRANCH   8  24
ATOM     24  C   UNL     1       1.516   9.296  18.384  0.00  0.00    +0.000 C 
ATOM     25  C   UNL     1       2.212   8.025  18.834  0.00  0.00    +0.000 C 
ATOM     26  F   UNL     1       0.637   8.963  17.390  0.00  0.00    +0.000 F 
ATOM     27  F   UNL     1       2.443  10.083  17.771  0.00  0.00    +0.000 F 
ENDBRANCH   8  24
BRANCH   6  28
ATOM     28  C   UNL     1       0.013   9.158  23.178  0.00  0.00    +0.000 C 
ATOM     29  O   UNL     1       0.556   9.582  24.196  0.00  0.00    +0.000 OA
ENDBRANCH   6  28
TORSDOF 5
ENDMDL
MODEL 8
REMARK VINA RESULT:      -7.9      1.052      1.229
REMARK  Name = 
REMARK  7 active torsions:
REMARK  status: ('A' for Active; 'I' for Inactive)
REMARK    1  A    between atoms: C_1  and  N_2
REMARK    2  A    between atoms: C_6  and  C_7
REMARK    3  A    between atoms: C_7  and  C_8
REMARK    4  A    between atoms: C_12  and  N_13
REMARK    5  A    between atoms: C_18  and  C_19
REMARK    6  A    between atoms: C_22  and  C_23
REMARK    7  A    between atoms: C_23  and  C_24
REMARK                            x       y       z     vdW  Elec       q    Type
REMARK                         _______ _______ _______ _____ _____    ______ ____
ROOT
ATOM      1  N   UNL     1       3.091   4.009  18.866  0.00  0.00    +0.000 N 
ATOM      2  C   UNL     1       4.487   4.162  19.340  0.00  0.00    +0.000 C 
ATOM      3  C   UNL     1       5.249   4.183  18.042  0.00  0.00    +0.000 A 
ATOM      4  C   UNL     1       4.513   3.434  17.118  0.00  0.00    +0.000 A 
ATOM      5  C   UNL     1       4.846   3.334  15.780  0.00  0.00    +0.000 A 
ATOM      6  C   UNL     1       5.969   4.042  15.361  0.00  0.00    +0.000 A 
ATOM      7  C   UNL     1       6.710   4.833  16.269  0.00  0.00    +0.000 A 
ATOM      8  C   UNL     1       6.354   4.925  17.633  0.00  0.00    +0.000 A 
ATOM      9  C   UNL     1       3.171   3.186  17.713  0.00  0.00    +0.000 C 
ATOM     10  O   UNL     1       2.299   2.557  17.149  0.00  0.00    +0.000 OA
ENDROOT
BRANCH   1  15
ATOM     11  C   UNL     1       1.834   7.262  19.979  0.00  0.00    +0.000 A 
ATOM     12  C   UNL     1       2.619   8.059  19.132  0.00  0.00    +0.000 A 
ATOM     13  C   UNL     1       3.166   7.527  17.966  0.00  0.00    +0.000 A 
ATOM     14  C   UNL     1       3.032   6.176  17.688  0.00  0.00    +0.000 A 
ATOM     15  C   UNL     1       2.487   5.326  18.662  0.00  0.00    +0.000 A 
ATOM     16  C   UNL     1       1.747   5.886  19.714  0.00  0.00    +0.000 A 
BRANCH  11  17
ATOM     17  C   UNL     1       1.079   7.909  21.115  0.00  0.00    +0.000 C 
BRANCH  17  23
ATOM     18  C   UNL     1      -0.724   9.608  19.172  0.00  0.00    +0.000 C 
ATOM     19  N   UNL     1       0.133  10.104  20.213  0.00  0.00    +0.000 N 
ATOM     20  C   UNL     1       0.253  11.411  20.579  0.00  0.00    +0.000 A 
ATOM     21  N   UNL     1       1.109  11.515  21.565  0.00  0.00    +0.000 NA
ATOM     22  N   UNL     1       1.547  10.250  21.869  0.00  0.00    +0.000 NA
ATOM     23  C   UNL     1       0.952   9.396  21.057  0.00  0.00    +0.000 A 
ENDBRANCH  17  23
ENDBRANCH  11  17
ENDBRANCH   1  15
BRANCH   8  24
ATOM     24  C   UNL     1       7.117   5.850  18.549  0.00  0.00    +0.000 C 
ATOM     25  C   UNL     1       7.478   7.139  17.834  0.00  0.00    +0.000 C 
ATOM     26  F   UNL     1       6.400   6.179  19.666  0.00  0.00    +0.000 F 
ATOM     27  F   UNL     1       8.269   5.306  19.030  0.00  0.00    +0.000 F 
ENDBRANCH   8  24
BRANCH   6  28
ATOM     28  C   UNL     1       6.336   4.033  13.929  0.00  0.00    +0.000 C 
ATOM     29  O   UNL     1       7.166   4.819  13.473  0.00  0.00    +0.000 OA
ENDBRANCH   6  28
TORSDOF 5
ENDMDL
MODEL 9
REMARK VINA RESULT:      -7.9      6.061      9.032
REMARK  Name = 
REMARK  7 active torsions:
REMARK  status: ('A' for Active; 'I' for Inactive)
REMARK    1  A    between atoms: C_1  and  N_2
REMARK    2  A    between atoms: C_6  and  C_7
REMARK    3  A    between atoms: C_7  and  C_8
REMARK    4  A    between atoms: C_12  and  N_13
REMARK    5  A    between atoms: C_18  and  C_19
REMARK    6  A    between atoms: C_22  and  C_23
REMARK    7  A    between atoms: C_23  and  C_24
REMARK                            x       y       z     vdW  Elec       q    Type
REMARK                         _______ _______ _______ _____ _____    ______ ____
ROOT
ATOM      1  N   UNL     1      -1.858  12.590  18.893  0.00  0.00    +0.000 N 
ATOM      2  C   UNL     1      -0.485  12.192  18.504  0.00  0.00    +0.000 C 
ATOM      3  C   UNL     1      -0.077  11.327  19.667  0.00  0.00    +0.000 A 
ATOM      4  C   UNL     1      -0.778  11.783  20.788  0.00  0.00    +0.000 A 
ATOM      5  C   UNL     1      -0.749  11.148  22.015  0.00  0.00    +0.000 A 
ATOM      6  C   UNL     1       0.014   9.986  22.099  0.00  0.00    +0.000 A 
ATOM      7  C   UNL     1       0.704   9.486  20.971  0.00  0.00    +0.000 A 
ATOM      8  C   UNL     1       0.662  10.148  19.724  0.00  0.00    +0.000 A 
ATOM      9  C   UNL     1      -1.829  12.722  20.306  0.00  0.00    +0.000 C 
ATOM     10  O   UNL     1      -2.605  13.288  21.047  0.00  0.00    +0.000 OA
ENDROOT
BRANCH   1  15
ATOM     11  C   UNL     1      -5.120  11.585  17.572  0.00  0.00    +0.000 A 
ATOM     12  C   UNL     1      -4.661  10.995  16.384  0.00  0.00    +0.000 A 
ATOM     13  C   UNL     1      -3.343  10.557  16.275  0.00  0.00    +0.000 A 
ATOM     14  C   UNL     1      -2.442  10.799  17.300  0.00  0.00    +0.000 A 
ATOM     15  C   UNL     1      -2.824  11.625  18.368  0.00  0.00    +0.000 A 
ATOM     16  C   UNL     1      -4.189  11.869  18.583  0.00  0.00    +0.000 A 
BRANCH  11  17
ATOM     17  C   UNL     1      -6.596  11.854  17.743  0.00  0.00    +0.000 C 
BRANCH  17  23
ATOM     18  C   UNL     1      -7.179   9.371  19.588  0.00  0.00    +0.000 C 
ATOM     19  N   UNL     1      -7.323  10.758  19.934  0.00  0.00    +0.000 N 
ATOM     20  C   UNL     1      -7.674  11.232  21.161  0.00  0.00    +0.000 A 
ATOM     21  N   UNL     1      -7.702  12.542  21.136  0.00  0.00    +0.000 NA
ATOM     22  N   UNL     1      -7.342  12.940  19.872  0.00  0.00    +0.000 NA
ATOM     23  C   UNL     1      -7.105  11.861  19.147  0.00  0.00    +0.000 A 
ENDBRANCH  17  23
ENDBRANCH  11  17
ENDBRANCH   1  15
BRANCH   8  24
ATOM     24  C   UNL     1       1.338   9.533  18.523  0.00  0.00    +0.000 C 
ATOM     25  C   UNL     1       2.406  10.460  17.973  0.00  0.00    +0.000 C 
ATOM     26  F   UNL     1       1.933   8.338  18.820  0.00  0.00    +0.000 F 
ATOM     27  F   UNL     1       0.477   9.243  17.508  0.00  0.00    +0.000 F 
ENDBRANCH   8  24
BRANCH   6  28
ATOM     28  C   UNL     1       0.029   9.221  23.365  0.00  0.00    +0.000 C 
ATOM     29  O   UNL     1       0.815   9.494  24.271  0.00  0.00    +0.000 OA
ENDBRANCH   6  28
TORSDOF 5
ENDMDL
