MODEL 1
REMARK VINA RESULT:      -9.2      0.000      0.000
REMARK  Name = 
REMARK  5 active torsions:
REMARK  status: ('A' for Active; 'I' for Inactive)
REMARK    1  A    between atoms: C_1  and  S_2
REMARK    2  A    between atoms: S_2  and  C_5
REMARK    3  A    between atoms: N_13  and  C_14
REMARK    4  A    between atoms: C_18  and  N_19
REMARK    5  A    between atoms: C_20  and  C_22
REMARK                            x       y       z     vdW  Elec       q    Type
REMARK                         _______ _______ _______ _____ _____    ______ ____
ROOT
ATOM      1  C   UNL     1       4.772   4.821  17.006  0.00  0.00    +0.000 A 
ATOM      2  C   UNL     1       4.478   3.464  17.046  0.00  0.00    +0.000 A 
ATOM      3  C   UNL     1       3.533   3.006  17.968  0.00  0.00    +0.000 A 
ATOM      4  C   UNL     1       2.874   3.868  18.844  0.00  0.00    +0.000 A 
ATOM      5  N   UNL     1       1.972   3.350  19.678  0.00  0.00    +0.000 NA
ATOM      6  C   UNL     1       1.326   4.211  20.472  0.00  0.00    +0.000 A 
ATOM      7  N   UNL     1       1.486   5.537  20.497  0.00  0.00    +0.000 NA
ATOM      8  C   UNL     1       2.411   6.054  19.666  0.00  0.00    +0.000 A 
ATOM      9  N   UNL     1       2.590   7.459  19.645  0.00  0.00    +0.000 N 
ATOM     10  C   UNL     1       3.172   5.239  18.800  0.00  0.00    +0.000 A 
ATOM     11  C   UNL     1       4.145   5.708  17.884  0.00  0.00    +0.000 A 
ATOM     12  H   UNL     1       3.542   7.725  19.860  0.00  0.00    +0.000 HD
ENDROOT
BRANCH   9  13
ATOM     13  C   UNL     1       1.622   8.468  19.854  0.00  0.00    +0.000 A 
ATOM     14  C   UNL     1       1.239   8.846  21.146  0.00  0.00    +0.000 A 
ATOM     15  C   UNL     1       0.157   9.692  21.354  0.00  0.00    +0.000 A 
ATOM     16  C   UNL     1      -0.547  10.206  20.262  0.00  0.00    +0.000 A 
ATOM     17  C   UNL     1      -0.144   9.922  18.955  0.00  0.00    +0.000 A 
ATOM     18  C   UNL     1       0.934   9.039  18.763  0.00  0.00    +0.000 A 
BRANCH  17  19
ATOM     19  N   UNL     1      -0.777  10.490  17.820  0.00  0.00    +0.000 N 
ATOM     20  C   UNL     1      -2.075  10.250  17.403  0.00  0.00    +0.000 C 
ATOM     21  O   UNL     1      -2.884   9.482  17.913  0.00  0.00    +0.000 OA
ATOM     22  H   UNL     1      -0.232  11.143  17.275  0.00  0.00    +0.000 HD
BRANCH  20  23
ATOM     23  C   UNL     1      -2.485  11.003  16.176  0.00  0.00    +0.000 C 
ATOM     24  C   UNL     1      -3.932  10.957  15.718  0.00  0.00    +0.000 C 
ATOM     25  C   UNL     1      -2.880  10.226  14.939  0.00  0.00    +0.000 C 
ENDBRANCH  20  23
ENDBRANCH  17  19
ENDBRANCH   9  13
BRANCH   1  27
ATOM     26  C   UNL     1       5.956   4.214  14.563  0.00  0.00    +0.000 C 
ATOM     27  S   UNL     1       5.965   5.442  15.844  0.00  0.00    +0.000 S 
ATOM     28  O   UNL     1       7.262   5.414  16.494  0.00  0.00    +0.000 OA
ATOM     29  O   UNL     1       5.428   6.675  15.302  0.00  0.00    +0.000 OA
ENDBRANCH   1  27
TORSDOF 4
ENDMDL
MODEL 2
REMARK VINA RESULT:      -9.1      0.680      1.094
REMARK  Name = 
REMARK  5 active torsions:
REMARK  status: ('A' for Active; 'I' for Inactive)
REMARK    1  A    between atoms: C_1  and  S_2
REMARK    2  A    between atoms: S_2  and  C_5
REMARK    3  A    between atoms: N_13  and  C_14
REMARK    4  A    between atoms: C_18  and  N_19
REMARK    5  A    between atoms: C_20  and  C_22
REMARK                            x       y       z     vdW  Elec       q    Type
REMARK                         _______ _______ _______ _____ _____    ______ ____
ROOT
ATOM      1  C   UNL     1       5.034   5.012  17.309  0.00  0.00    +0.000 A 
ATOM      2  C   UNL     1       4.710   3.668  17.174  0.00  0.00    +0.000 A 
ATOM      3  C   UNL     1       3.644   3.153  17.918  0.00  0.00    +0.000 A 
ATOM      4  C   UNL     1       2.894   3.947  18.786  0.00  0.00    +0.000 A 
ATOM      5  N   UNL     1       1.882   3.381  19.443  0.00  0.00    +0.000 NA
ATOM      6  C   UNL     1       1.157   4.182  20.231  0.00  0.00    +0.000 A 
ATOM      7  N   UNL     1       1.339   5.493  20.410  0.00  0.00    +0.000 NA
ATOM      8  C   UNL     1       2.374   6.057  19.760  0.00  0.00    +0.000 A 
ATOM      9  N   UNL     1       2.583   7.451  19.904  0.00  0.00    +0.000 N 
ATOM     10  C   UNL     1       3.224   5.306  18.919  0.00  0.00    +0.000 A 
ATOM     11  C   UNL     1       4.317   5.829  18.187  0.00  0.00    +0.000 A 
ATOM     12  H   UNL     1       3.504   7.662  20.263  0.00  0.00    +0.000 HD
ENDROOT
BRANCH   9  13
ATOM     13  C   UNL     1       1.617   8.466  20.089  0.00  0.00    +0.000 A 
ATOM     14  C   UNL     1       1.206   8.847  21.372  0.00  0.00    +0.000 A 
ATOM     15  C   UNL     1       0.124   9.700  21.553  0.00  0.00    +0.000 A 
ATOM     16  C   UNL     1      -0.550  10.219  20.445  0.00  0.00    +0.000 A 
ATOM     17  C   UNL     1      -0.116   9.932  19.148  0.00  0.00    +0.000 A 
ATOM     18  C   UNL     1       0.960   9.042  18.982  0.00  0.00    +0.000 A 
BRANCH  17  19
ATOM     19  N   UNL     1      -0.718  10.504  17.998  0.00  0.00    +0.000 N 
ATOM     20  C   UNL     1      -1.991  10.237  17.522  0.00  0.00    +0.000 C 
ATOM     21  O   UNL     1      -2.797   9.437  17.984  0.00  0.00    +0.000 OA
ATOM     22  H   UNL     1      -0.170  11.183  17.488  0.00  0.00    +0.000 HD
BRANCH  20  23
ATOM     23  C   UNL     1      -2.370  11.002  16.293  0.00  0.00    +0.000 C 
ATOM     24  C   UNL     1      -3.837  11.151  15.928  0.00  0.00    +0.000 C 
ATOM     25  C   UNL     1      -2.954  10.251  15.115  0.00  0.00    +0.000 C 
ENDBRANCH  20  23
ENDBRANCH  17  19
ENDBRANCH   9  13
BRANCH   1  27
ATOM     26  C   UNL     1       6.936   7.039  17.405  0.00  0.00    +0.000 C 
ATOM     27  S   UNL     1       6.380   5.703  16.378  0.00  0.00    +0.000 S 
ATOM     28  O   UNL     1       5.826   6.263  15.160  0.00  0.00    +0.000 OA
ATOM     29  O   UNL     1       7.424   4.697  16.330  0.00  0.00    +0.000 OA
ENDBRANCH   1  27
TORSDOF 4
ENDMDL
MODEL 3
REMARK VINA RESULT:      -8.7      1.047      1.132
REMARK  Name = 
REMARK  5 active torsions:
REMARK  status: ('A' for Active; 'I' for Inactive)
REMARK    1  A    between atoms: C_1  and  S_2
REMARK    2  A    between atoms: S_2  and  C_5
REMARK    3  A    between atoms: N_13  and  C_14
REMARK    4  A    between atoms: C_18  and  N_19
REMARK    5  A    between atoms: C_20  and  C_22
REMARK                            x       y       z     vdW  Elec       q    Type
REMARK                         _______ _______ _______ _____ _____    ______ ____
ROOT
ATOM      1  C   UNL     1       4.519   5.447  17.226  0.00  0.00    +0.000 A 
ATOM      2  C   UNL     1       4.137   4.150  16.908  0.00  0.00    +0.000 A 
ATOM      3  C   UNL     1       3.124   3.542  17.656  0.00  0.00    +0.000 A 
ATOM      4  C   UNL     1       2.483   4.200  18.706  0.00  0.00    +0.000 A 
ATOM      5  N   UNL     1       1.514   3.554  19.356  0.00  0.00    +0.000 NA
ATOM      6  C   UNL     1       0.890   4.230  20.327  0.00  0.00    +0.000 A 
ATOM      7  N   UNL     1       1.133   5.491  20.695  0.00  0.00    +0.000 NA
ATOM      8  C   UNL     1       2.125   6.133  20.049  0.00  0.00    +0.000 A 
ATOM      9  N   UNL     1       2.394   7.480  20.395  0.00  0.00    +0.000 N 
ATOM     10  C   UNL     1       2.870   5.512  19.023  0.00  0.00    +0.000 A 
ATOM     11  C   UNL     1       3.911   6.125  18.285  0.00  0.00    +0.000 A 
ATOM     12  H   UNL     1       3.351   7.612  20.696  0.00  0.00    +0.000 HD
ENDROOT
BRANCH   9  13
ATOM     13  C   UNL     1       1.485   8.471  20.829  0.00  0.00    +0.000 A 
ATOM     14  C   UNL     1       1.317   8.751  22.191  0.00  0.00    +0.000 A 
ATOM     15  C   UNL     1       0.292   9.579  22.631  0.00  0.00    +0.000 A 
ATOM     16  C   UNL     1      -0.570  10.174  21.707  0.00  0.00    +0.000 A 
ATOM     17  C   UNL     1      -0.382   9.990  20.334  0.00  0.00    +0.000 A 
ATOM     18  C   UNL     1       0.640   9.123  19.908  0.00  0.00    +0.000 A 
BRANCH  17  19
ATOM     19  N   UNL     1      -1.180  10.643  19.360  0.00  0.00    +0.000 N 
ATOM     20  C   UNL     1      -1.230  10.344  18.010  0.00  0.00    +0.000 C 
ATOM     21  O   UNL     1      -0.570   9.498  17.417  0.00  0.00    +0.000 OA
ATOM     22  H   UNL     1      -1.780  11.387  19.690  0.00  0.00    +0.000 HD
BRANCH  20  23
ATOM     23  C   UNL     1      -2.178  11.190  17.218  0.00  0.00    +0.000 C 
ATOM     24  C   UNL     1      -3.618  10.738  17.045  0.00  0.00    +0.000 C 
ATOM     25  C   UNL     1      -2.673  10.679  15.882  0.00  0.00    +0.000 C 
ENDBRANCH  20  23
ENDBRANCH  17  19
ENDBRANCH   9  13
BRANCH   1  27
ATOM     26  C   UNL     1       6.854   4.909  15.814  0.00  0.00    +0.000 C 
ATOM     27  S   UNL     1       5.800   6.253  16.295  0.00  0.00    +0.000 S 
ATOM     28  O   UNL     1       6.535   7.105  17.210  0.00  0.00    +0.000 OA
ATOM     29  O   UNL     1       5.179   6.798  15.103  0.00  0.00    +0.000 OA
ENDBRANCH   1  27
TORSDOF 4
ENDMDL
MODEL 4
REMARK VINA RESULT:      -8.5      1.287      1.590
REMARK  Name = 
REMARK  5 active torsions:
REMARK  status: ('A' for Active; 'I' for Inactive)
REMARK    1  A    between atoms: C_1  and  S_2
REMARK    2  A    between atoms: S_2  and  C_5
REMARK    3  A    between atoms: N_13  and  C_14
REMARK    4  A    between atoms: C_18  and  N_19
REMARK    5  A    between atoms: C_20  and  C_22
REMARK                            x       y       z     vdW  Elec       q    Type
REMARK                         _______ _______ _______ _____ _____    ______ ____
ROOT
ATOM      1  C   UNL     1       5.041   5.039  17.508  0.00  0.00    +0.000 A 
ATOM      2  C   UNL     1       4.667   3.743  17.171  0.00  0.00    +0.000 A 
ATOM      3  C   UNL     1       3.552   3.179  17.797  0.00  0.00    +0.000 A 
ATOM      4  C   UNL     1       2.801   3.876  18.742  0.00  0.00    +0.000 A 
ATOM      5  N   UNL     1       1.740   3.270  19.276  0.00  0.00    +0.000 NA
ATOM      6  C   UNL     1       1.016   3.984  20.145  0.00  0.00    +0.000 A 
ATOM      7  N   UNL     1       1.244   5.247  20.515  0.00  0.00    +0.000 NA
ATOM      8  C   UNL     1       2.327   5.849  19.988  0.00  0.00    +0.000 A 
ATOM      9  N   UNL     1       2.586   7.198  20.338  0.00  0.00    +0.000 N 
ATOM     10  C   UNL     1       3.179   5.186  19.079  0.00  0.00    +0.000 A 
ATOM     11  C   UNL     1       4.321   5.756  18.467  0.00  0.00    +0.000 A 
ATOM     12  H   UNL     1       3.500   7.313  20.755  0.00  0.00    +0.000 HD
ENDROOT
BRANCH   9  13
ATOM     13  C   UNL     1       1.656   8.220  20.632  0.00  0.00    +0.000 A 
ATOM     14  C   UNL     1       1.501   8.702  21.937  0.00  0.00    +0.000 A 
ATOM     15  C   UNL     1       0.459   9.562  22.263  0.00  0.00    +0.000 A 
ATOM     16  C   UNL     1      -0.433   9.985  21.275  0.00  0.00    +0.000 A 
ATOM     17  C   UNL     1      -0.261   9.596  19.945  0.00  0.00    +0.000 A 
ATOM     18  C   UNL     1       0.778   8.700  19.637  0.00  0.00    +0.000 A 
BRANCH  17  19
ATOM     19  N   UNL     1      -1.092  10.070  18.897  0.00  0.00    +0.000 N 
ATOM     20  C   UNL     1      -1.209  11.383  18.477  0.00  0.00    +0.000 C 
ATOM     21  O   UNL     1      -0.651  12.364  18.956  0.00  0.00    +0.000 OA
ATOM     22  H   UNL     1      -1.638   9.378  18.403  0.00  0.00    +0.000 HD
BRANCH  20  23
ATOM     23  C   UNL     1      -2.153  11.590  17.333  0.00  0.00    +0.000 C 
ATOM     24  C   UNL     1      -3.648  11.443  17.560  0.00  0.00    +0.000 C 
ATOM     25  C   UNL     1      -2.906  10.398  16.781  0.00  0.00    +0.000 C 
ENDBRANCH  20  23
ENDBRANCH  17  19
ENDBRANCH   9  13
BRANCH   1  27
ATOM     26  C   UNL     1       7.364   6.446  18.105  0.00  0.00    +0.000 C 
ATOM     27  S   UNL     1       6.451   5.791  16.732  0.00  0.00    +0.000 S 
ATOM     28  O   UNL     1       5.968   6.902  15.933  0.00  0.00    +0.000 OA
ATOM     29  O   UNL     1       7.226   4.722  16.133  0.00  0.00    +0.000 OA
ENDBRANCH   1  27
TORSDOF 4
ENDMDL
MODEL 5
REMARK VINA RESULT:      -8.3      2.640      3.105
REMARK  Name = 
REMARK  5 active torsions:
REMARK  status: ('A' for Active; 'I' for Inactive)
REMARK    1  A    between atoms: C_1  and  S_2
REMARK    2  A    between atoms: S_2  and  C_5
REMARK    3  A    between atoms: N_13  and  C_14
REMARK    4  A    between atoms: C_18  and  N_19
REMARK    5  A    between atoms: C_20  and  C_22
REMARK                            x       y       z     vdW  Elec       q    Type
REMARK                         _______ _______ _______ _____ _____    ______ ____
ROOT
ATOM      1  C   UNL     1       5.224   4.868  17.464  0.00  0.00    +0.000 A 
ATOM      2  C   UNL     1       4.849   3.620  16.985  0.00  0.00    +0.000 A 
ATOM      3  C   UNL     1       3.674   3.037  17.468  0.00  0.00    +0.000 A 
ATOM      4  C   UNL     1       2.865   3.671  18.411  0.00  0.00    +0.000 A 
ATOM      5  N   UNL     1       1.751   3.053  18.804  0.00  0.00    +0.000 NA
ATOM      6  C   UNL     1       0.977   3.710  19.674  0.00  0.00    +0.000 A 
ATOM      7  N   UNL     1       1.204   4.929  20.172  0.00  0.00    +0.000 NA
ATOM      8  C   UNL     1       2.339   5.541  19.788  0.00  0.00    +0.000 A 
ATOM      9  N   UNL     1       2.601   6.845  20.276  0.00  0.00    +0.000 N 
ATOM     10  C   UNL     1       3.246   4.934  18.892  0.00  0.00    +0.000 A 
ATOM     11  C   UNL     1       4.447   5.521  18.425  0.00  0.00    +0.000 A 
ATOM     12  H   UNL     1       3.481   6.896  20.772  0.00  0.00    +0.000 HD
ENDROOT
BRANCH   9  13
ATOM     13  C   UNL     1       1.674   7.866  20.587  0.00  0.00    +0.000 A 
ATOM     14  C   UNL     1       0.667   7.662  21.538  0.00  0.00    +0.000 A 
ATOM     15  C   UNL     1      -0.357   8.586  21.705  0.00  0.00    +0.000 A 
ATOM     16  C   UNL     1      -0.375   9.755  20.941  0.00  0.00    +0.000 A 
ATOM     17  C   UNL     1       0.658  10.036  20.044  0.00  0.00    +0.000 A 
ATOM     18  C   UNL     1       1.670   9.077  19.864  0.00  0.00    +0.000 A 
BRANCH  17  19
ATOM     19  N   UNL     1       0.724  11.250  19.312  0.00  0.00    +0.000 N 
ATOM     20  C   UNL     1       1.275  12.441  19.751  0.00  0.00    +0.000 C 
ATOM     21  O   UNL     1       1.763  12.666  20.853  0.00  0.00    +0.000 OA
ATOM     22  H   UNL     1       0.345  11.236  18.375  0.00  0.00    +0.000 HD
BRANCH  20  23
ATOM     23  C   UNL     1       1.220  13.558  18.755  0.00  0.00    +0.000 C 
ATOM     24  C   UNL     1       2.507  14.074  18.138  0.00  0.00    +0.000 C 
ATOM     25  C   UNL     1       1.775  14.912  19.143  0.00  0.00    +0.000 C 
ENDBRANCH  20  23
ENDBRANCH  17  19
ENDBRANCH   9  13
BRANCH   1  27
ATOM     26  C   UNL     1       7.579   6.041  18.366  0.00  0.00    +0.000 C 
ATOM     27  S   UNL     1       6.709   5.643  16.871  0.00  0.00    +0.000 S 
ATOM     28  O   UNL     1       6.326   6.882  16.221  0.00  0.00    +0.000 OA
ATOM     29  O   UNL     1       7.462   4.628  16.159  0.00  0.00    +0.000 OA
ENDBRANCH   1  27
TORSDOF 4
ENDMDL
MODEL 6
REMARK VINA RESULT:      -8.3      2.369      3.513
REMARK  Name = 
REMARK  5 active torsions:
REMARK  status: ('A' for Active; 'I' for Inactive)
REMARK    1  A    between atoms: C_1  and  S_2
REMARK    2  A    between atoms: S_2  and  C_5
REMARK    3  A    between atoms: N_13  and  C_14
REMARK    4  A    between atoms: C_18  and  N_19
REMARK    5  A    between atoms: C_20  and  C_22
REMARK                            x       y       z     vdW  Elec       q    Type
REMARK                         _______ _______ _______ _____ _____    ______ ____
ROOT
ATOM      1  C   UNL     1       5.516   4.576  18.509  0.00  0.00    +0.000 A 
ATOM      2  C   UNL     1       5.224   3.221  18.606  0.00  0.00    +0.000 A 
ATOM      3  C   UNL     1       4.010   2.832  19.179  0.00  0.00    +0.000 A 
ATOM      4  C   UNL     1       3.082   3.760  19.650  0.00  0.00    +0.000 A 
ATOM      5  N   UNL     1       1.940   3.304  20.165  0.00  0.00    +0.000 NA
ATOM      6  C   UNL     1       1.054   4.222  20.566  0.00  0.00    +0.000 A 
ATOM      7  N   UNL     1       1.197   5.548  20.484  0.00  0.00    +0.000 NA
ATOM      8  C   UNL     1       2.359   6.005  19.982  0.00  0.00    +0.000 A 
ATOM      9  N   UNL     1       2.536   7.405  19.857  0.00  0.00    +0.000 N 
ATOM     10  C   UNL     1       3.379   5.129  19.550  0.00  0.00    +0.000 A 
ATOM     11  C   UNL     1       4.616   5.530  18.992  0.00  0.00    +0.000 A 
ATOM     12  H   UNL     1       3.349   7.732  20.363  0.00  0.00    +0.000 HD
ENDROOT
BRANCH   9  13
ATOM     13  C   UNL     1       1.561   8.389  19.583  0.00  0.00    +0.000 A 
ATOM     14  C   UNL     1       1.348   8.853  18.279  0.00  0.00    +0.000 A 
ATOM     15  C   UNL     1       0.534   9.952  18.033  0.00  0.00    +0.000 A 
ATOM     16  C   UNL     1      -0.116  10.590  19.092  0.00  0.00    +0.000 A 
ATOM     17  C   UNL     1       0.000  10.104  20.397  0.00  0.00    +0.000 A 
ATOM     18  C   UNL     1       0.854   9.012  20.632  0.00  0.00    +0.000 A 
BRANCH  17  19
ATOM     19  N   UNL     1      -0.709  10.670  21.488  0.00  0.00    +0.000 N 
ATOM     20  C   UNL     1      -0.463  11.900  22.073  0.00  0.00    +0.000 C 
ATOM     21  O   UNL     1       0.427  12.691  21.781  0.00  0.00    +0.000 OA
ATOM     22  H   UNL     1      -1.476  10.128  21.861  0.00  0.00    +0.000 HD
BRANCH  20  23
ATOM     23  C   UNL     1      -1.383  12.249  23.201  0.00  0.00    +0.000 C 
ATOM     24  C   UNL     1      -2.738  12.865  22.899  0.00  0.00    +0.000 C 
ATOM     25  C   UNL     1      -1.653  13.708  23.501  0.00  0.00    +0.000 C 
ENDBRANCH  20  23
ENDBRANCH  17  19
ENDBRANCH   9  13
BRANCH   1  27
ATOM     26  C   UNL     1       6.926   4.524  16.113  0.00  0.00    +0.000 C 
ATOM     27  S   UNL     1       7.048   5.110  17.784  0.00  0.00    +0.000 S 
ATOM     28  O   UNL     1       8.118   4.388  18.444  0.00  0.00    +0.000 OA
ATOM     29  O   UNL     1       7.026   6.560  17.764  0.00  0.00    +0.000 OA
ENDBRANCH   1  27
TORSDOF 4
ENDMDL
MODEL 7
REMARK VINA RESULT:      -8.3      2.232      3.568
REMARK  Name = 
REMARK  5 active torsions:
REMARK  status: ('A' for Active; 'I' for Inactive)
REMARK    1  A    between atoms: C_1  and  S_2
REMARK    2  A    between atoms: S_2  and  C_5
REMARK    3  A    between atoms: N_13  and  C_14
REMARK    4  A    between atoms: C_18  and  N_19
REMARK    5  A    between atoms: C_20  and  C_22
REMARK                            x       y       z     vdW  Elec       q    Type
REMARK                         _______ _______ _______ _____ _____    ______ ____
ROOT
ATOM      1  C   UNL     1       5.431   5.037  17.638  0.00  0.00    +0.000 A 
ATOM      2  C   UNL     1       5.287   3.686  17.930  0.00  0.00    +0.000 A 
ATOM      3  C   UNL     1       4.261   3.288  18.792  0.00  0.00    +0.000 A 
ATOM      4  C   UNL     1       3.376   4.203  19.363  0.00  0.00    +0.000 A 
ATOM      5  N   UNL     1       2.414   3.736  20.159  0.00  0.00    +0.000 NA
ATOM      6  C   UNL     1       1.556   4.636  20.653  0.00  0.00    +0.000 A 
ATOM      7  N   UNL     1       1.561   5.950  20.411  0.00  0.00    +0.000 NA
ATOM      8  C   UNL     1       2.546   6.419  19.623  0.00  0.00    +0.000 A 
ATOM      9  N   UNL     1       2.568   7.804  19.324  0.00  0.00    +0.000 N 
ATOM     10  C   UNL     1       3.523   5.567  19.065  0.00  0.00    +0.000 A 
ATOM     11  C   UNL     1       4.575   5.980  18.211  0.00  0.00    +0.000 A 
ATOM     12  H   UNL     1       3.438   8.239  19.604  0.00  0.00    +0.000 HD
ENDROOT
BRANCH   9  13
ATOM     13  C   UNL     1       1.474   8.685  19.176  0.00  0.00    +0.000 A 
ATOM     14  C   UNL     1       1.052   9.107  17.909  0.00  0.00    +0.000 A 
ATOM     15  C   UNL     1       0.109  10.118  17.768  0.00  0.00    +0.000 A 
ATOM     16  C   UNL     1      -0.459  10.705  18.901  0.00  0.00    +0.000 A 
ATOM     17  C   UNL     1      -0.130  10.252  20.181  0.00  0.00    +0.000 A 
ATOM     18  C   UNL     1       0.850   9.252  20.307  0.00  0.00    +0.000 A 
BRANCH  17  19
ATOM     19  N   UNL     1      -0.745  10.763  21.353  0.00  0.00    +0.000 N 
ATOM     20  C   UNL     1      -0.425  11.946  21.996  0.00  0.00    +0.000 C 
ATOM     21  O   UNL     1       0.465  12.733  21.692  0.00  0.00    +0.000 OA
ATOM     22  H   UNL     1      -1.500  10.216  21.744  0.00  0.00    +0.000 HD
BRANCH  20  23
ATOM     23  C   UNL     1      -1.254  12.242  23.206  0.00  0.00    +0.000 C 
ATOM     24  C   UNL     1      -2.668  12.770  23.034  0.00  0.00    +0.000 C 
ATOM     25  C   UNL     1      -1.586  13.683  23.531  0.00  0.00    +0.000 C 
ENDBRANCH  20  23
ENDBRANCH  17  19
ENDBRANCH   9  13
BRANCH   1  27
ATOM     26  C   UNL     1       7.390   6.995  17.382  0.00  0.00    +0.000 C 
ATOM     27  S   UNL     1       6.721   5.581  16.544  0.00  0.00    +0.000 S 
ATOM     28  O   UNL     1       6.092   6.032  15.318  0.00  0.00    +0.000 OA
ATOM     29  O   UNL     1       7.730   4.539  16.527  0.00  0.00    +0.000 OA
ENDBRANCH   1  27
TORSDOF 4
ENDMDL
MODEL 8
REMARK VINA RESULT:      -8.2      2.537      2.914
REMARK  Name = 
REMARK  5 active torsions:
REMARK  status: ('A' for Active; 'I' for Inactive)
REMARK    1  A    between atoms: C_1  and  S_2
REMARK    2  A    between atoms: S_2  and  C_5
REMARK    3  A    between atoms: N_13  and  C_14
REMARK    4  A    between atoms: C_18  and  N_19
REMARK    5  A    between atoms: C_20  and  C_22
REMARK                            x       y       z     vdW  Elec       q    Type
REMARK                         _______ _______ _______ _____ _____    ______ ____
ROOT
ATOM      1  C   UNL     1       4.696   4.793  17.082  0.00  0.00    +0.000 A 
ATOM      2  C   UNL     1       4.323   3.475  16.848  0.00  0.00    +0.000 A 
ATOM      3  C   UNL     1       3.317   2.909  17.635  0.00  0.00    +0.000 A 
ATOM      4  C   UNL     1       2.672   3.626  18.643  0.00  0.00    +0.000 A 
ATOM      5  N   UNL     1       1.709   3.015  19.334  0.00  0.00    +0.000 NA
ATOM      6  C   UNL     1       1.082   3.747  20.262  0.00  0.00    +0.000 A 
ATOM      7  N   UNL     1       1.317   5.030  20.550  0.00  0.00    +0.000 NA
ATOM      8  C   UNL     1       2.302   5.637  19.863  0.00  0.00    +0.000 A 
ATOM      9  N   UNL     1       2.562   7.006  20.122  0.00  0.00    +0.000 N 
ATOM     10  C   UNL     1       3.050   4.958  18.876  0.00  0.00    +0.000 A 
ATOM     11  C   UNL     1       4.085   5.531  18.099  0.00  0.00    +0.000 A 
ATOM     12  H   UNL     1       3.519   7.163  20.412  0.00  0.00    +0.000 HD
ENDROOT
BRANCH   9  13
ATOM     13  C   UNL     1       1.646   8.014  20.496  0.00  0.00    +0.000 A 
ATOM     14  C   UNL     1       0.669   7.779  21.470  0.00  0.00    +0.000 A 
ATOM     15  C   UNL     1      -0.350   8.696  21.699  0.00  0.00    +0.000 A 
ATOM     16  C   UNL     1      -0.390   9.890  20.976  0.00  0.00    +0.000 A 
ATOM     17  C   UNL     1       0.616  10.202  20.057  0.00  0.00    +0.000 A 
ATOM     18  C   UNL     1       1.621   9.249  19.814  0.00  0.00    +0.000 A 
BRANCH  17  19
ATOM     19  N   UNL     1       0.659  11.439  19.364  0.00  0.00    +0.000 N 
ATOM     20  C   UNL     1       1.195  12.624  19.839  0.00  0.00    +0.000 C 
ATOM     21  O   UNL     1       1.684  12.821  20.946  0.00  0.00    +0.000 OA
ATOM     22  H   UNL     1       0.276  11.449  18.429  0.00  0.00    +0.000 HD
BRANCH  20  23
ATOM     23  C   UNL     1       1.118  13.771  18.881  0.00  0.00    +0.000 C 
ATOM     24  C   UNL     1       2.399  14.394  18.354  0.00  0.00    +0.000 C 
ATOM     25  C   UNL     1       1.558  15.143  19.345  0.00  0.00    +0.000 C 
ENDBRANCH  20  23
ENDBRANCH  17  19
ENDBRANCH   9  13
BRANCH   1  27
ATOM     26  C   UNL     1       6.233   4.363  14.804  0.00  0.00    +0.000 C 
ATOM     27  S   UNL     1       5.969   5.548  16.099  0.00  0.00    +0.000 S 
ATOM     28  O   UNL     1       7.169   5.611  16.912  0.00  0.00    +0.000 OA
ATOM     29  O   UNL     1       5.399   6.747  15.515  0.00  0.00    +0.000 OA
ENDBRANCH   1  27
TORSDOF 4
ENDMDL
MODEL 9
REMARK VINA RESULT:      -7.8      2.097      3.369
REMARK  Name = 
REMARK  5 active torsions:
REMARK  status: ('A' for Active; 'I' for Inactive)
REMARK    1  A    between atoms: C_1  and  S_2
REMARK    2  A    between atoms: S_2  and  C_5
REMARK    3  A    between atoms: N_13  and  C_14
REMARK    4  A    between atoms: C_18  and  N_19
REMARK    5  A    between atoms: C_20  and  C_22
REMARK                            x       y       z     vdW  Elec       q    Type
REMARK                         _______ _______ _______ _____ _____    ______ ____
ROOT
ATOM      1  C   UNL     1       4.880   5.450  17.102  0.00  0.00    +0.000 A 
ATOM      2  C   UNL     1       4.920   4.177  17.656  0.00  0.00    +0.000 A 
ATOM      3  C   UNL     1       4.146   3.909  18.789  0.00  0.00    +0.000 A 
ATOM      4  C   UNL     1       3.331   4.878  19.375  0.00  0.00    +0.000 A 
ATOM      5  N   UNL     1       2.610   4.533  20.442  0.00  0.00    +0.000 NA
ATOM      6  C   UNL     1       1.806   5.473  20.951  0.00  0.00    +0.000 A 
ATOM      7  N   UNL     1       1.645   6.714  20.484  0.00  0.00    +0.000 NA
ATOM      8  C   UNL     1       2.389   7.064  19.419  0.00  0.00    +0.000 A 
ATOM      9  N   UNL     1       2.226   8.365  18.880  0.00  0.00    +0.000 N 
ATOM     10  C   UNL     1       3.291   6.163  18.812  0.00  0.00    +0.000 A 
ATOM     11  C   UNL     1       4.091   6.449  17.679  0.00  0.00    +0.000 A 
ATOM     12  H   UNL     1       3.095   8.883  18.868  0.00  0.00    +0.000 HD
ENDROOT
BRANCH   9  13
ATOM     13  C   UNL     1       1.054   9.152  18.833  0.00  0.00    +0.000 A 
ATOM     14  C   UNL     1       0.218   9.138  17.710  0.00  0.00    +0.000 A 
ATOM     15  C   UNL     1      -0.823  10.049  17.580  0.00  0.00    +0.000 A 
ATOM     16  C   UNL     1      -1.069  10.976  18.595  0.00  0.00    +0.000 A 
ATOM     17  C   UNL     1      -0.313  10.966  19.770  0.00  0.00    +0.000 A 
ATOM     18  C   UNL     1       0.756  10.059  19.871  0.00  0.00    +0.000 A 
BRANCH  17  19
ATOM     19  N   UNL     1      -0.584  11.833  20.859  0.00  0.00    +0.000 N 
ATOM     20  C   UNL     1      -0.894  11.449  22.153  0.00  0.00    +0.000 C 
ATOM     21  O   UNL     1      -1.027  10.304  22.570  0.00  0.00    +0.000 OA
ATOM     22  H   UNL     1      -0.530  12.825  20.674  0.00  0.00    +0.000 HD
BRANCH  20  23
ATOM     23  C   UNL     1      -1.116  12.584  23.104  0.00  0.00    +0.000 C 
ATOM     24  C   UNL     1      -2.528  13.077  23.364  0.00  0.00    +0.000 C 
ATOM     25  C   UNL     1      -1.583  13.916  22.557  0.00  0.00    +0.000 C 
ENDBRANCH  20  23
ENDBRANCH  17  19
ENDBRANCH   9  13
BRANCH   1  27
ATOM     26  C   UNL     1       5.651   4.378  14.654  0.00  0.00    +0.000 C 
ATOM     27  S   UNL     1       5.848   5.827  15.660  0.00  0.00    +0.000 S 
ATOM     28  O   UNL     1       7.235   5.910  16.075  0.00  0.00    +0.000 OA
ATOM     29  O   UNL     1       5.200   6.940  14.993  0.00  0.00    +0.000 OA
ENDBRANCH   1  27
TORSDOF 4
ENDMDL
