MODEL 1
REMARK VINA RESULT:      -9.7      0.000      0.000
REMARK  Name = 
REMARK  6 active torsions:
REMARK  status: ('A' for Active; 'I' for Inactive)
REMARK    1  A    between atoms: C_2  and  C_3
REMARK    2  A    between atoms: C_3  and  N_4
REMARK    3  A    between atoms: N_4  and  C_5
REMARK    4  A    between atoms: N_15  and  C_16
REMARK    5  A    between atoms: C_20  and  S_21
REMARK    6  A    between atoms: S_21  and  N_24
REMARK                            x       y       z     vdW  Elec       q    Type
REMARK                         _______ _______ _______ _____ _____    ______ ____
ROOT
ATOM      1  O   UNL     1       8.364   7.026  18.774  0.00  0.00    +0.000 OA
ATOM      2  C   UNL     1       7.886   7.881  18.031  0.00  0.00    +0.000 C 
ATOM      3  N   UNL     1       6.933   7.646  17.041  0.00  0.00    +0.000 N 
ATOM      4  H   UNL     1       6.827   8.352  16.322  0.00  0.00    +0.000 HD
ENDROOT
BRANCH   3   5
ATOM      5  C   UNL     1       6.278   6.407  16.835  0.00  0.00    +0.000 A 
ATOM      6  C   UNL     1       6.851   5.385  16.068  0.00  0.00    +0.000 A 
ATOM      7  C   UNL     1       6.136   4.236  15.738  0.00  0.00    +0.000 A 
ATOM      8  C   UNL     1       4.851   4.061  16.232  0.00  0.00    +0.000 A 
ATOM      9  C   UNL     1       4.326   5.000  17.124  0.00  0.00    +0.000 A 
ATOM     10  C   UNL     1       5.019   6.189  17.408  0.00  0.00    +0.000 A 
BRANCH   9  11
ATOM     11  S   UNL     1       2.727   4.677  17.847  0.00  0.00    +0.000 S 
ATOM     12  O   UNL     1       2.086   5.963  18.058  0.00  0.00    +0.000 OA
ATOM     13  O   UNL     1       2.093   3.649  17.051  0.00  0.00    +0.000 OA
BRANCH  11  14
ATOM     14  N   UNL     1       3.097   4.014  19.361  0.00  0.00    +0.000 NA
ATOM     15  C   UNL     1       2.964   2.561  19.560  0.00  0.00    +0.000 C 
ATOM     16  C   UNL     1       1.757   2.421  20.465  0.00  0.00    +0.000 C 
ATOM     17  C   UNL     1       1.831   3.639  21.369  0.00  0.00    +0.000 C 
ATOM     18  C   UNL     1       2.610   4.693  20.584  0.00  0.00    +0.000 C 
ENDBRANCH  11  14
ENDBRANCH   9  11
ENDBRANCH   3   5
BRANCH   2  19
ATOM     19  C   UNL     1       8.323   9.342  18.156  0.00  0.00    +0.000 C 
BRANCH  19  20
ATOM     20  N   UNL     1       9.407   9.522  19.135  0.00  0.00    +0.000 N 
ATOM     21  H   UNL     1      10.284   9.112  18.841  0.00  0.00    +0.000 HD
BRANCH  20  22
ATOM     22  C   UNL     1       9.537  10.793  19.732  0.00  0.00    +0.000 A 
ATOM     23  C   UNL     1       9.071  11.012  21.042  0.00  0.00    +0.000 A 
ATOM     24  C   UNL     1       9.200  12.243  21.679  0.00  0.00    +0.000 A 
ATOM     25  C   UNL     1       9.836  13.287  21.032  0.00  0.00    +0.000 A 
ATOM     26  C   UNL     1      10.384  13.097  19.757  0.00  0.00    +0.000 A 
ATOM     27  C   UNL     1      10.238  11.849  19.094  0.00  0.00    +0.000 A 
ATOM     28  C   UNL     1      10.901  11.655  17.743  0.00  0.00    +0.000 C 
ATOM     29  C   UNL     1      11.250  12.958  17.021  0.00  0.00    +0.000 C 
ATOM     30  C   UNL     1      11.977  13.908  17.956  0.00  0.00    +0.000 C 
ATOM     31  C   UNL     1      11.070  14.283  19.117  0.00  0.00    +0.000 C 
ENDBRANCH  20  22
ENDBRANCH  19  20
ENDBRANCH   2  19
TORSDOF 6
ENDMDL
MODEL 2
REMARK VINA RESULT:      -9.4      0.710      2.146
REMARK  Name = 
REMARK  6 active torsions:
REMARK  status: ('A' for Active; 'I' for Inactive)
REMARK    1  A    between atoms: C_2  and  C_3
REMARK    2  A    between atoms: C_3  and  N_4
REMARK    3  A    between atoms: N_4  and  C_5
REMARK    4  A    between atoms: N_15  and  C_16
REMARK    5  A    between atoms: C_20  and  S_21
REMARK    6  A    between atoms: S_21  and  N_24
REMARK                            x       y       z     vdW  Elec       q    Type
REMARK                         _______ _______ _______ _____ _____    ______ ____
ROOT
ATOM      1  O   UNL     1       8.314   7.081  18.872  0.00  0.00    +0.000 OA
ATOM      2  C   UNL     1       7.940   7.889  18.023  0.00  0.00    +0.000 C 
ATOM      3  N   UNL     1       7.020   7.623  17.010  0.00  0.00    +0.000 N 
ATOM      4  H   UNL     1       7.003   8.258  16.220  0.00  0.00    +0.000 HD
ENDROOT
BRANCH   3   5
ATOM      5  C   UNL     1       6.281   6.420  16.890  0.00  0.00    +0.000 A 
ATOM      6  C   UNL     1       6.793   5.301  16.222  0.00  0.00    +0.000 A 
ATOM      7  C   UNL     1       6.003   4.182  15.970  0.00  0.00    +0.000 A 
ATOM      8  C   UNL     1       4.700   4.139  16.448  0.00  0.00    +0.000 A 
ATOM      9  C   UNL     1       4.229   5.182  17.249  0.00  0.00    +0.000 A 
ATOM     10  C   UNL     1       5.000   6.340  17.451  0.00  0.00    +0.000 A 
BRANCH   9  11
ATOM     11  S   UNL     1       2.599   5.033  17.959  0.00  0.00    +0.000 S 
ATOM     12  O   UNL     1       2.004   6.358  17.947  0.00  0.00    +0.000 OA
ATOM     13  O   UNL     1       1.946   3.917  17.312  0.00  0.00    +0.000 OA
BRANCH  11  14
ATOM     14  N   UNL     1       2.900   4.603  19.569  0.00  0.00    +0.000 NA
ATOM     15  C   UNL     1       3.635   3.359  19.855  0.00  0.00    +0.000 C 
ATOM     16  C   UNL     1       2.584   2.434  20.435  0.00  0.00    +0.000 C 
ATOM     17  C   UNL     1       1.671   3.361  21.219  0.00  0.00    +0.000 C 
ATOM     18  C   UNL     1       1.813   4.734  20.566  0.00  0.00    +0.000 C 
ENDBRANCH  11  14
ENDBRANCH   9  11
ENDBRANCH   3   5
BRANCH   2  19
ATOM     19  C   UNL     1       8.482   9.319  18.028  0.00  0.00    +0.000 C 
BRANCH  19  20
ATOM     20  N   UNL     1       9.169   9.654  19.286  0.00  0.00    +0.000 N 
ATOM     21  H   UNL     1       9.706   8.886  19.666  0.00  0.00    +0.000 HD
BRANCH  20  22
ATOM     22  C   UNL     1       9.822  10.903  19.355  0.00  0.00    +0.000 A 
ATOM     23  C   UNL     1      10.617  11.348  18.281  0.00  0.00    +0.000 A 
ATOM     24  C   UNL     1      11.260  12.583  18.296  0.00  0.00    +0.000 A 
ATOM     25  C   UNL     1      11.095  13.428  19.379  0.00  0.00    +0.000 A 
ATOM     26  C   UNL     1      10.254  13.063  20.438  0.00  0.00    +0.000 A 
ATOM     27  C   UNL     1       9.611  11.796  20.437  0.00  0.00    +0.000 A 
ATOM     28  C   UNL     1       8.655  11.459  21.566  0.00  0.00    +0.000 C 
ATOM     29  C   UNL     1       8.844  12.308  22.825  0.00  0.00    +0.000 C 
ATOM     30  C   UNL     1       8.912  13.782  22.467  0.00  0.00    +0.000 C 
ATOM     31  C   UNL     1      10.121  14.042  21.582  0.00  0.00    +0.000 C 
ENDBRANCH  20  22
ENDBRANCH  19  20
ENDBRANCH   2  19
TORSDOF 6
ENDMDL
MODEL 3
REMARK VINA RESULT:      -9.0      1.511      2.690
REMARK  Name = 
REMARK  6 active torsions:
REMARK  status: ('A' for Active; 'I' for Inactive)
REMARK    1  A    between atoms: C_2  and  C_3
REMARK    2  A    between atoms: C_3  and  N_4
REMARK    3  A    between atoms: N_4  and  C_5
REMARK    4  A    between atoms: N_15  and  C_16
REMARK    5  A    between atoms: C_20  and  S_21
REMARK    6  A    between atoms: S_21  and  N_24
REMARK                            x       y       z     vdW  Elec       q    Type
REMARK                         _______ _______ _______ _____ _____    ______ ____
ROOT
ATOM      1  O   UNL     1       8.283   6.952  18.685  0.00  0.00    +0.000 OA
ATOM      2  C   UNL     1       7.790   7.749  17.889  0.00  0.00    +0.000 C 
ATOM      3  N   UNL     1       6.924   7.417  16.848  0.00  0.00    +0.000 N 
ATOM      4  H   UNL     1       6.812   8.095  16.104  0.00  0.00    +0.000 HD
ENDROOT
BRANCH   3   5
ATOM      5  C   UNL     1       6.381   6.126  16.636  0.00  0.00    +0.000 A 
ATOM      6  C   UNL     1       6.482   5.473  15.401  0.00  0.00    +0.000 A 
ATOM      7  C   UNL     1       5.809   4.279  15.154  0.00  0.00    +0.000 A 
ATOM      8  C   UNL     1       5.076   3.680  16.170  0.00  0.00    +0.000 A 
ATOM      9  C   UNL     1       5.095   4.239  17.450  0.00  0.00    +0.000 A 
ATOM     10  C   UNL     1       5.719   5.476  17.686  0.00  0.00    +0.000 A 
BRANCH   9  11
ATOM     11  S   UNL     1       4.256   3.373  18.764  0.00  0.00    +0.000 S 
ATOM     12  O   UNL     1       3.824   2.094  18.226  0.00  0.00    +0.000 OA
ATOM     13  O   UNL     1       5.101   3.441  19.936  0.00  0.00    +0.000 OA
BRANCH  11  14
ATOM     14  N   UNL     1       2.880   4.317  19.054  0.00  0.00    +0.000 NA
ATOM     15  C   UNL     1       2.168   4.919  17.914  0.00  0.00    +0.000 C 
ATOM     16  C   UNL     1       2.470   6.399  18.031  0.00  0.00    +0.000 C 
ATOM     17  C   UNL     1       2.528   6.646  19.529  0.00  0.00    +0.000 C 
ATOM     18  C   UNL     1       2.903   5.305  20.156  0.00  0.00    +0.000 C 
ENDBRANCH  11  14
ENDBRANCH   9  11
ENDBRANCH   3   5
BRANCH   2  19
ATOM     19  C   UNL     1       8.105   9.243  17.999  0.00  0.00    +0.000 C 
BRANCH  19  20
ATOM     20  N   UNL     1       9.022   9.542  19.110  0.00  0.00    +0.000 N 
ATOM     21  H   UNL     1       9.584   8.749  19.391  0.00  0.00    +0.000 HD
BRANCH  20  22
ATOM     22  C   UNL     1       9.732  10.759  19.055  0.00  0.00    +0.000 A 
ATOM     23  C   UNL     1      10.435  11.118  17.889  0.00  0.00    +0.000 A 
ATOM     24  C   UNL     1      11.130  12.319  17.780  0.00  0.00    +0.000 A 
ATOM     25  C   UNL     1      11.110  13.219  18.831  0.00  0.00    +0.000 A 
ATOM     26  C   UNL     1      10.364  12.942  19.983  0.00  0.00    +0.000 A 
ATOM     27  C   UNL     1       9.669  11.709  20.107  0.00  0.00    +0.000 A 
ATOM     28  C   UNL     1       8.815  11.469  21.339  0.00  0.00    +0.000 C 
ATOM     29  C   UNL     1       9.165  12.364  22.530  0.00  0.00    +0.000 C 
ATOM     30  C   UNL     1       9.262  13.815  22.095  0.00  0.00    +0.000 C 
ATOM     31  C   UNL     1      10.387  13.977  21.085  0.00  0.00    +0.000 C 
ENDBRANCH  20  22
ENDBRANCH  19  20
ENDBRANCH   2  19
TORSDOF 6
ENDMDL
MODEL 4
REMARK VINA RESULT:      -8.8      1.002      2.348
REMARK  Name = 
REMARK  6 active torsions:
REMARK  status: ('A' for Active; 'I' for Inactive)
REMARK    1  A    between atoms: C_2  and  C_3
REMARK    2  A    between atoms: C_3  and  N_4
REMARK    3  A    between atoms: N_4  and  C_5
REMARK    4  A    between atoms: N_15  and  C_16
REMARK    5  A    between atoms: C_20  and  S_21
REMARK    6  A    between atoms: S_21  and  N_24
REMARK                            x       y       z     vdW  Elec       q    Type
REMARK                         _______ _______ _______ _____ _____    ______ ____
ROOT
ATOM      1  O   UNL     1       8.283   6.996  18.787  0.00  0.00    +0.000 OA
ATOM      2  C   UNL     1       7.864   7.768  17.927  0.00  0.00    +0.000 C 
ATOM      3  N   UNL     1       7.091   7.405  16.825  0.00  0.00    +0.000 N 
ATOM      4  H   UNL     1       7.047   8.059  16.053  0.00  0.00    +0.000 HD
ENDROOT
BRANCH   3   5
ATOM      5  C   UNL     1       6.563   6.108  16.607  0.00  0.00    +0.000 A 
ATOM      6  C   UNL     1       7.118   5.231  15.666  0.00  0.00    +0.000 A 
ATOM      7  C   UNL     1       6.500   4.026  15.344  0.00  0.00    +0.000 A 
ATOM      8  C   UNL     1       5.345   3.645  16.015  0.00  0.00    +0.000 A 
ATOM      9  C   UNL     1       4.869   4.436  17.064  0.00  0.00    +0.000 A 
ATOM     10  C   UNL     1       5.453   5.683  17.348  0.00  0.00    +0.000 A 
BRANCH   9  11
ATOM     11  S   UNL     1       3.464   3.851  17.994  0.00  0.00    +0.000 S 
ATOM     12  O   UNL     1       2.279   4.133  17.203  0.00  0.00    +0.000 OA
ATOM     13  O   UNL     1       3.766   2.506  18.432  0.00  0.00    +0.000 OA
BRANCH  11  14
ATOM     14  N   UNL     1       3.441   4.853  19.359  0.00  0.00    +0.000 NA
ATOM     15  C   UNL     1       2.922   4.321  20.631  0.00  0.00    +0.000 C 
ATOM     16  C   UNL     1       1.604   5.043  20.823  0.00  0.00    +0.000 C 
ATOM     17  C   UNL     1       1.854   6.426  20.245  0.00  0.00    +0.000 C 
ATOM     18  C   UNL     1       2.974   6.251  19.220  0.00  0.00    +0.000 C 
ENDBRANCH  11  14
ENDBRANCH   9  11
ENDBRANCH   3   5
BRANCH   2  19
ATOM     19  C   UNL     1       8.174   9.264  18.018  0.00  0.00    +0.000 C 
BRANCH  19  20
ATOM     20  N   UNL     1       9.074   9.583  19.137  0.00  0.00    +0.000 N 
ATOM     21  H   UNL     1       9.639   8.798  19.434  0.00  0.00    +0.000 HD
BRANCH  20  22
ATOM     22  C   UNL     1       9.775  10.806  19.077  0.00  0.00    +0.000 A 
ATOM     23  C   UNL     1      10.484  11.161  17.913  0.00  0.00    +0.000 A 
ATOM     24  C   UNL     1      11.170  12.367  17.800  0.00  0.00    +0.000 A 
ATOM     25  C   UNL     1      11.135  13.275  18.843  0.00  0.00    +0.000 A 
ATOM     26  C   UNL     1      10.382  13.001  19.992  0.00  0.00    +0.000 A 
ATOM     27  C   UNL     1       9.697  11.763  20.121  0.00  0.00    +0.000 A 
ATOM     28  C   UNL     1       8.836  11.526  21.348  0.00  0.00    +0.000 C 
ATOM     29  C   UNL     1       9.170  12.434  22.534  0.00  0.00    +0.000 C 
ATOM     30  C   UNL     1       9.258  13.883  22.089  0.00  0.00    +0.000 C 
ATOM     31  C   UNL     1      10.389  14.045  21.085  0.00  0.00    +0.000 C 
ENDBRANCH  20  22
ENDBRANCH  19  20
ENDBRANCH   2  19
TORSDOF 6
ENDMDL
MODEL 5
REMARK VINA RESULT:      -8.6      1.673      1.880
REMARK  Name = 
REMARK  6 active torsions:
REMARK  status: ('A' for Active; 'I' for Inactive)
REMARK    1  A    between atoms: C_2  and  C_3
REMARK    2  A    between atoms: C_3  and  N_4
REMARK    3  A    between atoms: N_4  and  C_5
REMARK    4  A    between atoms: N_15  and  C_16
REMARK    5  A    between atoms: C_20  and  S_21
REMARK    6  A    between atoms: S_21  and  N_24
REMARK                            x       y       z     vdW  Elec       q    Type
REMARK                         _______ _______ _______ _____ _____    ______ ____
ROOT
ATOM      1  O   UNL     1       6.636   8.216  16.918  0.00  0.00    +0.000 OA
ATOM      2  C   UNL     1       7.439   7.688  17.686  0.00  0.00    +0.000 C 
ATOM      3  N   UNL     1       7.522   6.322  17.949  0.00  0.00    +0.000 N 
ATOM      4  H   UNL     1       8.015   6.040  18.789  0.00  0.00    +0.000 HD
ENDROOT
BRANCH   3   5
ATOM      5  C   UNL     1       6.780   5.326  17.268  0.00  0.00    +0.000 A 
ATOM      6  C   UNL     1       7.169   4.841  16.013  0.00  0.00    +0.000 A 
ATOM      7  C   UNL     1       6.352   3.983  15.280  0.00  0.00    +0.000 A 
ATOM      8  C   UNL     1       5.156   3.540  15.828  0.00  0.00    +0.000 A 
ATOM      9  C   UNL     1       4.831   3.891  17.140  0.00  0.00    +0.000 A 
ATOM     10  C   UNL     1       5.620   4.807  17.857  0.00  0.00    +0.000 A 
BRANCH   9  11
ATOM     11  S   UNL     1       3.355   3.195  17.861  0.00  0.00    +0.000 S 
ATOM     12  O   UNL     1       2.231   3.656  17.066  0.00  0.00    +0.000 OA
ATOM     13  O   UNL     1       3.597   1.783  18.061  0.00  0.00    +0.000 OA
BRANCH  11  14
ATOM     14  N   UNL     1       3.266   3.931  19.384  0.00  0.00    +0.000 NA
ATOM     15  C   UNL     1       3.021   3.096  20.572  0.00  0.00    +0.000 C 
ATOM     16  C   UNL     1       1.606   3.448  20.986  0.00  0.00    +0.000 C 
ATOM     17  C   UNL     1       1.482   4.925  20.651  0.00  0.00    +0.000 C 
ATOM     18  C   UNL     1       2.491   5.184  19.534  0.00  0.00    +0.000 C 
ENDBRANCH  11  14
ENDBRANCH   9  11
ENDBRANCH   3   5
BRANCH   2  19
ATOM     19  C   UNL     1       8.461   8.543  18.439  0.00  0.00    +0.000 C 
BRANCH  19  20
ATOM     20  N   UNL     1       8.593   9.892  17.868  0.00  0.00    +0.000 N 
ATOM     21  H   UNL     1       7.796  10.173  17.312  0.00  0.00    +0.000 HD
BRANCH  20  22
ATOM     22  C   UNL     1       9.091  10.907  18.712  0.00  0.00    +0.000 A 
ATOM     23  C   UNL     1      10.036  10.600  19.710  0.00  0.00    +0.000 A 
ATOM     24  C   UNL     1      10.571  11.573  20.549  0.00  0.00    +0.000 A 
ATOM     25  C   UNL     1      10.201  12.896  20.389  0.00  0.00    +0.000 A 
ATOM     26  C   UNL     1       9.322  13.263  19.362  0.00  0.00    +0.000 A 
ATOM     27  C   UNL     1       8.757  12.272  18.515  0.00  0.00    +0.000 A 
ATOM     28  C   UNL     1       7.861  12.710  17.371  0.00  0.00    +0.000 C 
ATOM     29  C   UNL     1       7.277  14.115  17.532  0.00  0.00    +0.000 C 
ATOM     30  C   UNL     1       8.367  15.106  17.902  0.00  0.00    +0.000 C 
ATOM     31  C   UNL     1       8.970  14.729  19.246  0.00  0.00    +0.000 C 
ENDBRANCH  20  22
ENDBRANCH  19  20
ENDBRANCH   2  19
TORSDOF 6
ENDMDL
MODEL 6
REMARK VINA RESULT:      -8.6      5.489      8.166
REMARK  Name = 
REMARK  6 active torsions:
REMARK  status: ('A' for Active; 'I' for Inactive)
REMARK    1  A    between atoms: C_2  and  C_3
REMARK    2  A    between atoms: C_3  and  N_4
REMARK    3  A    between atoms: N_4  and  C_5
REMARK    4  A    between atoms: N_15  and  C_16
REMARK    5  A    between atoms: C_20  and  S_21
REMARK    6  A    between atoms: S_21  and  N_24
REMARK                            x       y       z     vdW  Elec       q    Type
REMARK                         _______ _______ _______ _____ _____    ______ ____
ROOT
ATOM      1  O   UNL     1       2.015   7.681  19.651  0.00  0.00    +0.000 OA
ATOM      2  C   UNL     1       2.300   8.137  18.545  0.00  0.00    +0.000 C 
ATOM      3  N   UNL     1       3.233   7.591  17.666  0.00  0.00    +0.000 N 
ATOM      4  H   UNL     1       3.583   8.191  16.929  0.00  0.00    +0.000 HD
ENDROOT
BRANCH   3   5
ATOM      5  C   UNL     1       3.895   6.353  17.863  0.00  0.00    +0.000 A 
ATOM      6  C   UNL     1       5.284   6.273  18.023  0.00  0.00    +0.000 A 
ATOM      7  C   UNL     1       5.942   5.047  18.056  0.00  0.00    +0.000 A 
ATOM      8  C   UNL     1       5.206   3.871  17.998  0.00  0.00    +0.000 A 
ATOM      9  C   UNL     1       3.810   3.935  17.995  0.00  0.00    +0.000 A 
ATOM     10  C   UNL     1       3.146   5.170  17.898  0.00  0.00    +0.000 A 
BRANCH   9  11
ATOM     11  S   UNL     1       2.893   2.406  18.058  0.00  0.00    +0.000 S 
ATOM     12  O   UNL     1       1.815   2.513  17.091  0.00  0.00    +0.000 OA
ATOM     13  O   UNL     1       3.851   1.324  17.990  0.00  0.00    +0.000 OA
BRANCH  11  14
ATOM     14  N   UNL     1       2.215   2.407  19.610  0.00  0.00    +0.000 NA
ATOM     15  C   UNL     1       0.870   2.973  19.806  0.00  0.00    +0.000 C 
ATOM     16  C   UNL     1       1.117   4.259  20.567  0.00  0.00    +0.000 C 
ATOM     17  C   UNL     1       2.299   3.935  21.464  0.00  0.00    +0.000 C 
ATOM     18  C   UNL     1       3.054   2.807  20.763  0.00  0.00    +0.000 C 
ENDBRANCH  11  14
ENDBRANCH   9  11
ENDBRANCH   3   5
BRANCH   2  19
ATOM     19  C   UNL     1       1.605   9.399  18.029  0.00  0.00    +0.000 C 
BRANCH  19  20
ATOM     20  N   UNL     1       0.785  10.050  19.063  0.00  0.00    +0.000 N 
ATOM     21  H   UNL     1       1.293  10.739  19.602  0.00  0.00    +0.000 HD
BRANCH  20  22
ATOM     22  C   UNL     1      -0.518  10.450  18.700  0.00  0.00    +0.000 A 
ATOM     23  C   UNL     1      -1.120   9.933  17.537  0.00  0.00    +0.000 A 
ATOM     24  C   UNL     1      -2.412  10.281  17.153  0.00  0.00    +0.000 A 
ATOM     25  C   UNL     1      -3.157  11.134  17.947  0.00  0.00    +0.000 A 
ATOM     26  C   UNL     1      -2.630  11.616  19.153  0.00  0.00    +0.000 A 
ATOM     27  C   UNL     1      -1.305  11.281  19.539  0.00  0.00    +0.000 A 
ATOM     28  C   UNL     1      -0.789  11.763  20.882  0.00  0.00    +0.000 C 
ATOM     29  C   UNL     1      -1.563  12.948  21.464  0.00  0.00    +0.000 C 
ATOM     30  C   UNL     1      -3.057  12.685  21.414  0.00  0.00    +0.000 C 
ATOM     31  C   UNL     1      -3.507  12.539  19.968  0.00  0.00    +0.000 C 
ENDBRANCH  20  22
ENDBRANCH  19  20
ENDBRANCH   2  19
TORSDOF 6
ENDMDL
MODEL 7
REMARK VINA RESULT:      -8.4      5.695      8.837
REMARK  Name = 
REMARK  6 active torsions:
REMARK  status: ('A' for Active; 'I' for Inactive)
REMARK    1  A    between atoms: C_2  and  C_3
REMARK    2  A    between atoms: C_3  and  N_4
REMARK    3  A    between atoms: N_4  and  C_5
REMARK    4  A    between atoms: N_15  and  C_16
REMARK    5  A    between atoms: C_20  and  S_21
REMARK    6  A    between atoms: S_21  and  N_24
REMARK                            x       y       z     vdW  Elec       q    Type
REMARK                         _______ _______ _______ _____ _____    ______ ____
ROOT
ATOM      1  O   UNL     1       2.116   7.277  20.955  0.00  0.00    +0.000 OA
ATOM      2  C   UNL     1       1.907   7.999  19.982  0.00  0.00    +0.000 C 
ATOM      3  N   UNL     1       2.295   7.719  18.672  0.00  0.00    +0.000 N 
ATOM      4  H   UNL     1       2.321   8.494  18.020  0.00  0.00    +0.000 HD
ENDROOT
BRANCH   3   5
ATOM      5  C   UNL     1       2.873   6.496  18.250  0.00  0.00    +0.000 A 
ATOM      6  C   UNL     1       2.452   5.262  18.763  0.00  0.00    +0.000 A 
ATOM      7  C   UNL     1       3.130   4.083  18.464  0.00  0.00    +0.000 A 
ATOM      8  C   UNL     1       4.206   4.112  17.587  0.00  0.00    +0.000 A 
ATOM      9  C   UNL     1       4.538   5.309  16.949  0.00  0.00    +0.000 A 
ATOM     10  C   UNL     1       3.898   6.512  17.295  0.00  0.00    +0.000 A 
BRANCH   9  11
ATOM     11  S   UNL     1       5.836   5.284  15.725  0.00  0.00    +0.000 S 
ATOM     12  O   UNL     1       5.893   3.935  15.189  0.00  0.00    +0.000 OA
ATOM     13  O   UNL     1       5.634   6.423  14.857  0.00  0.00    +0.000 OA
BRANCH  11  14
ATOM     14  N   UNL     1       7.243   5.556  16.627  0.00  0.00    +0.000 NA
ATOM     15  C   UNL     1       7.613   4.603  17.687  0.00  0.00    +0.000 C 
ATOM     16  C   UNL     1       7.364   5.367  18.972  0.00  0.00    +0.000 C 
ATOM     17  C   UNL     1       7.728   6.800  18.625  0.00  0.00    +0.000 C 
ATOM     18  C   UNL     1       7.534   6.923  17.115  0.00  0.00    +0.000 C 
ENDBRANCH  11  14
ENDBRANCH   9  11
ENDBRANCH   3   5
BRANCH   2  19
ATOM     19  C   UNL     1       1.157   9.322  20.151  0.00  0.00    +0.000 C 
BRANCH  19  20
ATOM     20  N   UNL     1       0.359   9.670  18.965  0.00  0.00    +0.000 N 
ATOM     21  H   UNL     1       0.176   8.881  18.358  0.00  0.00    +0.000 HD
BRANCH  20  22
ATOM     22  C   UNL     1      -0.753  10.517  19.157  0.00  0.00    +0.000 A 
ATOM     23  C   UNL     1      -0.794  11.394  20.258  0.00  0.00    +0.000 A 
ATOM     24  C   UNL     1      -1.859  12.264  20.474  0.00  0.00    +0.000 A 
ATOM     25  C   UNL     1      -2.903  12.307  19.568  0.00  0.00    +0.000 A 
ATOM     26  C   UNL     1      -2.873  11.509  18.417  0.00  0.00    +0.000 A 
ATOM     27  C   UNL     1      -1.798  10.605  18.202  0.00  0.00    +0.000 A 
ATOM     28  C   UNL     1      -1.761   9.804  16.913  0.00  0.00    +0.000 C 
ATOM     29  C   UNL     1      -3.112   9.694  16.203  0.00  0.00    +0.000 C 
ATOM     30  C   UNL     1      -3.765  11.060  16.085  0.00  0.00    +0.000 C 
ATOM     31  C   UNL     1      -4.047  11.617  17.472  0.00  0.00    +0.000 C 
ENDBRANCH  20  22
ENDBRANCH  19  20
ENDBRANCH   2  19
TORSDOF 6
ENDMDL
MODEL 8
REMARK VINA RESULT:      -8.4      5.576      7.396
REMARK  Name = 
REMARK  6 active torsions:
REMARK  status: ('A' for Active; 'I' for Inactive)
REMARK    1  A    between atoms: C_2  and  C_3
REMARK    2  A    between atoms: C_3  and  N_4
REMARK    3  A    between atoms: N_4  and  C_5
REMARK    4  A    between atoms: N_15  and  C_16
REMARK    5  A    between atoms: C_20  and  S_21
REMARK    6  A    between atoms: S_21  and  N_24
REMARK                            x       y       z     vdW  Elec       q    Type
REMARK                         _______ _______ _______ _____ _____    ______ ____
ROOT
ATOM      1  O   UNL     1       1.564   7.453  18.189  0.00  0.00    +0.000 OA
ATOM      2  C   UNL     1       2.358   8.328  17.850  0.00  0.00    +0.000 C 
ATOM      3  N   UNL     1       3.656   8.105  17.390  0.00  0.00    +0.000 N 
ATOM      4  H   UNL     1       4.297   8.889  17.411  0.00  0.00    +0.000 HD
ENDROOT
BRANCH   3   5
ATOM      5  C   UNL     1       4.203   6.826  17.122  0.00  0.00    +0.000 A 
ATOM      6  C   UNL     1       5.071   6.604  16.045  0.00  0.00    +0.000 A 
ATOM      7  C   UNL     1       5.477   5.319  15.693  0.00  0.00    +0.000 A 
ATOM      8  C   UNL     1       5.072   4.236  16.462  0.00  0.00    +0.000 A 
ATOM      9  C   UNL     1       4.335   4.459  17.627  0.00  0.00    +0.000 A 
ATOM     10  C   UNL     1       3.871   5.746  17.950  0.00  0.00    +0.000 A 
BRANCH   9  11
ATOM     11  S   UNL     1       3.948   3.061  18.665  0.00  0.00    +0.000 S 
ATOM     12  O   UNL     1       3.643   1.947  17.784  0.00  0.00    +0.000 OA
ATOM     13  O   UNL     1       4.992   2.960  19.661  0.00  0.00    +0.000 OA
BRANCH  11  14
ATOM     14  N   UNL     1       2.520   3.524  19.448  0.00  0.00    +0.000 NA
ATOM     15  C   UNL     1       2.595   4.454  20.588  0.00  0.00    +0.000 C 
ATOM     16  C   UNL     1       2.263   3.593  21.789  0.00  0.00    +0.000 C 
ATOM     17  C   UNL     1       1.239   2.603  21.261  0.00  0.00    +0.000 C 
ATOM     18  C   UNL     1       1.502   2.496  19.760  0.00  0.00    +0.000 C 
ENDBRANCH  11  14
ENDBRANCH   9  11
ENDBRANCH   3   5
BRANCH   2  19
ATOM     19  C   UNL     1       1.950   9.802  17.904  0.00  0.00    +0.000 C 
BRANCH  19  20
ATOM     20  N   UNL     1       0.493   9.977  18.012  0.00  0.00    +0.000 N 
ATOM     21  H   UNL     1      -0.014   9.102  18.045  0.00  0.00    +0.000 HD
BRANCH  20  22
ATOM     22  C   UNL     1       0.022  10.950  18.917  0.00  0.00    +0.000 A 
ATOM     23  C   UNL     1      -0.436  12.195  18.446  0.00  0.00    +0.000 A 
ATOM     24  C   UNL     1      -0.932  13.175  19.301  0.00  0.00    +0.000 A 
ATOM     25  C   UNL     1      -1.017  12.922  20.658  0.00  0.00    +0.000 A 
ATOM     26  C   UNL     1      -0.644  11.671  21.168  0.00  0.00    +0.000 A 
ATOM     27  C   UNL     1      -0.119  10.674  20.302  0.00  0.00    +0.000 A 
ATOM     28  C   UNL     1       0.212   9.308  20.874  0.00  0.00    +0.000 C 
ATOM     29  C   UNL     1       0.399   9.291  22.393  0.00  0.00    +0.000 C 
ATOM     30  C   UNL     1      -0.751  10.007  23.079  0.00  0.00    +0.000 C 
ATOM     31  C   UNL     1      -0.772  11.468  22.660  0.00  0.00    +0.000 C 
ENDBRANCH  20  22
ENDBRANCH  19  20
ENDBRANCH   2  19
TORSDOF 6
ENDMDL
MODEL 9
REMARK VINA RESULT:      -8.3      5.066      8.035
REMARK  Name = 
REMARK  6 active torsions:
REMARK  status: ('A' for Active; 'I' for Inactive)
REMARK    1  A    between atoms: C_2  and  C_3
REMARK    2  A    between atoms: C_3  and  N_4
REMARK    3  A    between atoms: N_4  and  C_5
REMARK    4  A    between atoms: N_15  and  C_16
REMARK    5  A    between atoms: C_20  and  S_21
REMARK    6  A    between atoms: S_21  and  N_24
REMARK                            x       y       z     vdW  Elec       q    Type
REMARK                         _______ _______ _______ _____ _____    ______ ____
ROOT
ATOM      1  O   UNL     1       1.306   5.204  20.886  0.00  0.00    +0.000 OA
ATOM      2  C   UNL     1       1.717   6.329  20.606  0.00  0.00    +0.000 C 
ATOM      3  N   UNL     1       2.593   6.629  19.564  0.00  0.00    +0.000 N 
ATOM      4  H   UNL     1       3.073   7.520  19.605  0.00  0.00    +0.000 HD
ENDROOT
BRANCH   3   5
ATOM      5  C   UNL     1       3.034   5.698  18.592  0.00  0.00    +0.000 A 
ATOM      6  C   UNL     1       2.569   4.377  18.567  0.00  0.00    +0.000 A 
ATOM      7  C   UNL     1       3.124   3.428  17.712  0.00  0.00    +0.000 A 
ATOM      8  C   UNL     1       4.113   3.807  16.814  0.00  0.00    +0.000 A 
ATOM      9  C   UNL     1       4.476   5.153  16.721  0.00  0.00    +0.000 A 
ATOM     10  C   UNL     1       3.964   6.101  17.624  0.00  0.00    +0.000 A 
BRANCH   9  11
ATOM     11  S   UNL     1       5.649   5.628  15.464  0.00  0.00    +0.000 S 
ATOM     12  O   UNL     1       5.749   4.520  14.531  0.00  0.00    +0.000 OA
ATOM     13  O   UNL     1       5.286   6.953  15.012  0.00  0.00    +0.000 OA
BRANCH  11  14
ATOM     14  N   UNL     1       7.114   5.745  16.306  0.00  0.00    +0.000 NA
ATOM     15  C   UNL     1       7.573   4.602  17.112  0.00  0.00    +0.000 C 
ATOM     16  C   UNL     1       7.407   5.068  18.544  0.00  0.00    +0.000 C 
ATOM     17  C   UNL     1       7.723   6.553  18.486  0.00  0.00    +0.000 C 
ATOM     18  C   UNL     1       7.419   6.987  17.053  0.00  0.00    +0.000 C 
ENDBRANCH  11  14
ENDBRANCH   9  11
ENDBRANCH   3   5
BRANCH   2  19
ATOM     19  C   UNL     1       1.264   7.540  21.423  0.00  0.00    +0.000 C 
BRANCH  19  20
ATOM     20  N   UNL     1       0.851   8.667  20.572  0.00  0.00    +0.000 N 
ATOM     21  H   UNL     1       0.544   8.383  19.651  0.00  0.00    +0.000 HD
BRANCH  20  22
ATOM     22  C   UNL     1       0.048   9.666  21.162  0.00  0.00    +0.000 A 
ATOM     23  C   UNL     1      -0.249   9.615  22.538  0.00  0.00    +0.000 A 
ATOM     24  C   UNL     1      -1.017  10.591  23.168  0.00  0.00    +0.000 A 
ATOM     25  C   UNL     1      -1.482  11.672  22.441  0.00  0.00    +0.000 A 
ATOM     26  C   UNL     1      -1.151  11.807  21.086  0.00  0.00    +0.000 A 
ATOM     27  C   UNL     1      -0.384  10.804  20.434  0.00  0.00    +0.000 A 
ATOM     28  C   UNL     1       0.015  11.013  18.985  0.00  0.00    +0.000 C 
ATOM     29  C   UNL     1      -0.842  12.039  18.239  0.00  0.00    +0.000 C 
ATOM     30  C   UNL     1      -0.975  13.314  19.053  0.00  0.00    +0.000 C 
ATOM     31  C   UNL     1      -1.691  13.018  20.361  0.00  0.00    +0.000 C 
ENDBRANCH  20  22
ENDBRANCH  19  20
ENDBRANCH   2  19
TORSDOF 6
ENDMDL
