MODEL 1
REMARK VINA RESULT:      -9.2      0.000      0.000
REMARK  Name = 
REMARK  4 active torsions:
REMARK  status: ('A' for Active; 'I' for Inactive)
REMARK    1  A    between atoms: C_1  and  C_2
REMARK    2  A    between atoms: C_7  and  C_8
REMARK    3  A    between atoms: C_11  and  C_12
REMARK    4  A    between atoms: N_18  and  C_19
REMARK                            x       y       z     vdW  Elec       q    Type
REMARK                         _______ _______ _______ _____ _____    ______ ____
ROOT
ATOM      1  C   UNL     1       3.144   4.317  18.025  0.00  0.00    +0.000 C 
ATOM      2  C   UNL     1       3.873   3.588  19.191  0.00  0.00    +0.000 C 
ATOM      3  C   UNL     1       5.321   4.091  19.414  0.00  0.00    +0.000 C 
ATOM      4  C   UNL     1       5.997   4.305  18.114  0.00  0.00    +0.000 A 
ATOM      5  N   UNL     1       7.304   4.635  17.959  0.00  0.00    +0.000 NA
ATOM      6  N   UNL     1       7.513   4.839  16.662  0.00  0.00    +0.000 NA
ATOM      7  N   UNL     1       6.345   4.642  16.009  0.00  0.00    +0.000 N 
ATOM      8  C   UNL     1       5.360   4.309  16.892  0.00  0.00    +0.000 A 
ATOM      9  C   UNL     1       3.904   4.091  16.678  0.00  0.00    +0.000 C 
ENDROOT
BRANCH   7  10
ATOM     10  C   UNL     1       6.296   4.754  14.560  0.00  0.00    +0.000 C 
ATOM     11  C   UNL     1       5.855   3.429  13.924  0.00  0.00    +0.000 C 
ATOM     12  C   UNL     1       5.914   3.512  12.409  0.00  0.00    +0.000 C 
ATOM     13  O   UNL     1       7.213   3.906  11.977  0.00  0.00    +0.000 OA
ATOM     14  C   UNL     1       7.580   5.199  12.450  0.00  0.00    +0.000 C 
ATOM     15  C   UNL     1       7.631   5.225  13.970  0.00  0.00    +0.000 C 
ENDBRANCH   7  10
BRANCH   1  19
ATOM     16  C   UNL     1       2.343   7.686  18.858  0.00  0.00    +0.000 A 
ATOM     17  N   UNL     1       3.147   7.922  17.807  0.00  0.00    +0.000 NA
ATOM     18  O   UNL     1       3.612   6.653  17.452  0.00  0.00    +0.000 OA
ATOM     19  C   UNL     1       3.044   5.779  18.328  0.00  0.00    +0.000 A 
ATOM     20  N   UNL     1       2.316   6.367  19.244  0.00  0.00    +0.000 NA
BRANCH  16  27
ATOM     21  C   UNL     1       0.276   9.352  23.068  0.00  0.00    +0.000 C 
ATOM     22  C   UNL     1       0.466   9.480  21.585  0.00  0.00    +0.000 A 
ATOM     23  C   UNL     1      -0.141  10.511  20.862  0.00  0.00    +0.000 A 
ATOM     24  C   UNL     1       0.053  10.613  19.483  0.00  0.00    +0.000 A 
ATOM     25  C   UNL     1       0.860   9.690  18.819  0.00  0.00    +0.000 A 
ATOM     26  F   UNL     1       1.028   9.839  17.496  0.00  0.00    +0.000 F 
ATOM     27  C   UNL     1       1.489   8.659  19.513  0.00  0.00    +0.000 A 
ATOM     28  C   UNL     1       1.275   8.560  20.905  0.00  0.00    +0.000 A 
ENDBRANCH  16  27
ENDBRANCH   1  19
TORSDOF 3
ENDMDL
MODEL 2
REMARK VINA RESULT:      -8.7      0.950      1.611
REMARK  Name = 
REMARK  4 active torsions:
REMARK  status: ('A' for Active; 'I' for Inactive)
REMARK    1  A    between atoms: C_1  and  C_2
REMARK    2  A    between atoms: C_7  and  C_8
REMARK    3  A    between atoms: C_11  and  C_12
REMARK    4  A    between atoms: N_18  and  C_19
REMARK                            x       y       z     vdW  Elec       q    Type
REMARK                         _______ _______ _______ _____ _____    ______ ____
ROOT
ATOM      1  C   UNL     1       3.129   4.377  17.979  0.00  0.00    +0.000 C 
ATOM      2  C   UNL     1       3.842   3.644  19.153  0.00  0.00    +0.000 C 
ATOM      3  C   UNL     1       5.290   4.139  19.392  0.00  0.00    +0.000 C 
ATOM      4  C   UNL     1       5.981   4.350  18.099  0.00  0.00    +0.000 A 
ATOM      5  N   UNL     1       7.291   4.673  17.959  0.00  0.00    +0.000 NA
ATOM      6  N   UNL     1       7.515   4.876  16.665  0.00  0.00    +0.000 NA
ATOM      7  N   UNL     1       6.354   4.685  15.999  0.00  0.00    +0.000 N 
ATOM      8  C   UNL     1       5.358   4.358  16.871  0.00  0.00    +0.000 A 
ATOM      9  C   UNL     1       3.903   4.147  16.640  0.00  0.00    +0.000 C 
ENDROOT
BRANCH   7  10
ATOM     10  C   UNL     1       6.322   4.797  14.549  0.00  0.00    +0.000 C 
ATOM     11  C   UNL     1       5.881   3.475  13.908  0.00  0.00    +0.000 C 
ATOM     12  C   UNL     1       5.958   3.558  12.394  0.00  0.00    +0.000 C 
ATOM     13  O   UNL     1       7.263   3.945  11.977  0.00  0.00    +0.000 OA
ATOM     14  C   UNL     1       7.632   5.237  12.453  0.00  0.00    +0.000 C 
ATOM     15  C   UNL     1       7.666   5.262  13.974  0.00  0.00    +0.000 C 
ENDBRANCH   7  10
BRANCH   1  19
ATOM     16  C   UNL     1       2.343   7.744  18.829  0.00  0.00    +0.000 A 
ATOM     17  N   UNL     1       3.110   7.980  17.751  0.00  0.00    +0.000 NA
ATOM     18  O   UNL     1       3.568   6.713  17.384  0.00  0.00    +0.000 OA
ATOM     19  C   UNL     1       3.034   5.838  18.281  0.00  0.00    +0.000 A 
ATOM     20  N   UNL     1       2.334   6.427  19.220  0.00  0.00    +0.000 NA
BRANCH  16  27
ATOM     21  C   UNL     1      -0.268  11.977  18.615  0.00  0.00    +0.000 C 
ATOM     22  C   UNL     1       0.224  10.803  19.410  0.00  0.00    +0.000 A 
ATOM     23  C   UNL     1      -0.126  10.638  20.753  0.00  0.00    +0.000 A 
ATOM     24  C   UNL     1       0.340   9.536  21.472  0.00  0.00    +0.000 A 
ATOM     25  C   UNL     1       1.152   8.587  20.851  0.00  0.00    +0.000 A 
ATOM     26  F   UNL     1       1.561   7.537  21.579  0.00  0.00    +0.000 F 
ATOM     27  C   UNL     1       1.507   8.716  19.510  0.00  0.00    +0.000 A 
ATOM     28  C   UNL     1       1.040   9.841  18.798  0.00  0.00    +0.000 A 
ENDBRANCH  16  27
ENDBRANCH   1  19
TORSDOF 3
ENDMDL
MODEL 3
REMARK VINA RESULT:      -8.0      1.265      1.742
REMARK  Name = 
REMARK  4 active torsions:
REMARK  status: ('A' for Active; 'I' for Inactive)
REMARK    1  A    between atoms: C_1  and  C_2
REMARK    2  A    between atoms: C_7  and  C_8
REMARK    3  A    between atoms: C_11  and  C_12
REMARK    4  A    between atoms: N_18  and  C_19
REMARK                            x       y       z     vdW  Elec       q    Type
REMARK                         _______ _______ _______ _____ _____    ______ ____
ROOT
ATOM      1  C   UNL     1       4.946   4.200  18.654  0.00  0.00    +0.000 C 
ATOM      2  C   UNL     1       6.104   4.830  19.483  0.00  0.00    +0.000 C 
ATOM      3  C   UNL     1       6.801   6.008  18.758  0.00  0.00    +0.000 C 
ATOM      4  C   UNL     1       6.980   5.695  17.322  0.00  0.00    +0.000 A 
ATOM      5  N   UNL     1       7.655   6.467  16.434  0.00  0.00    +0.000 NA
ATOM      6  N   UNL     1       7.512   5.913  15.234  0.00  0.00    +0.000 NA
ATOM      7  N   UNL     1       6.750   4.805  15.368  0.00  0.00    +0.000 N 
ATOM      8  C   UNL     1       6.387   4.635  16.673  0.00  0.00    +0.000 A 
ATOM      9  C   UNL     1       5.487   3.632  17.302  0.00  0.00    +0.000 C 
ENDROOT
BRANCH   7  10
ATOM     10  C   UNL     1       6.472   3.971  14.210  0.00  0.00    +0.000 C 
ATOM     11  C   UNL     1       7.383   4.346  13.034  0.00  0.00    +0.000 C 
ATOM     12  C   UNL     1       7.015   3.555  11.792  0.00  0.00    +0.000 C 
ATOM     13  O   UNL     1       5.637   3.727  11.476  0.00  0.00    +0.000 OA
ATOM     14  C   UNL     1       4.774   3.253  12.506  0.00  0.00    +0.000 C 
ATOM     15  C   UNL     1       4.996   4.027  13.796  0.00  0.00    +0.000 C 
ENDBRANCH   7  10
BRANCH   1  19
ATOM     16  C   UNL     1       2.496   6.784  18.619  0.00  0.00    +0.000 A 
ATOM     17  N   UNL     1       1.853   5.884  17.857  0.00  0.00    +0.000 NA
ATOM     18  O   UNL     1       2.778   4.846  17.714  0.00  0.00    +0.000 OA
ATOM     19  C   UNL     1       3.889   5.228  18.402  0.00  0.00    +0.000 A 
ATOM     20  N   UNL     1       3.791   6.430  18.915  0.00  0.00    +0.000 NA
BRANCH  16  27
ATOM     21  C   UNL     1       0.624   9.119  22.596  0.00  0.00    +0.000 C 
ATOM     22  C   UNL     1       0.993   9.141  21.142  0.00  0.00    +0.000 A 
ATOM     23  C   UNL     1       0.806  10.287  20.364  0.00  0.00    +0.000 A 
ATOM     24  C   UNL     1       1.160  10.286  19.013  0.00  0.00    +0.000 A 
ATOM     25  C   UNL     1       1.709   9.143  18.434  0.00  0.00    +0.000 A 
ATOM     26  F   UNL     1       2.048   9.197  17.136  0.00  0.00    +0.000 F 
ATOM     27  C   UNL     1       1.919   7.989  19.186  0.00  0.00    +0.000 A 
ATOM     28  C   UNL     1       1.546   7.999  20.546  0.00  0.00    +0.000 A 
ENDBRANCH  16  27
ENDBRANCH   1  19
TORSDOF 3
ENDMDL
MODEL 4
REMARK VINA RESULT:      -7.8      2.477      8.202
REMARK  Name = 
REMARK  4 active torsions:
REMARK  status: ('A' for Active; 'I' for Inactive)
REMARK    1  A    between atoms: C_1  and  C_2
REMARK    2  A    between atoms: C_7  and  C_8
REMARK    3  A    between atoms: C_11  and  C_12
REMARK    4  A    between atoms: N_18  and  C_19
REMARK                            x       y       z     vdW  Elec       q    Type
REMARK                         _______ _______ _______ _____ _____    ______ ____
ROOT
ATOM      1  C   UNL     1       5.671   4.447  18.789  0.00  0.00    +0.000 C 
ATOM      2  C   UNL     1       4.984   3.057  18.643  0.00  0.00    +0.000 C 
ATOM      3  C   UNL     1       3.702   3.098  17.776  0.00  0.00    +0.000 C 
ATOM      4  C   UNL     1       2.907   4.307  18.091  0.00  0.00    +0.000 A 
ATOM      5  N   UNL     1       1.677   4.584  17.589  0.00  0.00    +0.000 NA
ATOM      6  N   UNL     1       1.334   5.794  18.019  0.00  0.00    +0.000 NA
ATOM      7  N   UNL     1       2.343   6.273  18.782  0.00  0.00    +0.000 N 
ATOM      8  C   UNL     1       3.359   5.366  18.846  0.00  0.00    +0.000 A 
ATOM      9  C   UNL     1       4.704   5.465  19.475  0.00  0.00    +0.000 C 
ENDROOT
BRANCH   7  10
ATOM     10  C   UNL     1       2.212   7.571  19.426  0.00  0.00    +0.000 C 
ATOM     11  C   UNL     1       1.434   7.453  20.742  0.00  0.00    +0.000 C 
ATOM     12  C   UNL     1       1.199   8.822  21.356  0.00  0.00    +0.000 C 
ATOM     13  O   UNL     1       0.550   9.684  20.426  0.00  0.00    +0.000 OA
ATOM     14  C   UNL     1       1.327   9.914  19.254  0.00  0.00    +0.000 C 
ATOM     15  C   UNL     1       1.569   8.613  18.502  0.00  0.00    +0.000 C 
ENDBRANCH   7  10
BRANCH   1  19
ATOM     16  C   UNL     1       6.641   5.077  15.421  0.00  0.00    +0.000 A 
ATOM     17  N   UNL     1       7.472   5.935  16.036  0.00  0.00    +0.000 NA
ATOM     18  O   UNL     1       7.105   5.848  17.381  0.00  0.00    +0.000 OA
ATOM     19  C   UNL     1       6.086   4.947  17.442  0.00  0.00    +0.000 A 
ATOM     20  N   UNL     1       5.723   4.499  16.265  0.00  0.00    +0.000 NA
BRANCH  16  27
ATOM     21  C   UNL     1       4.581   2.608  11.622  0.00  0.00    +0.000 C 
ATOM     22  C   UNL     1       5.695   3.461  12.154  0.00  0.00    +0.000 A 
ATOM     23  C   UNL     1       6.746   3.876  11.332  0.00  0.00    +0.000 A 
ATOM     24  C   UNL     1       7.770   4.673  11.848  0.00  0.00    +0.000 A 
ATOM     25  C   UNL     1       7.745   5.066  13.185  0.00  0.00    +0.000 A 
ATOM     26  F   UNL     1       8.744   5.845  13.630  0.00  0.00    +0.000 F 
ATOM     27  C   UNL     1       6.705   4.680  14.026  0.00  0.00    +0.000 A 
ATOM     28  C   UNL     1       5.682   3.864  13.496  0.00  0.00    +0.000 A 
ENDBRANCH  16  27
ENDBRANCH   1  19
TORSDOF 3
ENDMDL
MODEL 5
REMARK VINA RESULT:      -7.7      1.663      2.411
REMARK  Name = 
REMARK  4 active torsions:
REMARK  status: ('A' for Active; 'I' for Inactive)
REMARK    1  A    between atoms: C_1  and  C_2
REMARK    2  A    between atoms: C_7  and  C_8
REMARK    3  A    between atoms: C_11  and  C_12
REMARK    4  A    between atoms: N_18  and  C_19
REMARK                            x       y       z     vdW  Elec       q    Type
REMARK                         _______ _______ _______ _____ _____    ______ ____
ROOT
ATOM      1  C   UNL     1       5.178   4.183  18.630  0.00  0.00    +0.000 C 
ATOM      2  C   UNL     1       6.372   4.828  19.395  0.00  0.00    +0.000 C 
ATOM      3  C   UNL     1       7.018   6.010  18.632  0.00  0.00    +0.000 C 
ATOM      4  C   UNL     1       7.124   5.695  17.190  0.00  0.00    +0.000 A 
ATOM      5  N   UNL     1       7.744   6.471  16.265  0.00  0.00    +0.000 NA
ATOM      6  N   UNL     1       7.543   5.912  15.076  0.00  0.00    +0.000 NA
ATOM      7  N   UNL     1       6.801   4.796  15.253  0.00  0.00    +0.000 N 
ATOM      8  C   UNL     1       6.509   4.627  16.575  0.00  0.00    +0.000 A 
ATOM      9  C   UNL     1       5.653   3.616  17.254  0.00  0.00    +0.000 C 
ENDROOT
BRANCH   7  10
ATOM     10  C   UNL     1       6.470   3.956  14.112  0.00  0.00    +0.000 C 
ATOM     11  C   UNL     1       7.338   4.314  12.899  0.00  0.00    +0.000 C 
ATOM     12  C   UNL     1       6.916   3.516  11.679  0.00  0.00    +0.000 C 
ATOM     13  O   UNL     1       5.528   3.698  11.415  0.00  0.00    +0.000 OA
ATOM     14  C   UNL     1       4.702   3.240  12.482  0.00  0.00    +0.000 C 
ATOM     15  C   UNL     1       4.980   4.022  13.756  0.00  0.00    +0.000 C 
ENDBRANCH   7  10
BRANCH   1  19
ATOM     16  C   UNL     1       2.605   6.643  18.741  0.00  0.00    +0.000 A 
ATOM     17  N   UNL     1       2.102   5.865  17.767  0.00  0.00    +0.000 NA
ATOM     18  O   UNL     1       3.094   4.903  17.562  0.00  0.00    +0.000 OA
ATOM     19  C   UNL     1       4.100   5.200  18.432  0.00  0.00    +0.000 A 
ATOM     20  N   UNL     1       3.877   6.290  19.125  0.00  0.00    +0.000 NA
BRANCH  16  27
ATOM     21  C   UNL     1       0.923  11.327  18.696  0.00  0.00    +0.000 C 
ATOM     22  C   UNL     1       1.075  10.017  19.413  0.00  0.00    +0.000 A 
ATOM     23  C   UNL     1       0.543   9.823  20.690  0.00  0.00    +0.000 A 
ATOM     24  C   UNL     1       0.694   8.595  21.337  0.00  0.00    +0.000 A 
ATOM     25  C   UNL     1       1.371   7.551  20.708  0.00  0.00    +0.000 A 
ATOM     26  F   UNL     1       1.476   6.385  21.364  0.00  0.00    +0.000 F 
ATOM     27  C   UNL     1       1.902   7.709  19.430  0.00  0.00    +0.000 A 
ATOM     28  C   UNL     1       1.754   8.959  18.792  0.00  0.00    +0.000 A 
ENDBRANCH  16  27
ENDBRANCH   1  19
TORSDOF 3
ENDMDL
MODEL 6
REMARK VINA RESULT:      -7.7      4.603     10.065
REMARK  Name = 
REMARK  4 active torsions:
REMARK  status: ('A' for Active; 'I' for Inactive)
REMARK    1  A    between atoms: C_1  and  C_2
REMARK    2  A    between atoms: C_7  and  C_8
REMARK    3  A    between atoms: C_11  and  C_12
REMARK    4  A    between atoms: N_18  and  C_19
REMARK                            x       y       z     vdW  Elec       q    Type
REMARK                         _______ _______ _______ _____ _____    ______ ____
ROOT
ATOM      1  C   UNL     1       0.405  10.525  18.537  0.00  0.00    +0.000 C 
ATOM      2  C   UNL     1       1.446  11.630  18.190  0.00  0.00    +0.000 C 
ATOM      3  C   UNL     1       2.029  12.333  19.442  0.00  0.00    +0.000 C 
ATOM      4  C   UNL     1       0.961  12.583  20.435  0.00  0.00    +0.000 A 
ATOM      5  N   UNL     1       1.116  13.280  21.589  0.00  0.00    +0.000 NA
ATOM      6  N   UNL     1      -0.029  13.203  22.259  0.00  0.00    +0.000 NA
ATOM      7  N   UNL     1      -0.895  12.461  21.533  0.00  0.00    +0.000 N 
ATOM      8  C   UNL     1      -0.305  12.044  20.376  0.00  0.00    +0.000 A 
ATOM      9  C   UNL     1      -0.808  11.139  19.307  0.00  0.00    +0.000 C 
ENDROOT
BRANCH   7  10
ATOM     10  C   UNL     1      -2.253  12.254  22.012  0.00  0.00    +0.000 C 
ATOM     11  C   UNL     1      -3.259  13.037  21.160  0.00  0.00    +0.000 C 
ATOM     12  C   UNL     1      -4.662  12.912  21.729  0.00  0.00    +0.000 C 
ATOM     13  O   UNL     1      -4.688  13.318  23.094  0.00  0.00    +0.000 OA
ATOM     14  C   UNL     1      -3.860  12.508  23.924  0.00  0.00    +0.000 C 
ATOM     15  C   UNL     1      -2.403  12.608  23.497  0.00  0.00    +0.000 C 
ENDBRANCH   7  10
BRANCH   1  19
ATOM     16  C   UNL     1       1.823   7.628  20.047  0.00  0.00    +0.000 A 
ATOM     17  N   UNL     1       1.246   8.164  21.136  0.00  0.00    +0.000 NA
ATOM     18  O   UNL     1       0.734   9.381  20.678  0.00  0.00    +0.000 OA
ATOM     19  C   UNL     1       1.058   9.458  19.357  0.00  0.00    +0.000 A 
ATOM     20  N   UNL     1       1.778   8.445  18.943  0.00  0.00    +0.000 NA
BRANCH  16  27
ATOM     21  C   UNL     1       1.749   2.887  21.560  0.00  0.00    +0.000 C 
ATOM     22  C   UNL     1       2.346   3.956  20.692  0.00  0.00    +0.000 A 
ATOM     23  C   UNL     1       3.386   3.671  19.803  0.00  0.00    +0.000 A 
ATOM     24  C   UNL     1       3.925   4.680  19.002  0.00  0.00    +0.000 A 
ATOM     25  C   UNL     1       3.422   5.978  19.080  0.00  0.00    +0.000 A 
ATOM     26  F   UNL     1       3.961   6.909  18.278  0.00  0.00    +0.000 F 
ATOM     27  C   UNL     1       2.377   6.291  19.946  0.00  0.00    +0.000 A 
ATOM     28  C   UNL     1       1.851   5.265  20.759  0.00  0.00    +0.000 A 
ENDBRANCH  16  27
ENDBRANCH   1  19
TORSDOF 3
ENDMDL
MODEL 7
REMARK VINA RESULT:      -7.7      3.819      8.917
REMARK  Name = 
REMARK  4 active torsions:
REMARK  status: ('A' for Active; 'I' for Inactive)
REMARK    1  A    between atoms: C_1  and  C_2
REMARK    2  A    between atoms: C_7  and  C_8
REMARK    3  A    between atoms: C_11  and  C_12
REMARK    4  A    between atoms: N_18  and  C_19
REMARK                            x       y       z     vdW  Elec       q    Type
REMARK                         _______ _______ _______ _____ _____    ______ ____
ROOT
ATOM      1  C   UNL     1       0.963   9.783  20.686  0.00  0.00    +0.000 C 
ATOM      2  C   UNL     1      -0.580   9.591  20.786  0.00  0.00    +0.000 C 
ATOM      3  C   UNL     1      -1.345  10.161  19.567  0.00  0.00    +0.000 C 
ATOM      4  C   UNL     1      -0.769  11.462  19.159  0.00  0.00    +0.000 A 
ATOM      5  N   UNL     1      -1.277  12.274  18.198  0.00  0.00    +0.000 NA
ATOM      6  N   UNL     1      -0.435  13.291  18.049  0.00  0.00    +0.000 NA
ATOM      7  N   UNL     1       0.595  13.117  18.906  0.00  0.00    +0.000 N 
ATOM      8  C   UNL     1       0.426  11.968  19.622  0.00  0.00    +0.000 A 
ATOM      9  C   UNL     1       1.321  11.302  20.607  0.00  0.00    +0.000 C 
ENDROOT
BRANCH   7  10
ATOM     10  C   UNL     1       1.649  14.117  18.988  0.00  0.00    +0.000 C 
ATOM     11  C   UNL     1       1.108  15.511  18.645  0.00  0.00    +0.000 C 
ATOM     12  C   UNL     1       2.229  16.534  18.619  0.00  0.00    +0.000 C 
ATOM     13  O   UNL     1       3.261  16.126  17.725  0.00  0.00    +0.000 OA
ATOM     14  C   UNL     1       3.868  14.896  18.112  0.00  0.00    +0.000 C 
ATOM     15  C   UNL     1       2.852  13.765  18.103  0.00  0.00    +0.000 C 
ENDBRANCH   7  10
BRANCH   1  19
ATOM     16  C   UNL     1       2.572   7.810  18.196  0.00  0.00    +0.000 A 
ATOM     17  N   UNL     1       2.452   8.955  17.503  0.00  0.00    +0.000 NA
ATOM     18  O   UNL     1       1.729   9.790  18.359  0.00  0.00    +0.000 OA
ATOM     19  C   UNL     1       1.483   9.062  19.484  0.00  0.00    +0.000 A 
ATOM     20  N   UNL     1       1.919   7.828  19.405  0.00  0.00    +0.000 NA
BRANCH  16  27
ATOM     21  C   UNL     1       6.949   6.021  16.642  0.00  0.00    +0.000 C 
ATOM     22  C   UNL     1       5.524   5.776  17.043  0.00  0.00    +0.000 A 
ATOM     23  C   UNL     1       4.988   4.485  17.067  0.00  0.00    +0.000 A 
ATOM     24  C   UNL     1       3.660   4.281  17.446  0.00  0.00    +0.000 A 
ATOM     25  C   UNL     1       2.862   5.364  17.813  0.00  0.00    +0.000 A 
ATOM     26  F   UNL     1       1.597   5.114  18.186  0.00  0.00    +0.000 F 
ATOM     27  C   UNL     1       3.370   6.660  17.813  0.00  0.00    +0.000 A 
ATOM     28  C   UNL     1       4.710   6.855  17.415  0.00  0.00    +0.000 A 
ENDBRANCH  16  27
ENDBRANCH   1  19
TORSDOF 3
ENDMDL
MODEL 8
REMARK VINA RESULT:      -7.6      3.819      8.859
REMARK  Name = 
REMARK  4 active torsions:
REMARK  status: ('A' for Active; 'I' for Inactive)
REMARK    1  A    between atoms: C_1  and  C_2
REMARK    2  A    between atoms: C_7  and  C_8
REMARK    3  A    between atoms: C_11  and  C_12
REMARK    4  A    between atoms: N_18  and  C_19
REMARK                            x       y       z     vdW  Elec       q    Type
REMARK                         _______ _______ _______ _____ _____    ______ ____
ROOT
ATOM      1  C   UNL     1       0.903   9.876  20.744  0.00  0.00    +0.000 C 
ATOM      2  C   UNL     1      -0.645   9.739  20.841  0.00  0.00    +0.000 C 
ATOM      3  C   UNL     1      -1.386  10.322  19.612  0.00  0.00    +0.000 C 
ATOM      4  C   UNL     1      -0.763  11.598  19.193  0.00  0.00    +0.000 A 
ATOM      5  N   UNL     1      -1.239  12.417  18.222  0.00  0.00    +0.000 NA
ATOM      6  N   UNL     1      -0.362  13.403  18.064  0.00  0.00    +0.000 NA
ATOM      7  N   UNL     1       0.659  13.201  18.928  0.00  0.00    +0.000 N 
ATOM      8  C   UNL     1       0.447  12.067  19.655  0.00  0.00    +0.000 A 
ATOM      9  C   UNL     1       1.315  11.381  20.651  0.00  0.00    +0.000 C 
ENDROOT
BRANCH   7  10
ATOM     10  C   UNL     1       1.747  14.165  19.003  0.00  0.00    +0.000 C 
ATOM     11  C   UNL     1       1.248  15.579  18.679  0.00  0.00    +0.000 C 
ATOM     12  C   UNL     1       2.403  16.564  18.645  0.00  0.00    +0.000 C 
ATOM     13  O   UNL     1       3.408  16.129  17.734  0.00  0.00    +0.000 OA
ATOM     14  C   UNL     1       3.979  14.877  18.102  0.00  0.00    +0.000 C 
ATOM     15  C   UNL     1       2.925  13.780  18.099  0.00  0.00    +0.000 C 
ENDBRANCH   7  10
BRANCH   1  19
ATOM     16  C   UNL     1       2.394   7.769  18.291  0.00  0.00    +0.000 A 
ATOM     17  N   UNL     1       2.487   8.939  17.637  0.00  0.00    +0.000 NA
ATOM     18  O   UNL     1       1.829   9.843  18.476  0.00  0.00    +0.000 OA
ATOM     19  C   UNL     1       1.402   9.124  19.551  0.00  0.00    +0.000 A 
ATOM     20  N   UNL     1       1.665   7.844  19.453  0.00  0.00    +0.000 NA
BRANCH  16  27
ATOM     21  C   UNL     1       2.117   2.829  17.751  0.00  0.00    +0.000 C 
ATOM     22  C   UNL     1       2.917   4.095  17.653  0.00  0.00    +0.000 A 
ATOM     23  C   UNL     1       4.238   4.085  17.198  0.00  0.00    +0.000 A 
ATOM     24  C   UNL     1       4.962   5.276  17.112  0.00  0.00    +0.000 A 
ATOM     25  C   UNL     1       4.368   6.484  17.472  0.00  0.00    +0.000 A 
ATOM     26  F   UNL     1       5.099   7.603  17.356  0.00  0.00    +0.000 F 
ATOM     27  C   UNL     1       3.049   6.529  17.916  0.00  0.00    +0.000 A 
ATOM     28  C   UNL     1       2.332   5.317  18.011  0.00  0.00    +0.000 A 
ENDBRANCH  16  27
ENDBRANCH   1  19
TORSDOF 3
ENDMDL
MODEL 9
REMARK VINA RESULT:      -7.6      4.284      9.940
REMARK  Name = 
REMARK  4 active torsions:
REMARK  status: ('A' for Active; 'I' for Inactive)
REMARK    1  A    between atoms: C_1  and  C_2
REMARK    2  A    between atoms: C_7  and  C_8
REMARK    3  A    between atoms: C_11  and  C_12
REMARK    4  A    between atoms: N_18  and  C_19
REMARK                            x       y       z     vdW  Elec       q    Type
REMARK                         _______ _______ _______ _____ _____    ______ ____
ROOT
ATOM      1  C   UNL     1       0.569  10.199  18.297  0.00  0.00    +0.000 C 
ATOM      2  C   UNL     1       1.604  11.284  17.877  0.00  0.00    +0.000 C 
ATOM      3  C   UNL     1       2.228  12.030  19.081  0.00  0.00    +0.000 C 
ATOM      4  C   UNL     1       1.192  12.326  20.097  0.00  0.00    +0.000 A 
ATOM      5  N   UNL     1       1.386  13.065  21.217  0.00  0.00    +0.000 NA
ATOM      6  N   UNL     1       0.261  13.021  21.924  0.00  0.00    +0.000 NA
ATOM      7  N   UNL     1      -0.631  12.257  21.254  0.00  0.00    +0.000 N 
ATOM      8  C   UNL     1      -0.078  11.792  20.096  0.00  0.00    +0.000 A 
ATOM      9  C   UNL     1      -0.618  10.850  19.079  0.00  0.00    +0.000 C 
ENDROOT
BRANCH   7  10
ATOM     10  C   UNL     1      -1.974  12.077  21.782  0.00  0.00    +0.000 C 
ATOM     11  C   UNL     1      -2.988  12.920  20.997  0.00  0.00    +0.000 C 
ATOM     12  C   UNL     1      -4.369  12.820  21.619  0.00  0.00    +0.000 C 
ATOM     13  O   UNL     1      -4.327  13.179  22.997  0.00  0.00    +0.000 OA
ATOM     14  C   UNL     1      -3.494  12.316  23.765  0.00  0.00    +0.000 C 
ATOM     15  C   UNL     1      -2.053  12.384  23.282  0.00  0.00    +0.000 C 
ENDBRANCH   7  10
BRANCH   1  19
ATOM     16  C   UNL     1       2.079   7.370  19.845  0.00  0.00    +0.000 A 
ATOM     17  N   UNL     1       1.412   7.851  20.907  0.00  0.00    +0.000 NA
ATOM     18  O   UNL     1       0.852   9.042  20.438  0.00  0.00    +0.000 OA
ATOM     19  C   UNL     1       1.241   9.161  19.138  0.00  0.00    +0.000 A 
ATOM     20  N   UNL     1       2.044   8.201  18.750  0.00  0.00    +0.000 NA
BRANCH  16  27
ATOM     21  C   UNL     1       6.069   4.694  18.543  0.00  0.00    +0.000 C 
ATOM     22  C   UNL     1       4.682   4.749  19.114  0.00  0.00    +0.000 A 
ATOM     23  C   UNL     1       4.036   3.594  19.563  0.00  0.00    +0.000 A 
ATOM     24  C   UNL     1       2.747   3.669  20.094  0.00  0.00    +0.000 A 
ATOM     25  C   UNL     1       2.098   4.900  20.185  0.00  0.00    +0.000 A 
ATOM     26  F   UNL     1       0.866   4.923  20.717  0.00  0.00    +0.000 F 
ATOM     27  C   UNL     1       2.720   6.071  19.757  0.00  0.00    +0.000 A 
ATOM     28  C   UNL     1       4.018   5.979  19.212  0.00  0.00    +0.000 A 
ENDBRANCH  16  27
ENDBRANCH   1  19
TORSDOF 3
ENDMDL
