MODEL 1
REMARK VINA RESULT:     -10.2      0.000      0.000
REMARK  Name = 
REMARK  3 active torsions:
REMARK  status: ('A' for Active; 'I' for Inactive)
REMARK    1  A    between atoms: C_1  and  C_2
REMARK    2  A    between atoms: C_2  and  C_3
REMARK    3  A    between atoms: C_7  and  C_8
REMARK                            x       y       z     vdW  Elec       q    Type
REMARK                         _______ _______ _______ _____ _____    ______ ____
ROOT
ATOM      1  C   UNL     1       2.557   5.733  19.247  0.00  0.00    +0.000 A 
ATOM      2  C   UNL     1       3.054   6.214  18.023  0.00  0.00    +0.000 A 
ATOM      3  C   UNL     1       2.952   7.565  17.680  0.00  0.00    +0.000 A 
ATOM      4  C   UNL     1       2.340   8.471  18.549  0.00  0.00    +0.000 A 
ATOM      5  C   UNL     1       1.865   8.042  19.793  0.00  0.00    +0.000 A 
ATOM      6  C   UNL     1       1.961   6.672  20.122  0.00  0.00    +0.000 A 
ENDROOT
BRANCH   5   7
ATOM      7  C   UNL     1       1.114   8.947  20.725  0.00  0.00    +0.000 C 
ATOM      8  O   UNL     1       1.254   8.738  21.931  0.00  0.00    +0.000 OA
ATOM      9  N   UNL     1       0.293   9.978  20.261  0.00  0.00    +0.000 N 
ATOM     10  C   UNL     1      -0.567  10.702  21.239  0.00  0.00    +0.000 C 
ATOM     11  C   UNL     1      -1.131  12.039  20.695  0.00  0.00    +0.000 C 
ATOM     12  C   UNL     1      -1.845  11.693  19.411  0.00  0.00    +0.000 A 
ATOM     13  C   UNL     1      -3.191  11.968  19.186  0.00  0.00    +0.000 A 
ATOM     14  F   UNL     1      -3.861  12.785  20.010  0.00  0.00    +0.000 F 
ATOM     15  C   UNL     1      -3.877  11.315  18.167  0.00  0.00    +0.000 A 
ATOM     16  C   UNL     1      -3.204  10.404  17.346  0.00  0.00    +0.000 A 
ATOM     17  C   UNL     1      -1.838  10.192  17.519  0.00  0.00    +0.000 A 
ATOM     18  F   UNL     1      -1.214   9.280  16.760  0.00  0.00    +0.000 F 
ATOM     19  C   UNL     1      -1.146  10.838  18.533  0.00  0.00    +0.000 A 
ATOM     20  C   UNL     1       0.274  10.502  18.894  0.00  0.00    +0.000 C 
ENDBRANCH   5   7
BRANCH   1  22
ATOM     21  C   UNL     1       3.872   3.542  18.971  0.00  0.00    +0.000 C 
ATOM     22  C   UNL     1       2.634   4.235  19.554  0.00  0.00    +0.000 C 
ATOM     23  N   UNL     1       2.545   3.927  20.969  0.00  0.00    +0.000 N 
ATOM     24  C   UNL     1       1.511   3.079  21.256  0.00  0.00    +0.000 C 
ATOM     25  O   UNL     1       1.330   2.540  22.338  0.00  0.00    +0.000 OA
ATOM     26  N   UNL     1       0.771   2.893  20.144  0.00  0.00    +0.000 N 
ATOM     27  C   UNL     1       1.381   3.472  19.070  0.00  0.00    +0.000 C 
ATOM     28  O   UNL     1       0.998   3.341  17.914  0.00  0.00    +0.000 OA
ATOM     29  H   UNL     1       3.275   4.093  21.648  0.00  0.00    +0.000 HD
ATOM     30  H   UNL     1      -0.024   2.287  20.091  0.00  0.00    +0.000 HD
ENDBRANCH   1  22
TORSDOF 2
ENDMDL
MODEL 2
REMARK VINA RESULT:     -10.0      3.360      4.624
REMARK  Name = 
REMARK  3 active torsions:
REMARK  status: ('A' for Active; 'I' for Inactive)
REMARK    1  A    between atoms: C_1  and  C_2
REMARK    2  A    between atoms: C_2  and  C_3
REMARK    3  A    between atoms: C_7  and  C_8
REMARK                            x       y       z     vdW  Elec       q    Type
REMARK                         _______ _______ _______ _____ _____    ______ ____
ROOT
ATOM      1  C   UNL     1       4.652   5.154  17.350  0.00  0.00    +0.000 A 
ATOM      2  C   UNL     1       3.961   4.141  16.660  0.00  0.00    +0.000 A 
ATOM      3  C   UNL     1       2.701   3.708  17.080  0.00  0.00    +0.000 A 
ATOM      4  C   UNL     1       2.100   4.270  18.208  0.00  0.00    +0.000 A 
ATOM      5  C   UNL     1       2.734   5.306  18.902  0.00  0.00    +0.000 A 
ATOM      6  C   UNL     1       4.014   5.725  18.476  0.00  0.00    +0.000 A 
ENDROOT
BRANCH   5   7
ATOM      7  C   UNL     1       2.182   5.881  20.173  0.00  0.00    +0.000 C 
ATOM      8  O   UNL     1       2.036   5.099  21.115  0.00  0.00    +0.000 OA
ATOM      9  N   UNL     1       1.847   7.231  20.296  0.00  0.00    +0.000 N 
ATOM     10  C   UNL     1       1.125   7.680  21.521  0.00  0.00    +0.000 C 
ATOM     11  C   UNL     1       1.144   9.217  21.721  0.00  0.00    +0.000 C 
ATOM     12  C   UNL     1       0.585   9.804  20.447  0.00  0.00    +0.000 A 
ATOM     13  C   UNL     1      -0.531  10.635  20.414  0.00  0.00    +0.000 A 
ATOM     14  F   UNL     1      -1.019  11.159  21.547  0.00  0.00    +0.000 F 
ATOM     15  C   UNL     1      -1.212  10.844  19.219  0.00  0.00    +0.000 A 
ATOM     16  C   UNL     1      -0.754  10.242  18.042  0.00  0.00    +0.000 A 
ATOM     17  C   UNL     1       0.412   9.478  18.061  0.00  0.00    +0.000 A 
ATOM     18  F   UNL     1       0.813   8.866  16.939  0.00  0.00    +0.000 F 
ATOM     19  C   UNL     1       1.096   9.264  19.249  0.00  0.00    +0.000 A 
ATOM     20  C   UNL     1       2.238   8.294  19.369  0.00  0.00    +0.000 C 
ENDBRANCH   5   7
BRANCH   1  22
ATOM     21  C   UNL     1       6.536   4.814  15.636  0.00  0.00    +0.000 C 
ATOM     22  C   UNL     1       6.057   5.552  16.892  0.00  0.00    +0.000 C 
ATOM     23  N   UNL     1       6.218   6.980  16.689  0.00  0.00    +0.000 N 
ATOM     24  C   UNL     1       7.227   7.506  17.449  0.00  0.00    +0.000 C 
ATOM     25  O   UNL     1       7.668   8.640  17.334  0.00  0.00    +0.000 OA
ATOM     26  N   UNL     1       7.685   6.558  18.292  0.00  0.00    +0.000 N 
ATOM     27  C   UNL     1       7.114   5.355  18.002  0.00  0.00    +0.000 C 
ATOM     28  O   UNL     1       7.449   4.296  18.520  0.00  0.00    +0.000 OA
ATOM     29  H   UNL     1       5.830   7.506  15.918  0.00  0.00    +0.000 HD
ATOM     30  H   UNL     1       8.446   6.691  18.929  0.00  0.00    +0.000 HD
ENDBRANCH   1  22
TORSDOF 2
ENDMDL
MODEL 3
REMARK VINA RESULT:      -9.5      3.443      8.243
REMARK  Name = 
REMARK  3 active torsions:
REMARK  status: ('A' for Active; 'I' for Inactive)
REMARK    1  A    between atoms: C_1  and  C_2
REMARK    2  A    between atoms: C_2  and  C_3
REMARK    3  A    between atoms: C_7  and  C_8
REMARK                            x       y       z     vdW  Elec       q    Type
REMARK                         _______ _______ _______ _____ _____    ______ ____
ROOT
ATOM      1  C   UNL     1      -0.161  10.654  20.155  0.00  0.00    +0.000 A 
ATOM      2  C   UNL     1      -0.412   9.980  21.364  0.00  0.00    +0.000 A 
ATOM      3  C   UNL     1       0.215   8.767  21.662  0.00  0.00    +0.000 A 
ATOM      4  C   UNL     1       1.104   8.189  20.753  0.00  0.00    +0.000 A 
ATOM      5  C   UNL     1       1.413   8.844  19.556  0.00  0.00    +0.000 A 
ATOM      6  C   UNL     1       0.761  10.062  19.260  0.00  0.00    +0.000 A 
ENDROOT
BRANCH   5   7
ATOM      7  C   UNL     1       2.284   8.227  18.502  0.00  0.00    +0.000 C 
ATOM      8  O   UNL     1       2.523   8.917  17.509  0.00  0.00    +0.000 OA
ATOM      9  N   UNL     1       2.802   6.936  18.625  0.00  0.00    +0.000 N 
ATOM     10  C   UNL     1       3.492   6.327  17.452  0.00  0.00    +0.000 C 
ATOM     11  C   UNL     1       4.340   5.080  17.813  0.00  0.00    +0.000 C 
ATOM     12  C   UNL     1       3.398   4.131  18.514  0.00  0.00    +0.000 A 
ATOM     13  C   UNL     1       3.152   2.834  18.073  0.00  0.00    +0.000 A 
ATOM     14  F   UNL     1       3.935   2.276  17.140  0.00  0.00    +0.000 F 
ATOM     15  C   UNL     1       2.029   2.144  18.521  0.00  0.00    +0.000 A 
ATOM     16  C   UNL     1       1.163   2.746  19.441  0.00  0.00    +0.000 A 
ATOM     17  C   UNL     1       1.456   4.011  19.945  0.00  0.00    +0.000 A 
ATOM     18  F   UNL     1       0.594   4.597  20.787  0.00  0.00    +0.000 F 
ATOM     19  C   UNL     1       2.573   4.706  19.503  0.00  0.00    +0.000 A 
ATOM     20  C   UNL     1       2.831   6.144  19.856  0.00  0.00    +0.000 C 
ENDBRANCH   5   7
BRANCH   1  22
ATOM     21  C   UNL     1      -2.106  12.214  20.775  0.00  0.00    +0.000 C 
ATOM     22  C   UNL     1      -0.918  11.946  19.843  0.00  0.00    +0.000 C 
ATOM     23  N   UNL     1      -0.069  13.123  19.814  0.00  0.00    +0.000 N 
ATOM     24  C   UNL     1      -0.134  13.786  18.619  0.00  0.00    +0.000 C 
ATOM     25  O   UNL     1       0.350  14.888  18.405  0.00  0.00    +0.000 OA
ATOM     26  N   UNL     1      -0.863  13.057  17.749  0.00  0.00    +0.000 N 
ATOM     27  C   UNL     1      -1.427  11.991  18.385  0.00  0.00    +0.000 C 
ATOM     28  O   UNL     1      -2.246  11.241  17.868  0.00  0.00    +0.000 OA
ATOM     29  H   UNL     1       0.336  13.570  20.626  0.00  0.00    +0.000 HD
ATOM     30  H   UNL     1      -1.080  13.347  16.816  0.00  0.00    +0.000 HD
ENDBRANCH   1  22
TORSDOF 2
ENDMDL
MODEL 4
REMARK VINA RESULT:      -9.5      3.334      8.170
REMARK  Name = 
REMARK  3 active torsions:
REMARK  status: ('A' for Active; 'I' for Inactive)
REMARK    1  A    between atoms: C_1  and  C_2
REMARK    2  A    between atoms: C_2  and  C_3
REMARK    3  A    between atoms: C_7  and  C_8
REMARK                            x       y       z     vdW  Elec       q    Type
REMARK                         _______ _______ _______ _____ _____    ______ ____
ROOT
ATOM      1  C   UNL     1      -0.006  10.529  19.266  0.00  0.00    +0.000 A 
ATOM      2  C   UNL     1      -0.216  10.147  20.603  0.00  0.00    +0.000 A 
ATOM      3  C   UNL     1       0.476   9.073  21.167  0.00  0.00    +0.000 A 
ATOM      4  C   UNL     1       1.392   8.343  20.406  0.00  0.00    +0.000 A 
ATOM      5  C   UNL     1       1.660   8.712  19.083  0.00  0.00    +0.000 A 
ATOM      6  C   UNL     1       0.943   9.790  18.520  0.00  0.00    +0.000 A 
ENDROOT
BRANCH   5   7
ATOM      7  C   UNL     1       2.559   7.909  18.189  0.00  0.00    +0.000 C 
ATOM      8  O   UNL     1       2.939   8.456  17.153  0.00  0.00    +0.000 OA
ATOM      9  N   UNL     1       2.952   6.606  18.504  0.00  0.00    +0.000 N 
ATOM     10  C   UNL     1       3.681   5.811  17.475  0.00  0.00    +0.000 C 
ATOM     11  C   UNL     1       4.385   4.556  18.050  0.00  0.00    +0.000 C 
ATOM     12  C   UNL     1       3.310   3.771  18.763  0.00  0.00    +0.000 A 
ATOM     13  C   UNL     1       2.990   2.453  18.449  0.00  0.00    +0.000 A 
ATOM     14  F   UNL     1       3.797   1.730  17.660  0.00  0.00    +0.000 F 
ATOM     15  C   UNL     1       1.779   1.909  18.865  0.00  0.00    +0.000 A 
ATOM     16  C   UNL     1       0.895   2.680  19.628  0.00  0.00    +0.000 A 
ATOM     17  C   UNL     1       1.253   3.971  20.012  0.00  0.00    +0.000 A 
ATOM     18  F   UNL     1       0.379   4.717  20.700  0.00  0.00    +0.000 F 
ATOM     19  C   UNL     1       2.459   4.521  19.601  0.00  0.00    +0.000 A 
ATOM     20  C   UNL     1       2.810   5.967  19.813  0.00  0.00    +0.000 C 
ENDBRANCH   5   7
BRANCH   1  22
ATOM     21  C   UNL     1      -0.062  12.989  18.525  0.00  0.00    +0.000 C 
ATOM     22  C   UNL     1      -0.832  11.671  18.670  0.00  0.00    +0.000 C 
ATOM     23  N   UNL     1      -1.444  11.342  17.397  0.00  0.00    +0.000 N 
ATOM     24  C   UNL     1      -2.804  11.487  17.416  0.00  0.00    +0.000 C 
ATOM     25  O   UNL     1      -3.526  11.436  16.430  0.00  0.00    +0.000 OA
ATOM     26  N   UNL     1      -3.202  11.753  18.677  0.00  0.00    +0.000 N 
ATOM     27  C   UNL     1      -2.118  11.949  19.480  0.00  0.00    +0.000 C 
ATOM     28  O   UNL     1      -2.188  12.339  20.640  0.00  0.00    +0.000 OA
ATOM     29  H   UNL     1      -0.951  11.255  16.518  0.00  0.00    +0.000 HD
ATOM     30  H   UNL     1      -4.151  11.931  18.942  0.00  0.00    +0.000 HD
ENDBRANCH   1  22
TORSDOF 2
ENDMDL
MODEL 5
REMARK VINA RESULT:      -9.4      1.154      1.451
REMARK  Name = 
REMARK  3 active torsions:
REMARK  status: ('A' for Active; 'I' for Inactive)
REMARK    1  A    between atoms: C_1  and  C_2
REMARK    2  A    between atoms: C_2  and  C_3
REMARK    3  A    between atoms: C_7  and  C_8
REMARK                            x       y       z     vdW  Elec       q    Type
REMARK                         _______ _______ _______ _____ _____    ______ ____
ROOT
ATOM      1  C   UNL     1       2.599   5.380  18.909  0.00  0.00    +0.000 A 
ATOM      2  C   UNL     1       3.179   5.934  17.753  0.00  0.00    +0.000 A 
ATOM      3  C   UNL     1       3.179   7.313  17.532  0.00  0.00    +0.000 A 
ATOM      4  C   UNL     1       2.590   8.178  18.457  0.00  0.00    +0.000 A 
ATOM      5  C   UNL     1       2.036   7.674  19.638  0.00  0.00    +0.000 A 
ATOM      6  C   UNL     1       2.028   6.276  19.843  0.00  0.00    +0.000 A 
ENDROOT
BRANCH   5   7
ATOM      7  C   UNL     1       1.305   8.542  20.620  0.00  0.00    +0.000 C 
ATOM      8  O   UNL     1       1.423   8.248  21.811  0.00  0.00    +0.000 OA
ATOM      9  N   UNL     1       0.528   9.630  20.218  0.00  0.00    +0.000 N 
ATOM     10  C   UNL     1      -0.319  10.319  21.234  0.00  0.00    +0.000 C 
ATOM     11  C   UNL     1      -0.827  11.709  20.774  0.00  0.00    +0.000 C 
ATOM     12  C   UNL     1      -1.537  11.475  19.462  0.00  0.00    +0.000 A 
ATOM     13  C   UNL     1      -2.869  11.813  19.243  0.00  0.00    +0.000 A 
ATOM     14  F   UNL     1      -3.520  12.598  20.112  0.00  0.00    +0.000 F 
ATOM     15  C   UNL     1      -3.565  11.255  18.175  0.00  0.00    +0.000 A 
ATOM     16  C   UNL     1      -2.914  10.376  17.302  0.00  0.00    +0.000 A 
ATOM     17  C   UNL     1      -1.559  10.103  17.474  0.00  0.00    +0.000 A 
ATOM     18  F   UNL     1      -0.959   9.222  16.663  0.00  0.00    +0.000 F 
ATOM     19  C   UNL     1      -0.857  10.655  18.537  0.00  0.00    +0.000 A 
ATOM     20  C   UNL     1       0.545  10.244  18.889  0.00  0.00    +0.000 C 
ENDBRANCH   5   7
BRANCH   1  22
ATOM     21  C   UNL     1       1.710   3.135  18.032  0.00  0.00    +0.000 C 
ATOM     22  C   UNL     1       2.564   3.860  19.079  0.00  0.00    +0.000 C 
ATOM     23  N   UNL     1       3.880   3.250  19.116  0.00  0.00    +0.000 N 
ATOM     24  C   UNL     1       4.093   2.532  20.261  0.00  0.00    +0.000 C 
ATOM     25  O   UNL     1       5.047   1.792  20.454  0.00  0.00    +0.000 OA
ATOM     26  N   UNL     1       3.057   2.728  21.103  0.00  0.00    +0.000 N 
ATOM     27  C   UNL     1       2.073   3.437  20.481  0.00  0.00    +0.000 C 
ATOM     28  O   UNL     1       0.966   3.639  20.966  0.00  0.00    +0.000 OA
ATOM     29  H   UNL     1       4.493   3.136  18.319  0.00  0.00    +0.000 HD
ATOM     30  H   UNL     1       2.966   2.284  21.995  0.00  0.00    +0.000 HD
ENDBRANCH   1  22
TORSDOF 2
ENDMDL
MODEL 6
REMARK VINA RESULT:      -9.3      3.483      7.896
REMARK  Name = 
REMARK  3 active torsions:
REMARK  status: ('A' for Active; 'I' for Inactive)
REMARK    1  A    between atoms: C_1  and  C_2
REMARK    2  A    between atoms: C_2  and  C_3
REMARK    3  A    between atoms: C_7  and  C_8
REMARK                            x       y       z     vdW  Elec       q    Type
REMARK                         _______ _______ _______ _____ _____    ______ ____
ROOT
ATOM      1  C   UNL     1      -1.026  10.324  18.751  0.00  0.00    +0.000 A 
ATOM      2  C   UNL     1      -0.955  10.457  20.149  0.00  0.00    +0.000 A 
ATOM      3  C   UNL     1       0.136   9.964  20.869  0.00  0.00    +0.000 A 
ATOM      4  C   UNL     1       1.183   9.316  20.212  0.00  0.00    +0.000 A 
ATOM      5  C   UNL     1       1.172   9.195  18.818  0.00  0.00    +0.000 A 
ATOM      6  C   UNL     1       0.057   9.684  18.102  0.00  0.00    +0.000 A 
ENDROOT
BRANCH   5   7
ATOM      7  C   UNL     1       2.219   8.425  18.067  0.00  0.00    +0.000 C 
ATOM      8  O   UNL     1       2.626   8.926  17.017  0.00  0.00    +0.000 OA
ATOM      9  N   UNL     1       2.714   7.202  18.524  0.00  0.00    +0.000 N 
ATOM     10  C   UNL     1       3.603   6.410  17.626  0.00  0.00    +0.000 C 
ATOM     11  C   UNL     1       4.381   5.288  18.360  0.00  0.00    +0.000 C 
ATOM     12  C   UNL     1       3.335   4.451  19.057  0.00  0.00    +0.000 A 
ATOM     13  C   UNL     1       3.178   3.086  18.838  0.00  0.00    +0.000 A 
ATOM     14  F   UNL     1       4.116   2.394  18.178  0.00  0.00    +0.000 F 
ATOM     15  C   UNL     1       1.997   2.450  19.209  0.00  0.00    +0.000 A 
ATOM     16  C   UNL     1       0.980   3.179  19.834  0.00  0.00    +0.000 A 
ATOM     17  C   UNL     1       1.172   4.527  20.128  0.00  0.00    +0.000 A 
ATOM     18  F   UNL     1       0.172   5.227  20.681  0.00  0.00    +0.000 F 
ATOM     19  C   UNL     1       2.346   5.170  19.760  0.00  0.00    +0.000 A 
ATOM     20  C   UNL     1       2.530   6.657  19.870  0.00  0.00    +0.000 C 
ENDBRANCH   5   7
BRANCH   1  22
ATOM     21  C   UNL     1      -3.076  11.872  18.781  0.00  0.00    +0.000 C 
ATOM     22  C   UNL     1      -2.269  10.821  18.009  0.00  0.00    +0.000 C 
ATOM     23  N   UNL     1      -1.987  11.329  16.680  0.00  0.00    +0.000 N 
ATOM     24  C   UNL     1      -2.698  10.677  15.709  0.00  0.00    +0.000 C 
ATOM     25  O   UNL     1      -2.766  11.027  14.540  0.00  0.00    +0.000 OA
ATOM     26  N   UNL     1      -3.351   9.636  16.265  0.00  0.00    +0.000 N 
ATOM     27  C   UNL     1      -3.222   9.669  17.622  0.00  0.00    +0.000 C 
ATOM     28  O   UNL     1      -3.824   8.923  18.384  0.00  0.00    +0.000 OA
ATOM     29  H   UNL     1      -1.528  12.206  16.476  0.00  0.00    +0.000 HD
ATOM     30  H   UNL     1      -3.965   9.024  15.764  0.00  0.00    +0.000 HD
ENDBRANCH   1  22
TORSDOF 2
ENDMDL
MODEL 7
REMARK VINA RESULT:      -9.3      3.223      4.475
REMARK  Name = 
REMARK  3 active torsions:
REMARK  status: ('A' for Active; 'I' for Inactive)
REMARK    1  A    between atoms: C_1  and  C_2
REMARK    2  A    between atoms: C_2  and  C_3
REMARK    3  A    between atoms: C_7  and  C_8
REMARK                            x       y       z     vdW  Elec       q    Type
REMARK                         _______ _______ _______ _____ _____    ______ ____
ROOT
ATOM      1  C   UNL     1       4.126   4.628  17.503  0.00  0.00    +0.000 A 
ATOM      2  C   UNL     1       3.220   3.736  16.900  0.00  0.00    +0.000 A 
ATOM      3  C   UNL     1       1.920   3.584  17.387  0.00  0.00    +0.000 A 
ATOM      4  C   UNL     1       1.492   4.312  18.499  0.00  0.00    +0.000 A 
ATOM      5  C   UNL     1       2.347   5.237  19.107  0.00  0.00    +0.000 A 
ATOM      6  C   UNL     1       3.664   5.372  18.614  0.00  0.00    +0.000 A 
ENDROOT
BRANCH   5   7
ATOM      7  C   UNL     1       1.977   5.975  20.360  0.00  0.00    +0.000 C 
ATOM      8  O   UNL     1       1.887   5.304  21.390  0.00  0.00    +0.000 OA
ATOM      9  N   UNL     1       1.741   7.351  20.372  0.00  0.00    +0.000 N 
ATOM     10  C   UNL     1       1.189   7.972  21.610  0.00  0.00    +0.000 C 
ATOM     11  C   UNL     1       1.325   9.516  21.641  0.00  0.00    +0.000 C 
ATOM     12  C   UNL     1       0.667  10.013  20.376  0.00  0.00    +0.000 A 
ATOM     13  C   UNL     1      -0.393  10.915  20.370  0.00  0.00    +0.000 A 
ATOM     14  F   UNL     1      -0.718  11.584  21.484  0.00  0.00    +0.000 F 
ATOM     15  C   UNL     1      -1.187  11.053  19.236  0.00  0.00    +0.000 A 
ATOM     16  C   UNL     1      -0.900  10.304  18.089  0.00  0.00    +0.000 A 
ATOM     17  C   UNL     1       0.210   9.463  18.069  0.00  0.00    +0.000 A 
ATOM     18  F   UNL     1       0.446   8.714  16.984  0.00  0.00    +0.000 F 
ATOM     19  C   UNL     1       1.007   9.319  19.196  0.00  0.00    +0.000 A 
ATOM     20  C   UNL     1       2.092   8.285  19.300  0.00  0.00    +0.000 C 
ENDBRANCH   5   7
BRANCH   1  22
ATOM     21  C   UNL     1       6.633   4.626  18.067  0.00  0.00    +0.000 C 
ATOM     22  C   UNL     1       5.560   4.716  16.975  0.00  0.00    +0.000 C 
ATOM     23  N   UNL     1       5.858   3.742  15.942  0.00  0.00    +0.000 N 
ATOM     24  C   UNL     1       6.287   4.325  14.781  0.00  0.00    +0.000 C 
ATOM     25  O   UNL     1       6.758   3.721  13.828  0.00  0.00    +0.000 OA
ATOM     26  N   UNL     1       6.161   5.664  14.887  0.00  0.00    +0.000 N 
ATOM     27  C   UNL     1       5.807   6.004  16.159  0.00  0.00    +0.000 C 
ATOM     28  O   UNL     1       5.757   7.157  16.570  0.00  0.00    +0.000 OA
ATOM     29  H   UNL     1       5.987   2.750  16.094  0.00  0.00    +0.000 HD
ATOM     30  H   UNL     1       6.440   6.313  14.178  0.00  0.00    +0.000 HD
ENDBRANCH   1  22
TORSDOF 2
ENDMDL
MODEL 8
REMARK VINA RESULT:      -9.3      1.349      1.890
REMARK  Name = 
REMARK  3 active torsions:
REMARK  status: ('A' for Active; 'I' for Inactive)
REMARK    1  A    between atoms: C_1  and  C_2
REMARK    2  A    between atoms: C_2  and  C_3
REMARK    3  A    between atoms: C_7  and  C_8
REMARK                            x       y       z     vdW  Elec       q    Type
REMARK                         _______ _______ _______ _____ _____    ______ ____
ROOT
ATOM      1  C   UNL     1       2.674   6.029  19.176  0.00  0.00    +0.000 A 
ATOM      2  C   UNL     1       3.094   6.495  17.917  0.00  0.00    +0.000 A 
ATOM      3  C   UNL     1       2.871   7.816  17.523  0.00  0.00    +0.000 A 
ATOM      4  C   UNL     1       2.214   8.707  18.374  0.00  0.00    +0.000 A 
ATOM      5  C   UNL     1       1.813   8.297  19.650  0.00  0.00    +0.000 A 
ATOM      6  C   UNL     1       2.030   6.954  20.031  0.00  0.00    +0.000 A 
ENDROOT
BRANCH   5   7
ATOM      7  C   UNL     1       1.019   9.179  20.568  0.00  0.00    +0.000 C 
ATOM      8  O   UNL     1       1.188   9.011  21.777  0.00  0.00    +0.000 OA
ATOM      9  N   UNL     1       0.129  10.143  20.089  0.00  0.00    +0.000 N 
ATOM     10  C   UNL     1      -0.762  10.838  21.061  0.00  0.00    +0.000 C 
ATOM     11  C   UNL     1      -1.416  12.122  20.490  0.00  0.00    +0.000 C 
ATOM     12  C   UNL     1      -2.123  11.697  19.225  0.00  0.00    +0.000 A 
ATOM     13  C   UNL     1      -3.487  11.881  19.014  0.00  0.00    +0.000 A 
ATOM     14  F   UNL     1      -4.196  12.677  19.825  0.00  0.00    +0.000 F 
ATOM     15  C   UNL     1      -4.144  11.159  18.022  0.00  0.00    +0.000 A 
ATOM     16  C   UNL     1      -3.426  10.269  17.216  0.00  0.00    +0.000 A 
ATOM     17  C   UNL     1      -2.047  10.148  17.374  0.00  0.00    +0.000 A 
ATOM     18  F   UNL     1      -1.377   9.257  16.631  0.00  0.00    +0.000 F 
ATOM     19  C   UNL     1      -1.384  10.863  18.361  0.00  0.00    +0.000 A 
ATOM     20  C   UNL     1       0.059  10.627  18.709  0.00  0.00    +0.000 C 
ENDBRANCH   5   7
BRANCH   1  22
ATOM     21  C   UNL     1       2.584   4.231  21.010  0.00  0.00    +0.000 C 
ATOM     22  C   UNL     1       2.882   4.557  19.541  0.00  0.00    +0.000 C 
ATOM     23  N   UNL     1       2.141   3.640  18.696  0.00  0.00    +0.000 N 
ATOM     24  C   UNL     1       2.951   2.730  18.073  0.00  0.00    +0.000 C 
ATOM     25  O   UNL     1       2.557   1.756  17.449  0.00  0.00    +0.000 OA
ATOM     26  N   UNL     1       4.239   3.052  18.311  0.00  0.00    +0.000 N 
ATOM     27  C   UNL     1       4.311   4.067  19.218  0.00  0.00    +0.000 C 
ATOM     28  O   UNL     1       5.357   4.466  19.717  0.00  0.00    +0.000 OA
ATOM     29  H   UNL     1       1.140   3.496  18.729  0.00  0.00    +0.000 HD
ATOM     30  H   UNL     1       5.022   2.517  17.988  0.00  0.00    +0.000 HD
ENDBRANCH   1  22
TORSDOF 2
ENDMDL
MODEL 9
REMARK VINA RESULT:      -9.3      3.363      8.242
REMARK  Name = 
REMARK  3 active torsions:
REMARK  status: ('A' for Active; 'I' for Inactive)
REMARK    1  A    between atoms: C_1  and  C_2
REMARK    2  A    between atoms: C_2  and  C_3
REMARK    3  A    between atoms: C_7  and  C_8
REMARK                            x       y       z     vdW  Elec       q    Type
REMARK                         _______ _______ _______ _____ _____    ______ ____
ROOT
ATOM      1  C   UNL     1      -0.349  10.487  19.508  0.00  0.00    +0.000 A 
ATOM      2  C   UNL     1      -0.428  10.111  20.861  0.00  0.00    +0.000 A 
ATOM      3  C   UNL     1       0.405   9.122  21.388  0.00  0.00    +0.000 A 
ATOM      4  C   UNL     1       1.335   8.472  20.574  0.00  0.00    +0.000 A 
ATOM      5  C   UNL     1       1.474   8.841  19.231  0.00  0.00    +0.000 A 
ATOM      6  C   UNL     1       0.615   9.832  18.707  0.00  0.00    +0.000 A 
ENDROOT
BRANCH   5   7
ATOM      7  C   UNL     1       2.385   8.114  18.286  0.00  0.00    +0.000 C 
ATOM      8  O   UNL     1       2.725   8.723  17.270  0.00  0.00    +0.000 OA
ATOM      9  N   UNL     1       2.832   6.815  18.534  0.00  0.00    +0.000 N 
ATOM     10  C   UNL     1       3.572   6.095  17.457  0.00  0.00    +0.000 C 
ATOM     11  C   UNL     1       4.333   4.843  17.961  0.00  0.00    +0.000 C 
ATOM     12  C   UNL     1       3.301   3.986  18.655  0.00  0.00    +0.000 A 
ATOM     13  C   UNL     1       3.025   2.673  18.286  0.00  0.00    +0.000 A 
ATOM     14  F   UNL     1       3.843   2.018  17.451  0.00  0.00    +0.000 F 
ATOM     15  C   UNL     1       1.843   2.065  18.697  0.00  0.00    +0.000 A 
ATOM     16  C   UNL     1       0.945   2.766  19.510  0.00  0.00    +0.000 A 
ATOM     17  C   UNL     1       1.261   4.050  19.947  0.00  0.00    +0.000 A 
ATOM     18  F   UNL     1       0.373   4.730  20.683  0.00  0.00    +0.000 F 
ATOM     19  C   UNL     1       2.438   4.664  19.541  0.00  0.00    +0.000 A 
ATOM     20  C   UNL     1       2.739   6.111  19.814  0.00  0.00    +0.000 C 
ENDBRANCH   5   7
BRANCH   1  22
ATOM     21  C   UNL     1      -1.901  11.180  17.581  0.00  0.00    +0.000 C 
ATOM     22  C   UNL     1      -1.325  11.530  18.959  0.00  0.00    +0.000 C 
ATOM     23  N   UNL     1      -2.419  11.834  19.862  0.00  0.00    +0.000 N 
ATOM     24  C   UNL     1      -2.484  13.164  20.177  0.00  0.00    +0.000 C 
ATOM     25  O   UNL     1      -3.408  13.695  20.777  0.00  0.00    +0.000 OA
ATOM     26  N   UNL     1      -1.405  13.791  19.667  0.00  0.00    +0.000 N 
ATOM     27  C   UNL     1      -0.694  12.938  18.876  0.00  0.00    +0.000 C 
ATOM     28  O   UNL     1       0.255  13.280  18.181  0.00  0.00    +0.000 OA
ATOM     29  H   UNL     1      -3.200  11.222  20.059  0.00  0.00    +0.000 HD
ATOM     30  H   UNL     1      -1.242  14.777  19.736  0.00  0.00    +0.000 HD
ENDBRANCH   1  22
TORSDOF 2
ENDMDL
