MODEL 1
REMARK VINA RESULT:      -8.0      0.000      0.000
REMARK  Name = 
REMARK  5 active torsions:
REMARK  status: ('A' for Active; 'I' for Inactive)
REMARK    1  A    between atoms: S_2  and  N_4
REMARK    2  A    between atoms: S_2  and  C_20
REMARK    3  A    between atoms: N_4  and  C_5
REMARK    4  A    between atoms: C_10  and  S_11
REMARK    5  A    between atoms: S_11  and  N_14
REMARK                            x       y       z     vdW  Elec       q    Type
REMARK                         _______ _______ _______ _____ _____    ______ ____
ROOT
ATOM      1  N   UNL     1       4.150   2.540  18.624  0.00  0.00    +0.000 N 
ATOM      2  H   UNL     1       4.344   2.006  19.472  0.00  0.00    +0.000 HD
ENDROOT
BRANCH   1   3
ATOM      3  C   UNL     1       5.032   3.603  18.299  0.00  0.00    +0.000 A 
ATOM      4  C   UNL     1       5.599   4.338  19.338  0.00  0.00    +0.000 A 
ATOM      5  C   UNL     1       6.330   5.488  19.046  0.00  0.00    +0.000 A 
ATOM      6  C   UNL     1       6.525   5.889  17.717  0.00  0.00    +0.000 A 
ATOM      7 CL   UNL     1       7.171   7.473  17.505  0.00  0.00    +0.000 Cl
ATOM      8  C   UNL     1       6.087   5.061  16.681  0.00  0.00    +0.000 A 
ATOM      9  C   UNL     1       5.302   3.932  16.973  0.00  0.00    +0.000 A 
BRANCH   8  10
ATOM     10  S   UNL     1       6.434   5.388  14.976  0.00  0.00    +0.000 S 
ATOM     11  O   UNL     1       5.414   6.302  14.521  0.00  0.00    +0.000 OA
ATOM     12  O   UNL     1       7.843   5.684  14.789  0.00  0.00    +0.000 OA
BRANCH  10  13
ATOM     13  N   UNL     1       6.173   3.885  14.179  0.00  0.00    +0.000 NA
ATOM     14  C   UNL     1       7.153   3.500  13.125  0.00  0.00    +0.000 C 
ATOM     15  C   UNL     1       6.487   3.866  11.811  0.00  0.00    +0.000 C 
ATOM     16  C   UNL     1       5.034   3.520  12.060  0.00  0.00    +0.000 C 
ATOM     17  C   UNL     1       4.814   3.793  13.545  0.00  0.00    +0.000 C 
ENDBRANCH  10  13
ENDBRANCH   8  10
ENDBRANCH   1   3
BRANCH   1  19
ATOM     18  O   UNL     1       2.278   2.786  16.963  0.00  0.00    +0.000 OA
ATOM     19  S   UNL     1       2.496   2.761  18.392  0.00  0.00    +0.000 S 
ATOM     20  O   UNL     1       1.786   1.836  19.248  0.00  0.00    +0.000 OA
BRANCH  19  21
ATOM     21  C   UNL     1       2.251   4.410  18.997  0.00  0.00    +0.000 A 
ATOM     22  C   UNL     1       1.970   4.609  20.350  0.00  0.00    +0.000 A 
ATOM     23  C   UNL     1       1.738   5.903  20.816  0.00  0.00    +0.000 A 
ATOM     24  C   UNL     1       1.793   6.999  19.939  0.00  0.00    +0.000 A 
ATOM     25  C   UNL     1       1.572   8.308  20.395  0.00  0.00    +0.000 A 
ATOM     26  C   UNL     1       1.632   9.390  19.515  0.00  0.00    +0.000 A 
ATOM     27  C   UNL     1       1.910   9.179  18.167  0.00  0.00    +0.000 A 
ATOM     28  C   UNL     1       2.133   7.885  17.695  0.00  0.00    +0.000 A 
ATOM     29  C   UNL     1       2.082   6.787  18.568  0.00  0.00    +0.000 A 
ATOM     30  C   UNL     1       2.309   5.485  18.108  0.00  0.00    +0.000 A 
ENDBRANCH  19  21
ENDBRANCH   1  19
TORSDOF 5
ENDMDL
MODEL 2
REMARK VINA RESULT:      -7.7      4.168      7.702
REMARK  Name = 
REMARK  5 active torsions:
REMARK  status: ('A' for Active; 'I' for Inactive)
REMARK    1  A    between atoms: S_2  and  N_4
REMARK    2  A    between atoms: S_2  and  C_20
REMARK    3  A    between atoms: N_4  and  C_5
REMARK    4  A    between atoms: C_10  and  S_11
REMARK    5  A    between atoms: S_11  and  N_14
REMARK                            x       y       z     vdW  Elec       q    Type
REMARK                         _______ _______ _______ _____ _____    ______ ____
ROOT
ATOM      1  N   UNL     1       2.472   5.795  20.551  0.00  0.00    +0.000 N 
ATOM      2  H   UNL     1       2.095   5.690  21.493  0.00  0.00    +0.000 HD
ENDROOT
BRANCH   1   3
ATOM      3  C   UNL     1       2.189   7.000  19.856  0.00  0.00    +0.000 A 
ATOM      4  C   UNL     1       2.661   7.143  18.554  0.00  0.00    +0.000 A 
ATOM      5  C   UNL     1       2.545   8.374  17.913  0.00  0.00    +0.000 A 
ATOM      6  C   UNL     1       1.929   9.456  18.556  0.00  0.00    +0.000 A 
ATOM      7 CL   UNL     1       2.123  10.987  17.789  0.00  0.00    +0.000 Cl
ATOM      8  C   UNL     1       1.321   9.258  19.799  0.00  0.00    +0.000 A 
ATOM      9  C   UNL     1       1.486   8.033  20.469  0.00  0.00    +0.000 A 
BRANCH   8  10
ATOM     10  S   UNL     1       0.371  10.508  20.615  0.00  0.00    +0.000 S 
ATOM     11  O   UNL     1      -0.670   9.820  21.340  0.00  0.00    +0.000 OA
ATOM     12  O   UNL     1       1.243  11.460  21.280  0.00  0.00    +0.000 OA
BRANCH  10  13
ATOM     13  N   UNL     1      -0.381  11.388  19.343  0.00  0.00    +0.000 NA
ATOM     14  C   UNL     1      -0.876  12.756  19.667  0.00  0.00    +0.000 C 
ATOM     15  C   UNL     1      -2.366  12.592  19.909  0.00  0.00    +0.000 C 
ATOM     16  C   UNL     1      -2.764  11.558  18.877  0.00  0.00    +0.000 C 
ATOM     17  C   UNL     1      -1.543  10.653  18.736  0.00  0.00    +0.000 C 
ENDBRANCH  10  13
ENDBRANCH   8  10
ENDBRANCH   1   3
BRANCH   1  19
ATOM     18  O   UNL     1       2.648   3.288  20.667  0.00  0.00    +0.000 OA
ATOM     19  S   UNL     1       2.433   4.341  19.699  0.00  0.00    +0.000 S 
ATOM     20  O   UNL     1       1.273   4.348  18.835  0.00  0.00    +0.000 OA
BRANCH  19  21
ATOM     21  C   UNL     1       3.895   4.454  18.701  0.00  0.00    +0.000 A 
ATOM     22  C   UNL     1       5.120   4.735  19.309  0.00  0.00    +0.000 A 
ATOM     23  C   UNL     1       6.261   4.863  18.517  0.00  0.00    +0.000 A 
ATOM     24  C   UNL     1       6.186   4.705  17.123  0.00  0.00    +0.000 A 
ATOM     25  C   UNL     1       7.327   4.821  16.315  0.00  0.00    +0.000 A 
ATOM     26  C   UNL     1       7.242   4.659  14.931  0.00  0.00    +0.000 A 
ATOM     27  C   UNL     1       6.014   4.383  14.336  0.00  0.00    +0.000 A 
ATOM     28  C   UNL     1       4.868   4.263  15.123  0.00  0.00    +0.000 A 
ATOM     29  C   UNL     1       4.938   4.418  16.516  0.00  0.00    +0.000 A 
ATOM     30  C   UNL     1       3.797   4.295  17.317  0.00  0.00    +0.000 A 
ENDBRANCH  19  21
ENDBRANCH   1  19
TORSDOF 5
ENDMDL
MODEL 3
REMARK VINA RESULT:      -7.6      3.791      5.549
REMARK  Name = 
REMARK  5 active torsions:
REMARK  status: ('A' for Active; 'I' for Inactive)
REMARK    1  A    between atoms: S_2  and  N_4
REMARK    2  A    between atoms: S_2  and  C_20
REMARK    3  A    between atoms: N_4  and  C_5
REMARK    4  A    between atoms: C_10  and  S_11
REMARK    5  A    between atoms: S_11  and  N_14
REMARK                            x       y       z     vdW  Elec       q    Type
REMARK                         _______ _______ _______ _____ _____    ______ ____
ROOT
ATOM      1  N   UNL     1       2.296   8.424  19.565  0.00  0.00    +0.000 N 
ATOM      2  H   UNL     1       3.143   8.946  19.791  0.00  0.00    +0.000 HD
ENDROOT
BRANCH   1   3
ATOM      3  C   UNL     1       2.337   7.011  19.695  0.00  0.00    +0.000 A 
ATOM      4  C   UNL     1       1.413   6.394  20.536  0.00  0.00    +0.000 A 
ATOM      5  C   UNL     1       1.538   5.034  20.812  0.00  0.00    +0.000 A 
ATOM      6  C   UNL     1       2.564   4.281  20.227  0.00  0.00    +0.000 A 
ATOM      7 CL   UNL     1       2.796   2.703  20.882  0.00  0.00    +0.000 Cl
ATOM      8  C   UNL     1       3.387   4.874  19.266  0.00  0.00    +0.000 A 
ATOM      9  C   UNL     1       3.297   6.257  19.028  0.00  0.00    +0.000 A 
BRANCH   8  10
ATOM     10  S   UNL     1       4.597   3.969  18.344  0.00  0.00    +0.000 S 
ATOM     11  O   UNL     1       5.755   3.852  19.196  0.00  0.00    +0.000 OA
ATOM     12  O   UNL     1       3.999   2.799  17.727  0.00  0.00    +0.000 OA
BRANCH  10  13
ATOM     13  N   UNL     1       5.020   5.007  17.038  0.00  0.00    +0.000 NA
ATOM     14  C   UNL     1       4.945   4.433  15.666  0.00  0.00    +0.000 C 
ATOM     15  C   UNL     1       6.373   4.055  15.315  0.00  0.00    +0.000 C 
ATOM     16  C   UNL     1       7.181   5.177  15.932  0.00  0.00    +0.000 C 
ATOM     17  C   UNL     1       6.401   5.583  17.180  0.00  0.00    +0.000 C 
ENDBRANCH  10  13
ENDBRANCH   8  10
ENDBRANCH   1   3
BRANCH   1  19
ATOM     18  O   UNL     1       2.416   9.988  17.599  0.00  0.00    +0.000 OA
ATOM     19  S   UNL     1       1.484   9.092  18.249  0.00  0.00    +0.000 S 
ATOM     20  O   UNL     1       0.831   8.025  17.522  0.00  0.00    +0.000 OA
BRANCH  19  21
ATOM     21  C   UNL     1       0.249  10.090  19.039  0.00  0.00    +0.000 A 
ATOM     22  C   UNL     1      -0.694  10.760  18.258  0.00  0.00    +0.000 A 
ATOM     23  C   UNL     1      -1.639  11.576  18.880  0.00  0.00    +0.000 A 
ATOM     24  C   UNL     1      -1.651  11.720  20.278  0.00  0.00    +0.000 A 
ATOM     25  C   UNL     1      -2.602  12.530  20.917  0.00  0.00    +0.000 A 
ATOM     26  C   UNL     1      -2.607  12.664  22.307  0.00  0.00    +0.000 A 
ATOM     27  C   UNL     1      -1.659  11.993  23.075  0.00  0.00    +0.000 A 
ATOM     28  C   UNL     1      -0.705  11.183  22.457  0.00  0.00    +0.000 A 
ATOM     29  C   UNL     1      -0.691  11.034  21.062  0.00  0.00    +0.000 A 
ATOM     30  C   UNL     1       0.257  10.220  20.430  0.00  0.00    +0.000 A 
ENDBRANCH  19  21
ENDBRANCH   1  19
TORSDOF 5
ENDMDL
MODEL 4
REMARK VINA RESULT:      -7.6      4.224      7.727
REMARK  Name = 
REMARK  5 active torsions:
REMARK  status: ('A' for Active; 'I' for Inactive)
REMARK    1  A    between atoms: S_2  and  N_4
REMARK    2  A    between atoms: S_2  and  C_20
REMARK    3  A    between atoms: N_4  and  C_5
REMARK    4  A    between atoms: C_10  and  S_11
REMARK    5  A    between atoms: S_11  and  N_14
REMARK                            x       y       z     vdW  Elec       q    Type
REMARK                         _______ _______ _______ _____ _____    ______ ____
ROOT
ATOM      1  N   UNL     1       2.286   5.781  21.128  0.00  0.00    +0.000 N 
ATOM      2  H   UNL     1       2.065   5.843  22.122  0.00  0.00    +0.000 HD
ENDROOT
BRANCH   1   3
ATOM      3  C   UNL     1       2.007   6.913  20.319  0.00  0.00    +0.000 A 
ATOM      4  C   UNL     1       2.420   6.896  18.988  0.00  0.00    +0.000 A 
ATOM      5  C   UNL     1       2.312   8.054  18.221  0.00  0.00    +0.000 A 
ATOM      6  C   UNL     1       1.762   9.221  18.768  0.00  0.00    +0.000 A 
ATOM      7 CL   UNL     1       1.967  10.652  17.829  0.00  0.00    +0.000 Cl
ATOM      8  C   UNL     1       1.209   9.181  20.051  0.00  0.00    +0.000 A 
ATOM      9  C   UNL     1       1.368   8.032  20.844  0.00  0.00    +0.000 A 
BRANCH   8  10
ATOM     10  S   UNL     1       0.339  10.547  20.766  0.00  0.00    +0.000 S 
ATOM     11  O   UNL     1      -0.741   9.982  21.537  0.00  0.00    +0.000 OA
ATOM     12  O   UNL     1       1.269  11.491  21.359  0.00  0.00    +0.000 OA
BRANCH  10  13
ATOM     13  N   UNL     1      -0.358  11.372  19.427  0.00  0.00    +0.000 NA
ATOM     14  C   UNL     1      -0.709  12.807  19.625  0.00  0.00    +0.000 C 
ATOM     15  C   UNL     1      -2.200  12.816  19.908  0.00  0.00    +0.000 C 
ATOM     16  C   UNL     1      -2.725  11.733  18.990  0.00  0.00    +0.000 C 
ATOM     17  C   UNL     1      -1.603  10.701  18.916  0.00  0.00    +0.000 C 
ENDBRANCH  10  13
ENDBRANCH   8  10
ENDBRANCH   1   3
BRANCH   1  19
ATOM     18  O   UNL     1       2.439   3.297  21.495  0.00  0.00    +0.000 OA
ATOM     19  S   UNL     1       1.962   4.246  20.513  0.00  0.00    +0.000 S 
ATOM     20  O   UNL     1       0.595   4.221  20.041  0.00  0.00    +0.000 OA
BRANCH  19  21
ATOM     21  C   UNL     1       3.054   4.165  19.118  0.00  0.00    +0.000 A 
ATOM     22  C   UNL     1       2.563   3.730  17.886  0.00  0.00    +0.000 A 
ATOM     23  C   UNL     1       3.433   3.628  16.802  0.00  0.00    +0.000 A 
ATOM     24  C   UNL     1       4.789   3.967  16.938  0.00  0.00    +0.000 A 
ATOM     25  C   UNL     1       5.674   3.879  15.853  0.00  0.00    +0.000 A 
ATOM     26  C   UNL     1       7.020   4.221  15.999  0.00  0.00    +0.000 A 
ATOM     27  C   UNL     1       7.500   4.651  17.234  0.00  0.00    +0.000 A 
ATOM     28  C   UNL     1       6.635   4.745  18.325  0.00  0.00    +0.000 A 
ATOM     29  C   UNL     1       5.279   4.411  18.192  0.00  0.00    +0.000 A 
ATOM     30  C   UNL     1       4.400   4.506  19.277  0.00  0.00    +0.000 A 
ENDBRANCH  19  21
ENDBRANCH   1  19
TORSDOF 5
ENDMDL
MODEL 5
REMARK VINA RESULT:      -7.6      3.981      5.567
REMARK  Name = 
REMARK  5 active torsions:
REMARK  status: ('A' for Active; 'I' for Inactive)
REMARK    1  A    between atoms: S_2  and  N_4
REMARK    2  A    between atoms: S_2  and  C_20
REMARK    3  A    between atoms: N_4  and  C_5
REMARK    4  A    between atoms: C_10  and  S_11
REMARK    5  A    between atoms: S_11  and  N_14
REMARK                            x       y       z     vdW  Elec       q    Type
REMARK                         _______ _______ _______ _____ _____    ______ ____
ROOT
ATOM      1  N   UNL     1       1.903   8.320  19.810  0.00  0.00    +0.000 N 
ATOM      2  H   UNL     1       2.460   8.915  20.422  0.00  0.00    +0.000 HD
ENDROOT
BRANCH   1   3
ATOM      3  C   UNL     1       2.114   6.918  19.882  0.00  0.00    +0.000 A 
ATOM      4  C   UNL     1       1.272   6.161  20.694  0.00  0.00    +0.000 A 
ATOM      5  C   UNL     1       1.560   4.816  20.915  0.00  0.00    +0.000 A 
ATOM      6  C   UNL     1       2.669   4.215  20.303  0.00  0.00    +0.000 A 
ATOM      7 CL   UNL     1       3.090   2.652  20.895  0.00  0.00    +0.000 Cl
ATOM      8  C   UNL     1       3.413   4.942  19.370  0.00  0.00    +0.000 A 
ATOM      9  C   UNL     1       3.157   6.312  19.188  0.00  0.00    +0.000 A 
BRANCH   8  10
ATOM     10  S   UNL     1       4.721   4.227  18.416  0.00  0.00    +0.000 S 
ATOM     11  O   UNL     1       5.843   4.077  19.311  0.00  0.00    +0.000 OA
ATOM     12  O   UNL     1       4.230   3.105  17.635  0.00  0.00    +0.000 OA
BRANCH  10  13
ATOM     13  N   UNL     1       5.136   5.437  17.265  0.00  0.00    +0.000 NA
ATOM     14  C   UNL     1       5.268   5.004  15.846  0.00  0.00    +0.000 C 
ATOM     15  C   UNL     1       6.759   4.831  15.621  0.00  0.00    +0.000 C 
ATOM     16  C   UNL     1       7.357   5.968  16.423  0.00  0.00    +0.000 C 
ATOM     17  C   UNL     1       6.414   6.150  17.609  0.00  0.00    +0.000 C 
ENDBRANCH  10  13
ENDBRANCH   8  10
ENDBRANCH   1   3
BRANCH   1  19
ATOM     18  O   UNL     1       2.740   9.984  18.119  0.00  0.00    +0.000 OA
ATOM     19  S   UNL     1       1.671   9.026  18.298  0.00  0.00    +0.000 S 
ATOM     20  O   UNL     1       1.429   7.976  17.333  0.00  0.00    +0.000 OA
BRANCH  19  21
ATOM     21  C   UNL     1       0.171   9.941  18.540  0.00  0.00    +0.000 A 
ATOM     22  C   UNL     1       0.063  10.804  19.633  0.00  0.00    +0.000 A 
ATOM     23  C   UNL     1      -1.132  11.491  19.844  0.00  0.00    +0.000 A 
ATOM     24  C   UNL     1      -2.216  11.328  18.965  0.00  0.00    +0.000 A 
ATOM     25  C   UNL     1      -3.420  12.021  19.159  0.00  0.00    +0.000 A 
ATOM     26  C   UNL     1      -4.490  11.854  18.278  0.00  0.00    +0.000 A 
ATOM     27  C   UNL     1      -4.372  10.989  17.193  0.00  0.00    +0.000 A 
ATOM     28  C   UNL     1      -3.182  10.292  16.983  0.00  0.00    +0.000 A 
ATOM     29  C   UNL     1      -2.095  10.453  17.857  0.00  0.00    +0.000 A 
ATOM     30  C   UNL     1      -0.894   9.763  17.654  0.00  0.00    +0.000 A 
ENDBRANCH  19  21
ENDBRANCH   1  19
TORSDOF 5
ENDMDL
MODEL 6
REMARK VINA RESULT:      -7.6      5.506      7.658
REMARK  Name = 
REMARK  5 active torsions:
REMARK  status: ('A' for Active; 'I' for Inactive)
REMARK    1  A    between atoms: S_2  and  N_4
REMARK    2  A    between atoms: S_2  and  C_20
REMARK    3  A    between atoms: N_4  and  C_5
REMARK    4  A    between atoms: C_10  and  S_11
REMARK    5  A    between atoms: S_11  and  N_14
REMARK                            x       y       z     vdW  Elec       q    Type
REMARK                         _______ _______ _______ _____ _____    ______ ____
ROOT
ATOM      1  N   UNL     1      -0.078   9.163  21.030  0.00  0.00    +0.000 N 
ATOM      2  H   UNL     1      -0.704   8.478  21.454  0.00  0.00    +0.000 HD
ENDROOT
BRANCH   1   3
ATOM      3  C   UNL     1       0.956   8.680  20.186  0.00  0.00    +0.000 A 
ATOM      4  C   UNL     1       1.394   9.492  19.142  0.00  0.00    +0.000 A 
ATOM      5  C   UNL     1       2.283   8.978  18.200  0.00  0.00    +0.000 A 
ATOM      6  C   UNL     1       2.761   7.666  18.315  0.00  0.00    +0.000 A 
ATOM      7 CL   UNL     1       3.598   7.056  16.937  0.00  0.00    +0.000 Cl
ATOM      8  C   UNL     1       2.438   6.916  19.449  0.00  0.00    +0.000 A 
ATOM      9  C   UNL     1       1.499   7.412  20.369  0.00  0.00    +0.000 A 
BRANCH   8  10
ATOM     10  S   UNL     1       3.126   5.318  19.773  0.00  0.00    +0.000 S 
ATOM     11  O   UNL     1       4.552   5.445  19.596  0.00  0.00    +0.000 OA
ATOM     12  O   UNL     1       2.570   4.760  20.993  0.00  0.00    +0.000 OA
BRANCH  10  13
ATOM     13  N   UNL     1       2.535   4.319  18.503  0.00  0.00    +0.000 NA
ATOM     14  C   UNL     1       1.402   3.409  18.829  0.00  0.00    +0.000 C 
ATOM     15  C   UNL     1       2.038   2.053  19.072  0.00  0.00    +0.000 C 
ATOM     16  C   UNL     1       3.145   2.009  18.040  0.00  0.00    +0.000 C 
ATOM     17  C   UNL     1       3.606   3.457  17.896  0.00  0.00    +0.000 C 
ENDBRANCH  10  13
ENDBRANCH   8  10
ENDBRANCH   1   3
BRANCH   1  19
ATOM     18  O   UNL     1       0.336   9.855  23.413  0.00  0.00    +0.000 OA
ATOM     19  S   UNL     1       0.266  10.429  22.088  0.00  0.00    +0.000 S 
ATOM     20  O   UNL     1       1.361  11.200  21.540  0.00  0.00    +0.000 OA
BRANCH  19  21
ATOM     21  C   UNL     1      -1.217  11.398  22.005  0.00  0.00    +0.000 A 
ATOM     22  C   UNL     1      -1.558  12.030  20.807  0.00  0.00    +0.000 A 
ATOM     23  C   UNL     1      -2.703  12.824  20.756  0.00  0.00    +0.000 A 
ATOM     24  C   UNL     1      -3.515  12.983  21.892  0.00  0.00    +0.000 A 
ATOM     25  C   UNL     1      -4.675  13.771  21.852  0.00  0.00    +0.000 A 
ATOM     26  C   UNL     1      -5.476  13.919  22.986  0.00  0.00    +0.000 A 
ATOM     27  C   UNL     1      -5.125  13.286  24.176  0.00  0.00    +0.000 A 
ATOM     28  C   UNL     1      -3.975  12.499  24.235  0.00  0.00    +0.000 A 
ATOM     29  C   UNL     1      -3.163  12.335  23.102  0.00  0.00    +0.000 A 
ATOM     30  C   UNL     1      -2.009  11.543  23.146  0.00  0.00    +0.000 A 
ENDBRANCH  19  21
ENDBRANCH   1  19
TORSDOF 5
ENDMDL
MODEL 7
REMARK VINA RESULT:      -7.3      3.513      5.109
REMARK  Name = 
REMARK  5 active torsions:
REMARK  status: ('A' for Active; 'I' for Inactive)
REMARK    1  A    between atoms: S_2  and  N_4
REMARK    2  A    between atoms: S_2  and  C_20
REMARK    3  A    between atoms: N_4  and  C_5
REMARK    4  A    between atoms: C_10  and  S_11
REMARK    5  A    between atoms: S_11  and  N_14
REMARK                            x       y       z     vdW  Elec       q    Type
REMARK                         _______ _______ _______ _____ _____    ______ ____
ROOT
ATOM      1  N   UNL     1       2.950   8.327  18.809  0.00  0.00    +0.000 N 
ATOM      2  H   UNL     1       3.761   8.918  18.990  0.00  0.00    +0.000 HD
ENDROOT
BRANCH   1   3
ATOM      3  C   UNL     1       3.185   7.025  18.295  0.00  0.00    +0.000 A 
ATOM      4  C   UNL     1       2.435   5.966  18.802  0.00  0.00    +0.000 A 
ATOM      5  C   UNL     1       2.760   4.660  18.440  0.00  0.00    +0.000 A 
ATOM      6  C   UNL     1       3.811   4.410  17.548  0.00  0.00    +0.000 A 
ATOM      7 CL   UNL     1       4.307   2.763  17.425  0.00  0.00    +0.000 Cl
ATOM      8  C   UNL     1       4.452   5.484  16.926  0.00  0.00    +0.000 A 
ATOM      9  C   UNL     1       4.163   6.799  17.331  0.00  0.00    +0.000 A 
BRANCH   8  10
ATOM     10  S   UNL     1       5.670   5.275  15.659  0.00  0.00    +0.000 S 
ATOM     11  O   UNL     1       5.558   3.909  15.208  0.00  0.00    +0.000 OA
ATOM     12  O   UNL     1       5.625   6.380  14.719  0.00  0.00    +0.000 OA
BRANCH  10  13
ATOM     13  N   UNL     1       7.179   5.429  16.472  0.00  0.00    +0.000 NA
ATOM     14  C   UNL     1       7.411   4.537  17.643  0.00  0.00    +0.000 C 
ATOM     15  C   UNL     1       7.112   5.393  18.860  0.00  0.00    +0.000 C 
ATOM     16  C   UNL     1       7.654   6.749  18.460  0.00  0.00    +0.000 C 
ATOM     17  C   UNL     1       7.440   6.829  16.951  0.00  0.00    +0.000 C 
ENDBRANCH  10  13
ENDBRANCH   8  10
ENDBRANCH   1   3
BRANCH   1  19
ATOM     18  O   UNL     1       2.216  10.408  17.601  0.00  0.00    +0.000 OA
ATOM     19  S   UNL     1       1.655   9.216  18.200  0.00  0.00    +0.000 S 
ATOM     20  O   UNL     1       0.799   8.324  17.448  0.00  0.00    +0.000 OA
BRANCH  19  21
ATOM     21  C   UNL     1       0.813   9.710  19.681  0.00  0.00    +0.000 A 
ATOM     22  C   UNL     1       1.019   8.991  20.860  0.00  0.00    +0.000 A 
ATOM     23  C   UNL     1       0.326   9.356  22.012  0.00  0.00    +0.000 A 
ATOM     24  C   UNL     1      -0.567  10.441  21.997  0.00  0.00    +0.000 A 
ATOM     25  C   UNL     1      -1.265  10.826  23.152  0.00  0.00    +0.000 A 
ATOM     26  C   UNL     1      -2.147  11.907  23.126  0.00  0.00    +0.000 A 
ATOM     27  C   UNL     1      -2.348  12.615  21.943  0.00  0.00    +0.000 A 
ATOM     28  C   UNL     1      -1.663  12.247  20.785  0.00  0.00    +0.000 A 
ATOM     29  C   UNL     1      -0.768  11.166  20.796  0.00  0.00    +0.000 A 
ATOM     30  C   UNL     1      -0.071  10.791  19.642  0.00  0.00    +0.000 A 
ENDBRANCH  19  21
ENDBRANCH   1  19
TORSDOF 5
ENDMDL
MODEL 8
REMARK VINA RESULT:      -7.3      8.053     11.589
REMARK  Name = 
REMARK  5 active torsions:
REMARK  status: ('A' for Active; 'I' for Inactive)
REMARK    1  A    between atoms: S_2  and  N_4
REMARK    2  A    between atoms: S_2  and  C_20
REMARK    3  A    between atoms: N_4  and  C_5
REMARK    4  A    between atoms: C_10  and  S_11
REMARK    5  A    between atoms: S_11  and  N_14
REMARK                            x       y       z     vdW  Elec       q    Type
REMARK                         _______ _______ _______ _____ _____    ______ ____
ROOT
ATOM      1  N   UNL     1      -0.473  11.672  18.920  0.00  0.00    +0.000 N 
ATOM      2  H   UNL     1      -0.092  12.571  18.624  0.00  0.00    +0.000 HD
ENDROOT
BRANCH   1   3
ATOM      3  C   UNL     1      -1.877  11.490  18.831  0.00  0.00    +0.000 A 
ATOM      4  C   UNL     1      -2.364  10.462  18.026  0.00  0.00    +0.000 A 
ATOM      5  C   UNL     1      -3.734  10.368  17.788  0.00  0.00    +0.000 A 
ATOM      6  C   UNL     1      -4.623  11.277  18.377  0.00  0.00    +0.000 A 
ATOM      7 CL   UNL     1      -6.234  11.245  17.764  0.00  0.00    +0.000 Cl
ATOM      8  C   UNL     1      -4.140  12.203  19.304  0.00  0.00    +0.000 A 
ATOM      9  C   UNL     1      -2.755  12.336  19.503  0.00  0.00    +0.000 A 
BRANCH   8  10
ATOM     10  S   UNL     1      -5.199  13.277  20.231  0.00  0.00    +0.000 S 
ATOM     11  O   UNL     1      -4.343  14.265  20.842  0.00  0.00    +0.000 OA
ATOM     12  O   UNL     1      -6.349  13.671  19.438  0.00  0.00    +0.000 OA
BRANCH  10  13
ATOM     13  N   UNL     1      -5.830  12.290  21.492  0.00  0.00    +0.000 NA
ATOM     14  C   UNL     1      -7.299  12.048  21.490  0.00  0.00    +0.000 C 
ATOM     15  C   UNL     1      -7.865  13.026  22.503  0.00  0.00    +0.000 C 
ATOM     16  C   UNL     1      -6.812  13.032  23.591  0.00  0.00    +0.000 C 
ATOM     17  C   UNL     1      -5.490  12.811  22.860  0.00  0.00    +0.000 C 
ENDBRANCH  10  13
ENDBRANCH   8  10
ENDBRANCH   1   3
BRANCH   1  19
ATOM     18  O   UNL     1       1.355  12.035  20.610  0.00  0.00    +0.000 OA
ATOM     19  S   UNL     1       0.339  11.064  20.265  0.00  0.00    +0.000 S 
ATOM     20  O   UNL     1      -0.642  10.622  21.232  0.00  0.00    +0.000 OA
BRANCH  19  21
ATOM     21  C   UNL     1       1.165   9.646  19.593  0.00  0.00    +0.000 A 
ATOM     22  C   UNL     1       1.629   9.682  18.276  0.00  0.00    +0.000 A 
ATOM     23  C   UNL     1       2.241   8.551  17.737  0.00  0.00    +0.000 A 
ATOM     24  C   UNL     1       2.400   7.387  18.508  0.00  0.00    +0.000 A 
ATOM     25  C   UNL     1       3.023   6.246  17.982  0.00  0.00    +0.000 A 
ATOM     26  C   UNL     1       3.178   5.095  18.758  0.00  0.00    +0.000 A 
ATOM     27  C   UNL     1       2.708   5.070  20.068  0.00  0.00    +0.000 A 
ATOM     28  C   UNL     1       2.086   6.195  20.609  0.00  0.00    +0.000 A 
ATOM     29  C   UNL     1       1.928   7.361  19.844  0.00  0.00    +0.000 A 
ATOM     30  C   UNL     1       1.311   8.499  20.376  0.00  0.00    +0.000 A 
ENDBRANCH  19  21
ENDBRANCH   1  19
TORSDOF 5
ENDMDL
MODEL 9
REMARK VINA RESULT:      -7.3      7.929     11.595
REMARK  Name = 
REMARK  5 active torsions:
REMARK  status: ('A' for Active; 'I' for Inactive)
REMARK    1  A    between atoms: S_2  and  N_4
REMARK    2  A    between atoms: S_2  and  C_20
REMARK    3  A    between atoms: N_4  and  C_5
REMARK    4  A    between atoms: C_10  and  S_11
REMARK    5  A    between atoms: S_11  and  N_14
REMARK                            x       y       z     vdW  Elec       q    Type
REMARK                         _______ _______ _______ _____ _____    ______ ____
ROOT
ATOM      1  N   UNL     1      -0.379  12.031  19.417  0.00  0.00    +0.000 N 
ATOM      2  H   UNL     1      -0.068  13.001  19.365  0.00  0.00    +0.000 HD
ENDROOT
BRANCH   1   3
ATOM      3  C   UNL     1      -1.738  11.756  19.116  0.00  0.00    +0.000 A 
ATOM      4  C   UNL     1      -2.024  10.911  18.046  0.00  0.00    +0.000 A 
ATOM      5  C   UNL     1      -3.343  10.760  17.624  0.00  0.00    +0.000 A 
ATOM      6  C   UNL     1      -4.383  11.424  18.287  0.00  0.00    +0.000 A 
ATOM      7 CL   UNL     1      -5.910  11.402  17.488  0.00  0.00    +0.000 Cl
ATOM      8  C   UNL     1      -4.103  12.142  19.453  0.00  0.00    +0.000 A 
ATOM      9  C   UNL     1      -2.768  12.341  19.847  0.00  0.00    +0.000 A 
BRANCH   8  10
ATOM     10  S   UNL     1      -5.362  12.872  20.459  0.00  0.00    +0.000 S 
ATOM     11  O   UNL     1      -5.951  13.929  19.672  0.00  0.00    +0.000 OA
ATOM     12  O   UNL     1      -6.187  11.845  21.071  0.00  0.00    +0.000 OA
BRANCH  10  13
ATOM     13  N   UNL     1      -4.512  13.610  21.760  0.00  0.00    +0.000 NA
ATOM     14  C   UNL     1      -4.692  13.010  23.112  0.00  0.00    +0.000 C 
ATOM     15  C   UNL     1      -5.721  13.887  23.802  0.00  0.00    +0.000 C 
ATOM     16  C   UNL     1      -5.361  15.276  23.318  0.00  0.00    +0.000 C 
ATOM     17  C   UNL     1      -4.826  15.073  21.903  0.00  0.00    +0.000 C 
ENDBRANCH  10  13
ENDBRANCH   8  10
ENDBRANCH   1   3
BRANCH   1  19
ATOM     18  O   UNL     1       1.402  12.071  21.193  0.00  0.00    +0.000 OA
ATOM     19  S   UNL     1       0.348  11.213  20.699  0.00  0.00    +0.000 S 
ATOM     20  O   UNL     1      -0.692  10.714  21.572  0.00  0.00    +0.000 OA
BRANCH  19  21
ATOM     21  C   UNL     1       1.117   9.842  19.878  0.00  0.00    +0.000 A 
ATOM     22  C   UNL     1       1.548   9.987  18.557  0.00  0.00    +0.000 A 
ATOM     23  C   UNL     1       2.115   8.896  17.901  0.00  0.00    +0.000 A 
ATOM     24  C   UNL     1       2.263   7.663  18.559  0.00  0.00    +0.000 A 
ATOM     25  C   UNL     1       2.842   6.559  17.914  0.00  0.00    +0.000 A 
ATOM     26  C   UNL     1       2.987   5.340  18.578  0.00  0.00    +0.000 A 
ATOM     27  C   UNL     1       2.551   5.206  19.894  0.00  0.00    +0.000 A 
ATOM     28  C   UNL     1       1.973   6.292  20.552  0.00  0.00    +0.000 A 
ATOM     29  C   UNL     1       1.826   7.526  19.900  0.00  0.00    +0.000 A 
ATOM     30  C   UNL     1       1.253   8.625  20.550  0.00  0.00    +0.000 A 
ENDBRANCH  19  21
ENDBRANCH   1  19
TORSDOF 5
ENDMDL
