MODEL 1
REMARK VINA RESULT:      -8.6      0.000      0.000
REMARK  Name = 
REMARK  5 active torsions:
REMARK  status: ('A' for Active; 'I' for Inactive)
REMARK    1  A    between atoms: C_1  and  S_2
REMARK    2  A    between atoms: S_2  and  C_5
REMARK    3  A    between atoms: C_8  and  C_9
REMARK    4  A    between atoms: C_15  and  C_16
REMARK    5  A    between atoms: C_16  and  C_17
REMARK                            x       y       z     vdW  Elec       q    Type
REMARK                         _______ _______ _______ _____ _____    ______ ____
ROOT
ATOM      1  C   UNL     1      -0.440  11.058  19.851  0.00  0.00    +0.000 C 
ATOM      2  O   UNL     1      -0.514  11.528  18.722  0.00  0.00    +0.000 OA
ATOM      3  N   UNL     1       0.335   9.995  20.261  0.00  0.00    +0.000 N 
ATOM      4  C   UNL     1       1.179   9.363  19.388  0.00  0.00    +0.000 A 
ATOM      5  N   UNL     1       1.593   9.755  18.213  0.00  0.00    +0.000 NA
ATOM      6  C   UNL     1       2.348   8.759  17.636  0.00  0.00    +0.000 A 
ATOM      7  C   UNL     1       2.495   7.609  18.387  0.00  0.00    +0.000 A 
ATOM      8  S   UNL     1       1.747   7.843  19.920  0.00  0.00    +0.000 S 
ATOM      9  H   UNL     1       0.180   9.542  21.147  0.00  0.00    +0.000 HD
ENDROOT
BRANCH   1  13
ATOM     10  C   UNL     1      -3.003  12.601  22.909  0.00  0.00    +0.000 A 
ATOM     11  C   UNL     1      -1.974  11.717  23.238  0.00  0.00    +0.000 A 
ATOM     12  C   UNL     1      -1.142  11.232  22.227  0.00  0.00    +0.000 A 
ATOM     13  C   UNL     1      -1.337  11.630  20.895  0.00  0.00    +0.000 A 
ATOM     14  C   UNL     1      -2.388  12.500  20.574  0.00  0.00    +0.000 A 
ATOM     15  C   UNL     1      -3.225  12.985  21.582  0.00  0.00    +0.000 A 
BRANCH  10  17
ATOM     16  C   UNL     1      -5.303  14.118  23.280  0.00  0.00    +0.000 C 
ATOM     17  S   UNL     1      -4.089  13.197  24.187  0.00  0.00    +0.000 S 
ATOM     18  O   UNL     1      -3.335  14.126  25.007  0.00  0.00    +0.000 OA
ATOM     19  O   UNL     1      -4.742  12.042  24.773  0.00  0.00    +0.000 OA
ENDBRANCH  10  17
ENDBRANCH   1  13
BRANCH   7  20
ATOM     20  C   UNL     1       3.164   6.325  18.015  0.00  0.00    +0.000 C 
BRANCH  20  21
ATOM     21  C   UNL     1       2.683   5.163  18.855  0.00  0.00    +0.000 A 
ATOM     22  C   UNL     1       3.293   4.854  20.085  0.00  0.00    +0.000 A 
ATOM     23  C   UNL     1       2.861   3.753  20.831  0.00  0.00    +0.000 A 
ATOM     24  C   UNL     1       1.827   2.955  20.350  0.00  0.00    +0.000 A 
ATOM     25  F   UNL     1       1.425   1.899  21.070  0.00  0.00    +0.000 F 
ATOM     26  C   UNL     1       1.218   3.244  19.136  0.00  0.00    +0.000 A 
ATOM     27  F   UNL     1       0.225   2.469  18.679  0.00  0.00    +0.000 F 
ATOM     28  C   UNL     1       1.645   4.341  18.397  0.00  0.00    +0.000 A 
ATOM     29  F   UNL     1       1.051   4.613  17.224  0.00  0.00    +0.000 F 
ENDBRANCH  20  21
ENDBRANCH   7  20
TORSDOF 4
ENDMDL
MODEL 2
REMARK VINA RESULT:      -8.5      2.784      3.541
REMARK  Name = 
REMARK  5 active torsions:
REMARK  status: ('A' for Active; 'I' for Inactive)
REMARK    1  A    between atoms: C_1  and  S_2
REMARK    2  A    between atoms: S_2  and  C_5
REMARK    3  A    between atoms: C_8  and  C_9
REMARK    4  A    between atoms: C_15  and  C_16
REMARK    5  A    between atoms: C_16  and  C_17
REMARK                            x       y       z     vdW  Elec       q    Type
REMARK                         _______ _______ _______ _____ _____    ______ ____
ROOT
ATOM      1  C   UNL     1       0.242  10.042  19.970  0.00  0.00    +0.000 C 
ATOM      2  O   UNL     1       0.330  10.392  18.800  0.00  0.00    +0.000 OA
ATOM      3  N   UNL     1       0.823   8.936  20.554  0.00  0.00    +0.000 N 
ATOM      4  C   UNL     1       1.639   8.108  19.832  0.00  0.00    +0.000 A 
ATOM      5  N   UNL     1       2.201   8.312  18.671  0.00  0.00    +0.000 NA
ATOM      6  C   UNL     1       2.854   7.169  18.268  0.00  0.00    +0.000 A 
ATOM      7  C   UNL     1       2.773   6.097  19.137  0.00  0.00    +0.000 A 
ATOM      8  S   UNL     1       1.940   6.592  20.560  0.00  0.00    +0.000 S 
ATOM      9  H   UNL     1       0.531   8.605  21.460  0.00  0.00    +0.000 HD
ENDROOT
BRANCH   1  13
ATOM     10  C   UNL     1      -2.324  12.230  22.601  0.00  0.00    +0.000 A 
ATOM     11  C   UNL     1      -1.470  11.251  23.110  0.00  0.00    +0.000 A 
ATOM     12  C   UNL     1      -0.632  10.555  22.237  0.00  0.00    +0.000 A 
ATOM     13  C   UNL     1      -0.649  10.836  20.861  0.00  0.00    +0.000 A 
ATOM     14  C   UNL     1      -1.528  11.805  20.358  0.00  0.00    +0.000 A 
ATOM     15  C   UNL     1      -2.370  12.502  21.229  0.00  0.00    +0.000 A 
BRANCH  10  17
ATOM     16  C   UNL     1      -4.498  13.964  22.592  0.00  0.00    +0.000 C 
ATOM     17  S   UNL     1      -3.420  13.099  23.703  0.00  0.00    +0.000 S 
ATOM     18  O   UNL     1      -2.630  14.080  24.424  0.00  0.00    +0.000 OA
ATOM     19  O   UNL     1      -4.202  12.103  24.409  0.00  0.00    +0.000 OA
ENDBRANCH  10  17
ENDBRANCH   1  13
BRANCH   7  20
ATOM     20  C   UNL     1       3.283   4.703  18.957  0.00  0.00    +0.000 C 
BRANCH  20  21
ATOM     21  C   UNL     1       4.441   4.637  17.986  0.00  0.00    +0.000 A 
ATOM     22  C   UNL     1       4.252   4.210  16.659  0.00  0.00    +0.000 A 
ATOM     23  C   UNL     1       5.340   4.118  15.785  0.00  0.00    +0.000 A 
ATOM     24  C   UNL     1       6.616   4.443  16.234  0.00  0.00    +0.000 A 
ATOM     25  F   UNL     1       7.653   4.345  15.389  0.00  0.00    +0.000 F 
ATOM     26  C   UNL     1       6.820   4.862  17.542  0.00  0.00    +0.000 A 
ATOM     27  F   UNL     1       8.053   5.171  17.967  0.00  0.00    +0.000 F 
ATOM     28  C   UNL     1       5.738   4.957  18.409  0.00  0.00    +0.000 A 
ATOM     29  F   UNL     1       5.943   5.363  19.672  0.00  0.00    +0.000 F 
ENDBRANCH  20  21
ENDBRANCH   7  20
TORSDOF 4
ENDMDL
MODEL 3
REMARK VINA RESULT:      -8.2      2.810      3.722
REMARK  Name = 
REMARK  5 active torsions:
REMARK  status: ('A' for Active; 'I' for Inactive)
REMARK    1  A    between atoms: C_1  and  S_2
REMARK    2  A    between atoms: S_2  and  C_5
REMARK    3  A    between atoms: C_8  and  C_9
REMARK    4  A    between atoms: C_15  and  C_16
REMARK    5  A    between atoms: C_16  and  C_17
REMARK                            x       y       z     vdW  Elec       q    Type
REMARK                         _______ _______ _______ _____ _____    ______ ____
ROOT
ATOM      1  C   UNL     1       0.201  10.124  19.951  0.00  0.00    +0.000 C 
ATOM      2  O   UNL     1       0.243  10.438  18.768  0.00  0.00    +0.000 OA
ATOM      3  N   UNL     1       0.809   9.039  20.546  0.00  0.00    +0.000 N 
ATOM      4  C   UNL     1       1.601   8.191  19.818  0.00  0.00    +0.000 A 
ATOM      5  N   UNL     1       2.117   8.362  18.631  0.00  0.00    +0.000 NA
ATOM      6  C   UNL     1       2.759   7.209  18.239  0.00  0.00    +0.000 A 
ATOM      7  C   UNL     1       2.717   6.164  19.142  0.00  0.00    +0.000 A 
ATOM      8  S   UNL     1       1.937   6.700  20.580  0.00  0.00    +0.000 S 
ATOM      9  H   UNL     1       0.554   8.735  21.472  0.00  0.00    +0.000 HD
ENDROOT
BRANCH   1  13
ATOM     10  C   UNL     1      -2.263  12.561  22.458  0.00  0.00    +0.000 A 
ATOM     11  C   UNL     1      -2.308  12.713  21.071  0.00  0.00    +0.000 A 
ATOM     12  C   UNL     1      -1.504  11.901  20.269  0.00  0.00    +0.000 A 
ATOM     13  C   UNL     1      -0.659  10.942  20.851  0.00  0.00    +0.000 A 
ATOM     14  C   UNL     1      -0.605  10.815  22.246  0.00  0.00    +0.000 A 
ATOM     15  C   UNL     1      -1.407  11.628  23.052  0.00  0.00    +0.000 A 
BRANCH  10  17
ATOM     16  C   UNL     1      -4.175  12.459  24.474  0.00  0.00    +0.000 C 
ATOM     17  S   UNL     1      -3.261  13.616  23.489  0.00  0.00    +0.000 S 
ATOM     18  O   UNL     1      -4.194  14.316  22.628  0.00  0.00    +0.000 OA
ATOM     19  O   UNL     1      -2.360  14.341  24.364  0.00  0.00    +0.000 OA
ENDBRANCH  10  17
ENDBRANCH   1  13
BRANCH   7  20
ATOM     20  C   UNL     1       3.227   4.768  18.985  0.00  0.00    +0.000 C 
BRANCH  20  21
ATOM     21  C   UNL     1       4.393   4.687  18.025  0.00  0.00    +0.000 A 
ATOM     22  C   UNL     1       4.214   4.242  16.702  0.00  0.00    +0.000 A 
ATOM     23  C   UNL     1       5.309   4.136  15.839  0.00  0.00    +0.000 A 
ATOM     24  C   UNL     1       6.582   4.466  16.294  0.00  0.00    +0.000 A 
ATOM     25  F   UNL     1       7.625   4.355  15.459  0.00  0.00    +0.000 F 
ATOM     26  C   UNL     1       6.775   4.903  17.597  0.00  0.00    +0.000 A 
ATOM     27  F   UNL     1       8.005   5.217  18.028  0.00  0.00    +0.000 F 
ATOM     28  C   UNL     1       5.686   5.012  18.454  0.00  0.00    +0.000 A 
ATOM     29  F   UNL     1       5.882   5.435  19.713  0.00  0.00    +0.000 F 
ENDBRANCH  20  21
ENDBRANCH   7  20
TORSDOF 4
ENDMDL
MODEL 4
REMARK VINA RESULT:      -8.2      0.759      1.299
REMARK  Name = 
REMARK  5 active torsions:
REMARK  status: ('A' for Active; 'I' for Inactive)
REMARK    1  A    between atoms: C_1  and  S_2
REMARK    2  A    between atoms: S_2  and  C_5
REMARK    3  A    between atoms: C_8  and  C_9
REMARK    4  A    between atoms: C_15  and  C_16
REMARK    5  A    between atoms: C_16  and  C_17
REMARK                            x       y       z     vdW  Elec       q    Type
REMARK                         _______ _______ _______ _____ _____    ______ ____
ROOT
ATOM      1  C   UNL     1      -0.614  11.138  19.787  0.00  0.00    +0.000 C 
ATOM      2  O   UNL     1      -0.730  11.548  18.638  0.00  0.00    +0.000 OA
ATOM      3  N   UNL     1       0.195  10.113  20.228  0.00  0.00    +0.000 N 
ATOM      4  C   UNL     1       1.028   9.455  19.364  0.00  0.00    +0.000 A 
ATOM      5  N   UNL     1       1.401   9.794  18.159  0.00  0.00    +0.000 NA
ATOM      6  C   UNL     1       2.162   8.786  17.612  0.00  0.00    +0.000 A 
ATOM      7  C   UNL     1       2.355   7.679  18.416  0.00  0.00    +0.000 A 
ATOM      8  S   UNL     1       1.644   7.976  19.956  0.00  0.00    +0.000 S 
ATOM      9  H   UNL     1       0.075   9.703  21.140  0.00  0.00    +0.000 HD
ENDROOT
BRANCH   1  13
ATOM     10  C   UNL     1      -3.160  12.970  22.696  0.00  0.00    +0.000 A 
ATOM     11  C   UNL     1      -3.388  13.179  21.335  0.00  0.00    +0.000 A 
ATOM     12  C   UNL     1      -2.553  12.564  20.401  0.00  0.00    +0.000 A 
ATOM     13  C   UNL     1      -1.494  11.744  20.825  0.00  0.00    +0.000 A 
ATOM     14  C   UNL     1      -1.261  11.560  22.195  0.00  0.00    +0.000 A 
ATOM     15  C   UNL     1      -2.093  12.176  23.133  0.00  0.00    +0.000 A 
BRANCH  10  17
ATOM     16  C   UNL     1      -4.752  12.433  24.911  0.00  0.00    +0.000 C 
ATOM     17  S   UNL     1      -4.200  13.777  23.895  0.00  0.00    +0.000 S 
ATOM     18  O   UNL     1      -5.347  14.314  23.190  0.00  0.00    +0.000 OA
ATOM     19  O   UNL     1      -3.348  14.631  24.700  0.00  0.00    +0.000 OA
ENDBRANCH  10  17
ENDBRANCH   1  13
BRANCH   7  20
ATOM     20  C   UNL     1       3.042   6.392  18.091  0.00  0.00    +0.000 C 
BRANCH  20  21
ATOM     21  C   UNL     1       2.556   5.249  18.955  0.00  0.00    +0.000 A 
ATOM     22  C   UNL     1       3.086   5.034  20.240  0.00  0.00    +0.000 A 
ATOM     23  C   UNL     1       2.653   3.949  21.009  0.00  0.00    +0.000 A 
ATOM     24  C   UNL     1       1.699   3.075  20.497  0.00  0.00    +0.000 A 
ATOM     25  F   UNL     1       1.297   2.035  21.242  0.00  0.00    +0.000 F 
ATOM     26  C   UNL     1       1.170   3.271  19.229  0.00  0.00    +0.000 A 
ATOM     27  F   UNL     1       0.254   2.423  18.742  0.00  0.00    +0.000 F 
ATOM     28  C   UNL     1       1.597   4.351  18.466  0.00  0.00    +0.000 A 
ATOM     29  F   UNL     1       1.080   4.534  17.240  0.00  0.00    +0.000 F 
ENDBRANCH  20  21
ENDBRANCH   7  20
TORSDOF 4
ENDMDL
MODEL 5
REMARK VINA RESULT:      -8.2      2.085      2.338
REMARK  Name = 
REMARK  5 active torsions:
REMARK  status: ('A' for Active; 'I' for Inactive)
REMARK    1  A    between atoms: C_1  and  S_2
REMARK    2  A    between atoms: S_2  and  C_5
REMARK    3  A    between atoms: C_8  and  C_9
REMARK    4  A    between atoms: C_15  and  C_16
REMARK    5  A    between atoms: C_16  and  C_17
REMARK                            x       y       z     vdW  Elec       q    Type
REMARK                         _______ _______ _______ _____ _____    ______ ____
ROOT
ATOM      1  C   UNL     1      -0.159  10.602  22.294  0.00  0.00    +0.000 C 
ATOM      2  O   UNL     1       0.291   9.971  23.243  0.00  0.00    +0.000 OA
ATOM      3  N   UNL     1       0.020  10.330  20.955  0.00  0.00    +0.000 N 
ATOM      4  C   UNL     1       0.727   9.231  20.549  0.00  0.00    +0.000 A 
ATOM      5  N   UNL     1       1.092   8.185  21.241  0.00  0.00    +0.000 NA
ATOM      6  C   UNL     1       1.879   7.370  20.460  0.00  0.00    +0.000 A 
ATOM      7  C   UNL     1       2.110   7.815  19.172  0.00  0.00    +0.000 A 
ATOM      8  S   UNL     1       1.204   9.256  18.909  0.00  0.00    +0.000 S 
ATOM      9  H   UNL     1      -0.203  11.011  20.246  0.00  0.00    +0.000 HD
ENDROOT
BRANCH   1  13
ATOM     10  C   UNL     1      -2.442  14.119  23.142  0.00  0.00    +0.000 A 
ATOM     11  C   UNL     1      -2.942  12.860  23.481  0.00  0.00    +0.000 A 
ATOM     12  C   UNL     1      -2.177  11.725  23.206  0.00  0.00    +0.000 A 
ATOM     13  C   UNL     1      -0.919  11.847  22.594  0.00  0.00    +0.000 A 
ATOM     14  C   UNL     1      -0.438  13.114  22.237  0.00  0.00    +0.000 A 
ATOM     15  C   UNL     1      -1.201  14.253  22.509  0.00  0.00    +0.000 A 
BRANCH  10  17
ATOM     16  C   UNL     1      -4.909  15.251  22.544  0.00  0.00    +0.000 C 
ATOM     17  S   UNL     1      -3.424  15.569  23.459  0.00  0.00    +0.000 S 
ATOM     18  O   UNL     1      -2.749  16.699  22.851  0.00  0.00    +0.000 OA
ATOM     19  O   UNL     1      -3.754  15.566  24.871  0.00  0.00    +0.000 OA
ENDBRANCH  10  17
ENDBRANCH   1  13
BRANCH   7  20
ATOM     20  C   UNL     1       2.986   7.222  18.117  0.00  0.00    +0.000 C 
BRANCH  20  21
ATOM     21  C   UNL     1       3.292   5.764  18.379  0.00  0.00    +0.000 A 
ATOM     22  C   UNL     1       4.499   5.375  18.990  0.00  0.00    +0.000 A 
ATOM     23  C   UNL     1       4.783   4.020  19.190  0.00  0.00    +0.000 A 
ATOM     24  C   UNL     1       3.872   3.053  18.775  0.00  0.00    +0.000 A 
ATOM     25  F   UNL     1       4.159   1.758  18.966  0.00  0.00    +0.000 F 
ATOM     26  C   UNL     1       2.681   3.422  18.166  0.00  0.00    +0.000 A 
ATOM     27  F   UNL     1       1.810   2.484  17.767  0.00  0.00    +0.000 F 
ATOM     28  C   UNL     1       2.395   4.768  17.971  0.00  0.00    +0.000 A 
ATOM     29  F   UNL     1       1.240   5.116  17.381  0.00  0.00    +0.000 F 
ENDBRANCH  20  21
ENDBRANCH   7  20
TORSDOF 4
ENDMDL
MODEL 6
REMARK VINA RESULT:      -8.2      2.091      2.680
REMARK  Name = 
REMARK  5 active torsions:
REMARK  status: ('A' for Active; 'I' for Inactive)
REMARK    1  A    between atoms: C_1  and  S_2
REMARK    2  A    between atoms: S_2  and  C_5
REMARK    3  A    between atoms: C_8  and  C_9
REMARK    4  A    between atoms: C_15  and  C_16
REMARK    5  A    between atoms: C_16  and  C_17
REMARK                            x       y       z     vdW  Elec       q    Type
REMARK                         _______ _______ _______ _____ _____    ______ ____
ROOT
ATOM      1  C   UNL     1      -1.450  10.993  18.655  0.00  0.00    +0.000 C 
ATOM      2  O   UNL     1      -1.431  10.920  17.433  0.00  0.00    +0.000 OA
ATOM      3  N   UNL     1      -0.584  10.383  19.538  0.00  0.00    +0.000 N 
ATOM      4  C   UNL     1       0.467   9.632  19.086  0.00  0.00    +0.000 A 
ATOM      5  N   UNL     1       0.980   9.571  17.887  0.00  0.00    +0.000 NA
ATOM      6  C   UNL     1       1.959   8.604  17.854  0.00  0.00    +0.000 A 
ATOM      7  C   UNL     1       2.175   7.930  19.042  0.00  0.00    +0.000 A 
ATOM      8  S   UNL     1       1.184   8.626  20.266  0.00  0.00    +0.000 S 
ATOM      9  H   UNL     1      -0.793  10.321  20.522  0.00  0.00    +0.000 HD
ENDROOT
BRANCH   1  13
ATOM     10  C   UNL     1      -4.710  13.181  20.352  0.00  0.00    +0.000 A 
ATOM     11  C   UNL     1      -4.915  12.375  19.231  0.00  0.00    +0.000 A 
ATOM     12  C   UNL     1      -3.841  11.660  18.698  0.00  0.00    +0.000 A 
ATOM     13  C   UNL     1      -2.568  11.751  19.283  0.00  0.00    +0.000 A 
ATOM     14  C   UNL     1      -2.368  12.582  20.394  0.00  0.00    +0.000 A 
ATOM     15  C   UNL     1      -3.441  13.300  20.929  0.00  0.00    +0.000 A 
BRANCH  10  17
ATOM     16  C   UNL     1      -7.475  13.114  20.633  0.00  0.00    +0.000 C 
ATOM     17  S   UNL     1      -6.067  14.121  21.018  0.00  0.00    +0.000 S 
ATOM     18  O   UNL     1      -6.166  15.350  20.254  0.00  0.00    +0.000 OA
ATOM     19  O   UNL     1      -5.910  14.146  22.459  0.00  0.00    +0.000 OA
ENDBRANCH  10  17
ENDBRANCH   1  13
BRANCH   7  20
ATOM     20  C   UNL     1       3.085   6.777  19.314  0.00  0.00    +0.000 C 
BRANCH  20  21
ATOM     21  C   UNL     1       2.391   5.445  19.137  0.00  0.00    +0.000 A 
ATOM     22  C   UNL     1       2.179   4.901  17.856  0.00  0.00    +0.000 A 
ATOM     23  C   UNL     1       1.501   3.687  17.709  0.00  0.00    +0.000 A 
ATOM     24  C   UNL     1       1.027   3.018  18.833  0.00  0.00    +0.000 A 
ATOM     25  F   UNL     1       0.373   1.858  18.679  0.00  0.00    +0.000 F 
ATOM     26  C   UNL     1       1.224   3.544  20.103  0.00  0.00    +0.000 A 
ATOM     27  F   UNL     1       0.762   2.895  21.180  0.00  0.00    +0.000 F 
ATOM     28  C   UNL     1       1.901   4.749  20.250  0.00  0.00    +0.000 A 
ATOM     29  F   UNL     1       2.088   5.250  21.482  0.00  0.00    +0.000 F 
ENDBRANCH  20  21
ENDBRANCH   7  20
TORSDOF 4
ENDMDL
MODEL 7
REMARK VINA RESULT:      -8.2      1.850      2.391
REMARK  Name = 
REMARK  5 active torsions:
REMARK  status: ('A' for Active; 'I' for Inactive)
REMARK    1  A    between atoms: C_1  and  S_2
REMARK    2  A    between atoms: S_2  and  C_5
REMARK    3  A    between atoms: C_8  and  C_9
REMARK    4  A    between atoms: C_15  and  C_16
REMARK    5  A    between atoms: C_16  and  C_17
REMARK                            x       y       z     vdW  Elec       q    Type
REMARK                         _______ _______ _______ _____ _____    ______ ____
ROOT
ATOM      1  C   UNL     1      -1.290  11.018  18.743  0.00  0.00    +0.000 C 
ATOM      2  O   UNL     1      -1.280  10.967  17.519  0.00  0.00    +0.000 OA
ATOM      3  N   UNL     1      -0.433  10.374  19.609  0.00  0.00    +0.000 N 
ATOM      4  C   UNL     1       0.599   9.609  19.138  0.00  0.00    +0.000 A 
ATOM      5  N   UNL     1       1.104   9.559  17.934  0.00  0.00    +0.000 NA
ATOM      6  C   UNL     1       2.062   8.572  17.879  0.00  0.00    +0.000 A 
ATOM      7  C   UNL     1       2.270   7.873  19.053  0.00  0.00    +0.000 A 
ATOM      8  S   UNL     1       1.301   8.568  20.295  0.00  0.00    +0.000 S 
ATOM      9  H   UNL     1      -0.638  10.300  20.593  0.00  0.00    +0.000 HD
ENDROOT
BRANCH   1  13
ATOM     10  C   UNL     1      -4.394  13.210  20.707  0.00  0.00    +0.000 A 
ATOM     11  C   UNL     1      -3.107  13.179  21.248  0.00  0.00    +0.000 A 
ATOM     12  C   UNL     1      -2.106  12.467  20.587  0.00  0.00    +0.000 A 
ATOM     13  C   UNL     1      -2.388  11.789  19.390  0.00  0.00    +0.000 A 
ATOM     14  C   UNL     1      -3.689  11.807  18.869  0.00  0.00    +0.000 A 
ATOM     15  C   UNL     1      -4.695  12.518  19.530  0.00  0.00    +0.000 A 
BRANCH  10  17
ATOM     16  C   UNL     1      -6.755  12.787  22.112  0.00  0.00    +0.000 C 
ATOM     17  S   UNL     1      -5.685  14.089  21.562  0.00  0.00    +0.000 S 
ATOM     18  O   UNL     1      -6.401  14.881  20.580  0.00  0.00    +0.000 OA
ATOM     19  O   UNL     1      -5.087  14.707  22.730  0.00  0.00    +0.000 OA
ENDBRANCH  10  17
ENDBRANCH   1  13
BRANCH   7  20
ATOM     20  C   UNL     1       3.157   6.696  19.300  0.00  0.00    +0.000 C 
BRANCH  20  21
ATOM     21  C   UNL     1       2.425   5.382  19.135  0.00  0.00    +0.000 A 
ATOM     22  C   UNL     1       2.157   4.856  17.857  0.00  0.00    +0.000 A 
ATOM     23  C   UNL     1       1.445   3.660  17.722  0.00  0.00    +0.000 A 
ATOM     24  C   UNL     1       0.994   2.992  18.856  0.00  0.00    +0.000 A 
ATOM     25  F   UNL     1       0.308   1.849  18.714  0.00  0.00    +0.000 F 
ATOM     26  C   UNL     1       1.247   3.500  20.123  0.00  0.00    +0.000 A 
ATOM     27  F   UNL     1       0.807   2.852  21.210  0.00  0.00    +0.000 F 
ATOM     28  C   UNL     1       1.957   4.687  20.258  0.00  0.00    +0.000 A 
ATOM     29  F   UNL     1       2.198   5.172  21.487  0.00  0.00    +0.000 F 
ENDBRANCH  20  21
ENDBRANCH   7  20
TORSDOF 4
ENDMDL
MODEL 8
REMARK VINA RESULT:      -8.1      5.070      9.906
REMARK  Name = 
REMARK  5 active torsions:
REMARK  status: ('A' for Active; 'I' for Inactive)
REMARK    1  A    between atoms: C_1  and  S_2
REMARK    2  A    between atoms: S_2  and  C_5
REMARK    3  A    between atoms: C_8  and  C_9
REMARK    4  A    between atoms: C_15  and  C_16
REMARK    5  A    between atoms: C_16  and  C_17
REMARK                            x       y       z     vdW  Elec       q    Type
REMARK                         _______ _______ _______ _____ _____    ______ ____
ROOT
ATOM      1  C   UNL     1       1.724   9.128  18.475  0.00  0.00    +0.000 C 
ATOM      2  O   UNL     1       1.977   9.799  17.482  0.00  0.00    +0.000 OA
ATOM      3  N   UNL     1       0.916   9.482  19.534  0.00  0.00    +0.000 N 
ATOM      4  C   UNL     1       0.248  10.677  19.540  0.00  0.00    +0.000 A 
ATOM      5  N   UNL     1       0.031  11.504  18.553  0.00  0.00    +0.000 NA
ATOM      6  C   UNL     1      -0.591  12.635  19.031  0.00  0.00    +0.000 A 
ATOM      7  C   UNL     1      -0.836  12.655  20.391  0.00  0.00    +0.000 A 
ATOM      8  S   UNL     1      -0.365  11.143  21.065  0.00  0.00    +0.000 S 
ATOM      9  H   UNL     1       0.929   8.967  20.400  0.00  0.00    +0.000 HD
ENDROOT
BRANCH   1  13
ATOM     10  C   UNL     1       3.712   5.351  18.757  0.00  0.00    +0.000 A 
ATOM     11  C   UNL     1       3.932   6.178  17.654  0.00  0.00    +0.000 A 
ATOM     12  C   UNL     1       3.282   7.411  17.585  0.00  0.00    +0.000 A 
ATOM     13  C   UNL     1       2.416   7.816  18.614  0.00  0.00    +0.000 A 
ATOM     14  C   UNL     1       2.185   6.968  19.705  0.00  0.00    +0.000 A 
ATOM     15  C   UNL     1       2.832   5.731  19.776  0.00  0.00    +0.000 A 
BRANCH  10  17
ATOM     16  C   UNL     1       3.582   2.912  20.085  0.00  0.00    +0.000 C 
ATOM     17  S   UNL     1       4.511   3.762  18.837  0.00  0.00    +0.000 S 
ATOM     18  O   UNL     1       5.857   3.972  19.336  0.00  0.00    +0.000 OA
ATOM     19  O   UNL     1       4.279   3.098  17.569  0.00  0.00    +0.000 OA
ENDBRANCH  10  17
ENDBRANCH   1  13
BRANCH   7  20
ATOM     20  C   UNL     1      -1.401  13.758  21.226  0.00  0.00    +0.000 C 
BRANCH  20  21
ATOM     21  C   UNL     1      -2.728  13.384  21.847  0.00  0.00    +0.000 A 
ATOM     22  C   UNL     1      -3.906  13.348  21.077  0.00  0.00    +0.000 A 
ATOM     23  C   UNL     1      -5.131  13.038  21.676  0.00  0.00    +0.000 A 
ATOM     24  C   UNL     1      -5.186  12.772  23.041  0.00  0.00    +0.000 A 
ATOM     25  F   UNL     1      -6.367  12.482  23.604  0.00  0.00    +0.000 F 
ATOM     26  C   UNL     1      -4.034  12.808  23.814  0.00  0.00    +0.000 A 
ATOM     27  F   UNL     1      -4.096  12.552  25.128  0.00  0.00    +0.000 F 
ATOM     28  C   UNL     1      -2.816  13.112  23.219  0.00  0.00    +0.000 A 
ATOM     29  F   UNL     1      -1.706  13.144  23.974  0.00  0.00    +0.000 F 
ENDBRANCH  20  21
ENDBRANCH   7  20
TORSDOF 4
ENDMDL
MODEL 9
REMARK VINA RESULT:      -8.0      1.691      2.422
REMARK  Name = 
REMARK  5 active torsions:
REMARK  status: ('A' for Active; 'I' for Inactive)
REMARK    1  A    between atoms: C_1  and  S_2
REMARK    2  A    between atoms: S_2  and  C_5
REMARK    3  A    between atoms: C_8  and  C_9
REMARK    4  A    between atoms: C_15  and  C_16
REMARK    5  A    between atoms: C_16  and  C_17
REMARK                            x       y       z     vdW  Elec       q    Type
REMARK                         _______ _______ _______ _____ _____    ______ ____
ROOT
ATOM      1  C   UNL     1      -1.177  11.003  19.040  0.00  0.00    +0.000 C 
ATOM      2  O   UNL     1      -1.241  10.982  17.816  0.00  0.00    +0.000 OA
ATOM      3  N   UNL     1      -0.282  10.323  19.838  0.00  0.00    +0.000 N 
ATOM      4  C   UNL     1       0.705   9.552  19.287  0.00  0.00    +0.000 A 
ATOM      5  N   UNL     1       1.137   9.523  18.054  0.00  0.00    +0.000 NA
ATOM      6  C   UNL     1       2.071   8.521  17.918  0.00  0.00    +0.000 A 
ATOM      7  C   UNL     1       2.336   7.790  19.061  0.00  0.00    +0.000 A 
ATOM      8  S   UNL     1       1.455   8.470  20.375  0.00  0.00    +0.000 S 
ATOM      9  H   UNL     1      -0.430  10.228  20.829  0.00  0.00    +0.000 HD
ENDROOT
BRANCH   1  13
ATOM     10  C   UNL     1      -4.216  13.258  21.034  0.00  0.00    +0.000 A 
ATOM     11  C   UNL     1      -4.469  12.695  19.782  0.00  0.00    +0.000 A 
ATOM     12  C   UNL     1      -3.468  11.954  19.152  0.00  0.00    +0.000 A 
ATOM     13  C   UNL     1      -2.220  11.776  19.770  0.00  0.00    +0.000 A 
ATOM     14  C   UNL     1      -1.969  12.366  21.016  0.00  0.00    +0.000 A 
ATOM     15  C   UNL     1      -2.968  13.111  21.649  0.00  0.00    +0.000 A 
BRANCH  10  17
ATOM     16  C   UNL     1      -4.797  14.519  23.443  0.00  0.00    +0.000 C 
ATOM     17  S   UNL     1      -5.475  14.233  21.830  0.00  0.00    +0.000 S 
ATOM     18  O   UNL     1      -6.652  13.398  21.974  0.00  0.00    +0.000 OA
ATOM     19  O   UNL     1      -5.540  15.505  21.135  0.00  0.00    +0.000 OA
ENDBRANCH  10  17
ENDBRANCH   1  13
BRANCH   7  20
ATOM     20  C   UNL     1       3.214   6.592  19.225  0.00  0.00    +0.000 C 
BRANCH  20  21
ATOM     21  C   UNL     1       2.448   5.296  19.076  0.00  0.00    +0.000 A 
ATOM     22  C   UNL     1       2.157   4.768  17.804  0.00  0.00    +0.000 A 
ATOM     23  C   UNL     1       1.416   3.589  17.683  0.00  0.00    +0.000 A 
ATOM     24  C   UNL     1       0.957   2.940  18.825  0.00  0.00    +0.000 A 
ATOM     25  F   UNL     1       0.241   1.813  18.696  0.00  0.00    +0.000 F 
ATOM     26  C   UNL     1       1.231   3.451  20.086  0.00  0.00    +0.000 A 
ATOM     27  F   UNL     1       0.784   2.821  21.181  0.00  0.00    +0.000 F 
ATOM     28  C   UNL     1       1.972   4.620  20.207  0.00  0.00    +0.000 A 
ATOM     29  F   UNL     1       2.234   5.108  21.431  0.00  0.00    +0.000 F 
ENDBRANCH  20  21
ENDBRANCH   7  20
TORSDOF 4
ENDMDL
