MODEL 1
REMARK VINA RESULT:      -9.3      0.000      0.000
REMARK  Name = 
REMARK  4 active torsions:
REMARK  status: ('A' for Active; 'I' for Inactive)
REMARK    1  A    between atoms: C_1  and  C_2
REMARK    2  A    between atoms: C_9  and  C_10
REMARK    3  A    between atoms: N_15  and  C_16
REMARK    4  A    between atoms: C_24  and  C_25
REMARK                            x       y       z     vdW  Elec       q    Type
REMARK                         _______ _______ _______ _____ _____    ______ ____
ROOT
ATOM      1  C   UNL     1       1.999   8.523  18.974  0.00  0.00    +0.000 C 
ATOM      2  O   UNL     1       2.429   8.867  17.880  0.00  0.00    +0.000 OA
ATOM      3  N   UNL     1       2.242   7.339  19.642  0.00  0.00    +0.000 N 
ATOM      4  C   UNL     1       3.053   6.321  19.165  0.00  0.00    +0.000 A 
ATOM      5  N   UNL     1       3.918   6.438  18.158  0.00  0.00    +0.000 NA
ATOM      6  N   UNL     1       4.371   5.186  17.914  0.00  0.00    +0.000 N 
ATOM      7  C   UNL     1       3.938   4.314  18.885  0.00  0.00    +0.000 A 
ATOM      8  C   UNL     1       3.085   5.011  19.714  0.00  0.00    +0.000 A 
ATOM      9  C   UNL     1       2.366   4.476  20.892  0.00  0.00    +0.000 C 
ATOM     10  H   UNL     1       1.679   7.109  20.445  0.00  0.00    +0.000 HD
ENDROOT
BRANCH   1  19
ATOM     11  C   UNL     1      -3.068  13.091  20.282  0.00  0.00    +0.000 C 
ATOM     12  C   UNL     1      -2.773  12.577  21.660  0.00  0.00    +0.000 C 
ATOM     13  O   UNL     1      -3.463  12.973  22.608  0.00  0.00    +0.000 OA
ATOM     14  N   UNL     1      -1.762  11.662  21.848  0.00  0.00    +0.000 N 
ATOM     15  C   UNL     1      -1.590  11.069  23.185  0.00  0.00    +0.000 C 
ATOM     16  C   UNL     1      -0.381  10.137  23.131  0.00  0.00    +0.000 C 
ATOM     17  C   UNL     1      -0.082  10.115  21.665  0.00  0.00    +0.000 A 
ATOM     18  C   UNL     1       0.856   9.307  21.032  0.00  0.00    +0.000 A 
ATOM     19  C   UNL     1       1.042   9.446  19.652  0.00  0.00    +0.000 A 
ATOM     20  C   UNL     1       0.296  10.405  18.944  0.00  0.00    +0.000 A 
ATOM     21  C   UNL     1      -0.657  11.204  19.599  0.00  0.00    +0.000 A 
ATOM     22  C   UNL     1      -0.858  11.042  20.962  0.00  0.00    +0.000 A 
ENDBRANCH   1  19
BRANCH   6  23
ATOM     23  C   UNL     1       5.257   4.922  16.837  0.00  0.00    +0.000 A 
ATOM     24  C   UNL     1       4.719   4.321  15.681  0.00  0.00    +0.000 A 
ATOM     25  C   UNL     1       5.516   4.114  14.553  0.00  0.00    +0.000 A 
ATOM     26  C   UNL     1       6.861   4.466  14.575  0.00  0.00    +0.000 A 
ATOM     27  C   UNL     1       7.414   5.016  15.731  0.00  0.00    +0.000 A 
ATOM     28  C   UNL     1       6.621   5.246  16.865  0.00  0.00    +0.000 A 
ATOM     29 CL   UNL     1       7.470   5.785  18.274  0.00  0.00    +0.000 Cl
ENDBRANCH   6  23
TORSDOF 2
ENDMDL
MODEL 2
REMARK VINA RESULT:      -9.1      0.700      1.739
REMARK  Name = 
REMARK  4 active torsions:
REMARK  status: ('A' for Active; 'I' for Inactive)
REMARK    1  A    between atoms: C_1  and  C_2
REMARK    2  A    between atoms: C_9  and  C_10
REMARK    3  A    between atoms: N_15  and  C_16
REMARK    4  A    between atoms: C_24  and  C_25
REMARK                            x       y       z     vdW  Elec       q    Type
REMARK                         _______ _______ _______ _____ _____    ______ ____
ROOT
ATOM      1  C   UNL     1       1.953   8.583  18.659  0.00  0.00    +0.000 C 
ATOM      2  O   UNL     1       2.371   8.893  17.550  0.00  0.00    +0.000 OA
ATOM      3  N   UNL     1       2.238   7.440  19.380  0.00  0.00    +0.000 N 
ATOM      4  C   UNL     1       3.085   6.432  18.948  0.00  0.00    +0.000 A 
ATOM      5  N   UNL     1       3.946   6.534  17.936  0.00  0.00    +0.000 NA
ATOM      6  N   UNL     1       4.443   5.289  17.748  0.00  0.00    +0.000 N 
ATOM      7  C   UNL     1       4.041   4.447  18.758  0.00  0.00    +0.000 A 
ATOM      8  C   UNL     1       3.164   5.150  19.556  0.00  0.00    +0.000 A 
ATOM      9  C   UNL     1       2.463   4.642  20.757  0.00  0.00    +0.000 C 
ATOM     10  H   UNL     1       1.683   7.226  20.193  0.00  0.00    +0.000 HD
ENDROOT
BRANCH   1  19
ATOM     11  C   UNL     1      -2.125  11.863  23.228  0.00  0.00    +0.000 C 
ATOM     12  C   UNL     1      -2.215  12.780  22.043  0.00  0.00    +0.000 C 
ATOM     13  O   UNL     1      -2.856  13.832  22.146  0.00  0.00    +0.000 OA
ATOM     14  N   UNL     1      -1.569  12.451  20.872  0.00  0.00    +0.000 N 
ATOM     15  C   UNL     1      -1.555  13.435  19.777  0.00  0.00    +0.000 C 
ATOM     16  C   UNL     1      -0.826  12.805  18.592  0.00  0.00    +0.000 C 
ATOM     17  C   UNL     1      -0.283  11.552  19.203  0.00  0.00    +0.000 A 
ATOM     18  C   UNL     1       0.587  10.653  18.594  0.00  0.00    +0.000 A 
ATOM     19  C   UNL     1       0.963   9.502  19.296  0.00  0.00    +0.000 A 
ATOM     20  C   UNL     1       0.444   9.271  20.582  0.00  0.00    +0.000 A 
ATOM     21  C   UNL     1      -0.425  10.197  21.186  0.00  0.00    +0.000 A 
ATOM     22  C   UNL     1      -0.771  11.351  20.498  0.00  0.00    +0.000 A 
ENDBRANCH   1  19
BRANCH   6  23
ATOM     23  C   UNL     1       5.338   5.008  16.683  0.00  0.00    +0.000 A 
ATOM     24  C   UNL     1       4.837   4.285  15.582  0.00  0.00    +0.000 A 
ATOM     25  C   UNL     1       5.640   4.051  14.463  0.00  0.00    +0.000 A 
ATOM     26  C   UNL     1       6.957   4.500  14.442  0.00  0.00    +0.000 A 
ATOM     27  C   UNL     1       7.476   5.173  15.548  0.00  0.00    +0.000 A 
ATOM     28  C   UNL     1       6.676   5.430  16.671  0.00  0.00    +0.000 A 
ATOM     29 CL   UNL     1       7.493   6.133  18.025  0.00  0.00    +0.000 Cl
ENDBRANCH   6  23
TORSDOF 2
ENDMDL
MODEL 3
REMARK VINA RESULT:      -9.0      1.104      1.216
REMARK  Name = 
REMARK  4 active torsions:
REMARK  status: ('A' for Active; 'I' for Inactive)
REMARK    1  A    between atoms: C_1  and  C_2
REMARK    2  A    between atoms: C_9  and  C_10
REMARK    3  A    between atoms: N_15  and  C_16
REMARK    4  A    between atoms: C_24  and  C_25
REMARK                            x       y       z     vdW  Elec       q    Type
REMARK                         _______ _______ _______ _____ _____    ______ ____
ROOT
ATOM      1  C   UNL     1       1.613   8.875  18.429  0.00  0.00    +0.000 C 
ATOM      2  O   UNL     1       2.153   9.085  17.350  0.00  0.00    +0.000 OA
ATOM      3  N   UNL     1       1.809   7.801  19.275  0.00  0.00    +0.000 N 
ATOM      4  C   UNL     1       2.691   6.761  19.032  0.00  0.00    +0.000 A 
ATOM      5  N   UNL     1       3.659   6.774  18.116  0.00  0.00    +0.000 NA
ATOM      6  N   UNL     1       4.165   5.519  18.096  0.00  0.00    +0.000 N 
ATOM      7  C   UNL     1       3.648   4.770  19.127  0.00  0.00    +0.000 A 
ATOM      8  C   UNL     1       2.693   5.539  19.756  0.00  0.00    +0.000 A 
ATOM      9  C   UNL     1       1.860   5.139  20.913  0.00  0.00    +0.000 C 
ATOM     10  H   UNL     1       1.165   7.660  20.037  0.00  0.00    +0.000 HD
ENDROOT
BRANCH   1  19
ATOM     11  C   UNL     1      -4.362  12.326  19.232  0.00  0.00    +0.000 C 
ATOM     12  C   UNL     1      -3.561  12.852  20.387  0.00  0.00    +0.000 C 
ATOM     13  O   UNL     1      -4.097  13.635  21.181  0.00  0.00    +0.000 OA
ATOM     14  N   UNL     1      -2.258  12.443  20.560  0.00  0.00    +0.000 N 
ATOM     15  C   UNL     1      -1.546  12.862  21.778  0.00  0.00    +0.000 C 
ATOM     16  C   UNL     1      -0.120  12.321  21.696  0.00  0.00    +0.000 C 
ATOM     17  C   UNL     1      -0.203  11.432  20.495  0.00  0.00    +0.000 A 
ATOM     18  C   UNL     1       0.793  10.575  20.038  0.00  0.00    +0.000 A 
ATOM     19  C   UNL     1       0.565   9.844  18.867  0.00  0.00    +0.000 A 
ATOM     20  C   UNL     1      -0.647  10.002  18.173  0.00  0.00    +0.000 A 
ATOM     21  C   UNL     1      -1.647  10.864  18.657  0.00  0.00    +0.000 A 
ATOM     22  C   UNL     1      -1.429  11.565  19.834  0.00  0.00    +0.000 A 
ENDBRANCH   1  19
BRANCH   6  23
ATOM     23  C   UNL     1       5.170   5.147  17.166  0.00  0.00    +0.000 A 
ATOM     24  C   UNL     1       4.751   4.647  15.917  0.00  0.00    +0.000 A 
ATOM     25  C   UNL     1       5.686   4.345  14.924  0.00  0.00    +0.000 A 
ATOM     26  C   UNL     1       7.046   4.500  15.175  0.00  0.00    +0.000 A 
ATOM     27  C   UNL     1       7.472   4.947  16.426  0.00  0.00    +0.000 A 
ATOM     28  C   UNL     1       6.543   5.272  17.425  0.00  0.00    +0.000 A 
ATOM     29 CL   UNL     1       7.216   5.661  18.972  0.00  0.00    +0.000 Cl
ENDBRANCH   6  23
TORSDOF 2
ENDMDL
MODEL 4
REMARK VINA RESULT:      -8.6      1.422      2.082
REMARK  Name = 
REMARK  4 active torsions:
REMARK  status: ('A' for Active; 'I' for Inactive)
REMARK    1  A    between atoms: C_1  and  C_2
REMARK    2  A    between atoms: C_9  and  C_10
REMARK    3  A    between atoms: N_15  and  C_16
REMARK    4  A    between atoms: C_24  and  C_25
REMARK                            x       y       z     vdW  Elec       q    Type
REMARK                         _______ _______ _______ _____ _____    ______ ____
ROOT
ATOM      1  C   UNL     1       1.839   9.188  18.462  0.00  0.00    +0.000 C 
ATOM      2  O   UNL     1       2.478   9.369  17.433  0.00  0.00    +0.000 OA
ATOM      3  N   UNL     1       1.847   8.071  19.274  0.00  0.00    +0.000 N 
ATOM      4  C   UNL     1       2.619   6.943  19.049  0.00  0.00    +0.000 A 
ATOM      5  N   UNL     1       3.647   6.873  18.205  0.00  0.00    +0.000 NA
ATOM      6  N   UNL     1       4.005   5.569  18.168  0.00  0.00    +0.000 N 
ATOM      7  C   UNL     1       3.331   4.851  19.127  0.00  0.00    +0.000 A 
ATOM      8  C   UNL     1       2.427   5.706  19.720  0.00  0.00    +0.000 A 
ATOM      9  C   UNL     1       1.470   5.368  20.799  0.00  0.00    +0.000 C 
ATOM     10  H   UNL     1       1.137   7.981  19.983  0.00  0.00    +0.000 HD
ENDROOT
BRANCH   1  19
ATOM     11  C   UNL     1      -3.308  12.733  21.495  0.00  0.00    +0.000 C 
ATOM     12  C   UNL     1      -2.525  13.842  20.855  0.00  0.00    +0.000 C 
ATOM     13  O   UNL     1      -2.878  15.012  21.045  0.00  0.00    +0.000 OA
ATOM     14  N   UNL     1      -1.419  13.546  20.090  0.00  0.00    +0.000 N 
ATOM     15  C   UNL     1      -0.589  14.657  19.596  0.00  0.00    +0.000 C 
ATOM     16  C   UNL     1       0.529  14.062  18.742  0.00  0.00    +0.000 C 
ATOM     17  C   UNL     1       0.361  12.599  19.002  0.00  0.00    +0.000 A 
ATOM     18  C   UNL     1       1.212  11.586  18.572  0.00  0.00    +0.000 A 
ATOM     19  C   UNL     1       0.880  10.258  18.866  0.00  0.00    +0.000 A 
ATOM     20  C   UNL     1      -0.305   9.977  19.569  0.00  0.00    +0.000 A 
ATOM     21  C   UNL     1      -1.147  11.015  20.006  0.00  0.00    +0.000 A 
ATOM     22  C   UNL     1      -0.799  12.331  19.738  0.00  0.00    +0.000 A 
ENDBRANCH   1  19
BRANCH   6  23
ATOM     23  C   UNL     1       5.028   5.112  17.294  0.00  0.00    +0.000 A 
ATOM     24  C   UNL     1       4.638   4.627  16.030  0.00  0.00    +0.000 A 
ATOM     25  C   UNL     1       5.598   4.245  15.090  0.00  0.00    +0.000 A 
ATOM     26  C   UNL     1       6.951   4.304  15.411  0.00  0.00    +0.000 A 
ATOM     27  C   UNL     1       7.344   4.736  16.678  0.00  0.00    +0.000 A 
ATOM     28  C   UNL     1       6.391   5.140  17.624  0.00  0.00    +0.000 A 
ATOM     29 CL   UNL     1       7.009   5.501  19.200  0.00  0.00    +0.000 Cl
ENDBRANCH   6  23
TORSDOF 2
ENDMDL
MODEL 5
REMARK VINA RESULT:      -8.4      3.149     10.007
REMARK  Name = 
REMARK  4 active torsions:
REMARK  status: ('A' for Active; 'I' for Inactive)
REMARK    1  A    between atoms: C_1  and  C_2
REMARK    2  A    between atoms: C_9  and  C_10
REMARK    3  A    between atoms: N_15  and  C_16
REMARK    4  A    between atoms: C_24  and  C_25
REMARK                            x       y       z     vdW  Elec       q    Type
REMARK                         _______ _______ _______ _____ _____    ______ ____
ROOT
ATOM      1  C   UNL     1       0.875   9.359  20.174  0.00  0.00    +0.000 C 
ATOM      2  O   UNL     1       0.937   9.380  21.397  0.00  0.00    +0.000 OA
ATOM      3  N   UNL     1       0.068  10.125  19.357  0.00  0.00    +0.000 N 
ATOM      4  C   UNL     1      -0.823  11.083  19.811  0.00  0.00    +0.000 A 
ATOM      5  N   UNL     1      -0.837  11.598  21.040  0.00  0.00    +0.000 NA
ATOM      6  N   UNL     1      -1.953  12.361  21.108  0.00  0.00    +0.000 N 
ATOM      7  C   UNL     1      -2.538  12.479  19.870  0.00  0.00    +0.000 A 
ATOM      8  C   UNL     1      -1.835  11.669  19.003  0.00  0.00    +0.000 A 
ATOM      9  C   UNL     1      -2.115  11.465  17.564  0.00  0.00    +0.000 C 
ATOM     10  H   UNL     1      -0.016   9.875  18.385  0.00  0.00    +0.000 HD
ENDROOT
BRANCH   1  19
ATOM     11  C   UNL     1       5.239   6.196  15.791  0.00  0.00    +0.000 C 
ATOM     12  C   UNL     1       5.092   5.155  16.861  0.00  0.00    +0.000 C 
ATOM     13  O   UNL     1       5.757   4.115  16.781  0.00  0.00    +0.000 OA
ATOM     14  N   UNL     1       4.243   5.378  17.922  0.00  0.00    +0.000 N 
ATOM     15  C   UNL     1       4.228   4.405  19.027  0.00  0.00    +0.000 C 
ATOM     16  C   UNL     1       3.175   4.860  20.036  0.00  0.00    +0.000 C 
ATOM     17  C   UNL     1       2.813   6.211  19.507  0.00  0.00    +0.000 A 
ATOM     18  C   UNL     1       1.981   7.139  20.125  0.00  0.00    +0.000 A 
ATOM     19  C   UNL     1       1.711   8.344  19.467  0.00  0.00    +0.000 A 
ATOM     20  C   UNL     1       2.267   8.583  18.198  0.00  0.00    +0.000 A 
ATOM     21  C   UNL     1       3.116   7.639  17.594  0.00  0.00    +0.000 A 
ATOM     22  C   UNL     1       3.404   6.458  18.263  0.00  0.00    +0.000 A 
ENDBRANCH   1  19
BRANCH   6  23
ATOM     23  C   UNL     1      -2.332  13.001  22.317  0.00  0.00    +0.000 A 
ATOM     24  C   UNL     1      -3.554  12.616  22.904  0.00  0.00    +0.000 A 
ATOM     25  C   UNL     1      -3.945  13.143  24.138  0.00  0.00    +0.000 A 
ATOM     26  C   UNL     1      -3.145  14.082  24.781  0.00  0.00    +0.000 A 
ATOM     27  C   UNL     1      -1.959  14.506  24.183  0.00  0.00    +0.000 A 
ATOM     28  C   UNL     1      -1.545  13.972  22.954  0.00  0.00    +0.000 A 
ATOM     29 CL   UNL     1      -0.137  14.701  22.258  0.00  0.00    +0.000 Cl
ENDBRANCH   6  23
TORSDOF 2
ENDMDL
MODEL 6
REMARK VINA RESULT:      -8.4      3.577      9.776
REMARK  Name = 
REMARK  4 active torsions:
REMARK  status: ('A' for Active; 'I' for Inactive)
REMARK    1  A    between atoms: C_1  and  C_2
REMARK    2  A    between atoms: C_9  and  C_10
REMARK    3  A    between atoms: N_15  and  C_16
REMARK    4  A    between atoms: C_24  and  C_25
REMARK                            x       y       z     vdW  Elec       q    Type
REMARK                         _______ _______ _______ _____ _____    ______ ____
ROOT
ATOM      1  C   UNL     1       1.238   8.688  20.581  0.00  0.00    +0.000 C 
ATOM      2  O   UNL     1       1.514   8.981  21.738  0.00  0.00    +0.000 OA
ATOM      3  N   UNL     1       0.498   9.426  19.677  0.00  0.00    +0.000 N 
ATOM      4  C   UNL     1      -0.057  10.666  19.946  0.00  0.00    +0.000 A 
ATOM      5  N   UNL     1       0.261  11.442  20.982  0.00  0.00    +0.000 NA
ATOM      6  N   UNL     1      -0.621  12.468  20.959  0.00  0.00    +0.000 N 
ATOM      7  C   UNL     1      -1.369  12.441  19.806  0.00  0.00    +0.000 A 
ATOM      8  C   UNL     1      -1.032  11.292  19.123  0.00  0.00    +0.000 A 
ATOM      9  C   UNL     1      -1.596  10.835  17.833  0.00  0.00    +0.000 C 
ATOM     10  H   UNL     1       0.191   8.984  18.825  0.00  0.00    +0.000 HD
ENDROOT
BRANCH   1  19
ATOM     11  C   UNL     1       4.425   3.569  17.132  0.00  0.00    +0.000 C 
ATOM     12  C   UNL     1       3.808   2.815  18.273  0.00  0.00    +0.000 C 
ATOM     13  O   UNL     1       4.035   1.604  18.383  0.00  0.00    +0.000 OA
ATOM     14  N   UNL     1       3.024   3.479  19.188  0.00  0.00    +0.000 N 
ATOM     15  C   UNL     1       2.552   2.745  20.374  0.00  0.00    +0.000 C 
ATOM     16  C   UNL     1       1.670   3.689  21.189  0.00  0.00    +0.000 C 
ATOM     17  C   UNL     1       1.890   4.991  20.485  0.00  0.00    +0.000 A 
ATOM     18  C   UNL     1       1.423   6.235  20.896  0.00  0.00    +0.000 A 
ATOM     19  C   UNL     1       1.682   7.350  20.092  0.00  0.00    +0.000 A 
ATOM     20  C   UNL     1       2.389   7.188  18.887  0.00  0.00    +0.000 A 
ATOM     21  C   UNL     1       2.865   5.925  18.494  0.00  0.00    +0.000 A 
ATOM     22  C   UNL     1       2.630   4.827  19.309  0.00  0.00    +0.000 A 
ENDBRANCH   1  19
BRANCH   6  23
ATOM     23  C   UNL     1      -0.628  13.453  21.982  0.00  0.00    +0.000 A 
ATOM     24  C   UNL     1       0.286  14.519  21.867  0.00  0.00    +0.000 A 
ATOM     25  C   UNL     1       0.273  15.567  22.791  0.00  0.00    +0.000 A 
ATOM     26  C   UNL     1      -0.622  15.547  23.857  0.00  0.00    +0.000 A 
ATOM     27  C   UNL     1      -1.496  14.470  24.006  0.00  0.00    +0.000 A 
ATOM     28  C   UNL     1      -1.506  13.421  23.075  0.00  0.00    +0.000 A 
ATOM     29 CL   UNL     1      -2.530  12.082  23.470  0.00  0.00    +0.000 Cl
ENDBRANCH   6  23
TORSDOF 2
ENDMDL
MODEL 7
REMARK VINA RESULT:      -8.4      3.563      9.869
REMARK  Name = 
REMARK  4 active torsions:
REMARK  status: ('A' for Active; 'I' for Inactive)
REMARK    1  A    between atoms: C_1  and  C_2
REMARK    2  A    between atoms: C_9  and  C_10
REMARK    3  A    between atoms: N_15  and  C_16
REMARK    4  A    between atoms: C_24  and  C_25
REMARK                            x       y       z     vdW  Elec       q    Type
REMARK                         _______ _______ _______ _____ _____    ______ ____
ROOT
ATOM      1  C   UNL     1       1.299   8.643  20.673  0.00  0.00    +0.000 C 
ATOM      2  O   UNL     1       1.537   8.948  21.835  0.00  0.00    +0.000 OA
ATOM      3  N   UNL     1       0.555   9.351  19.750  0.00  0.00    +0.000 N 
ATOM      4  C   UNL     1      -0.049  10.572  20.002  0.00  0.00    +0.000 A 
ATOM      5  N   UNL     1       0.217  11.361  21.043  0.00  0.00    +0.000 NA
ATOM      6  N   UNL     1      -0.700  12.355  20.996  0.00  0.00    +0.000 N 
ATOM      7  C   UNL     1      -1.419  12.299  19.826  0.00  0.00    +0.000 A 
ATOM      8  C   UNL     1      -1.025  11.162  19.154  0.00  0.00    +0.000 A 
ATOM      9  C   UNL     1      -1.543  10.682  17.853  0.00  0.00    +0.000 C 
ATOM     10  H   UNL     1       0.285   8.898  18.893  0.00  0.00    +0.000 HD
ENDROOT
BRANCH   1  19
ATOM     11  C   UNL     1       2.135   1.839  19.547  0.00  0.00    +0.000 C 
ATOM     12  C   UNL     1       3.029   2.423  18.493  0.00  0.00    +0.000 C 
ATOM     13  O   UNL     1       3.595   1.663  17.699  0.00  0.00    +0.000 OA
ATOM     14  N   UNL     1       3.189   3.788  18.410  0.00  0.00    +0.000 N 
ATOM     15  C   UNL     1       3.955   4.339  17.280  0.00  0.00    +0.000 C 
ATOM     16  C   UNL     1       4.023   5.855  17.455  0.00  0.00    +0.000 C 
ATOM     17  C   UNL     1       3.080   6.069  18.596  0.00  0.00    +0.000 A 
ATOM     18  C   UNL     1       2.656   7.298  19.091  0.00  0.00    +0.000 A 
ATOM     19  C   UNL     1       1.802   7.320  20.199  0.00  0.00    +0.000 A 
ATOM     20  C   UNL     1       1.406   6.109  20.795  0.00  0.00    +0.000 A 
ATOM     21  C   UNL     1       1.834   4.875  20.273  0.00  0.00    +0.000 A 
ATOM     22  C   UNL     1       2.658   4.859  19.157  0.00  0.00    +0.000 A 
ENDBRANCH   1  19
BRANCH   6  23
ATOM     23  C   UNL     1      -0.765  13.342  22.015  0.00  0.00    +0.000 A 
ATOM     24  C   UNL     1       0.129  14.427  21.931  0.00  0.00    +0.000 A 
ATOM     25  C   UNL     1       0.060  15.476  22.851  0.00  0.00    +0.000 A 
ATOM     26  C   UNL     1      -0.873  15.439  23.883  0.00  0.00    +0.000 A 
ATOM     27  C   UNL     1      -1.729  14.344  24.002  0.00  0.00    +0.000 A 
ATOM     28  C   UNL     1      -1.682  13.293  23.075  0.00  0.00    +0.000 A 
ATOM     29 CL   UNL     1      -2.691  11.934  23.435  0.00  0.00    +0.000 Cl
ENDBRANCH   6  23
TORSDOF 2
ENDMDL
MODEL 8
REMARK VINA RESULT:      -8.3      3.499     10.161
REMARK  Name = 
REMARK  4 active torsions:
REMARK  status: ('A' for Active; 'I' for Inactive)
REMARK    1  A    between atoms: C_1  and  C_2
REMARK    2  A    between atoms: C_9  and  C_10
REMARK    3  A    between atoms: N_15  and  C_16
REMARK    4  A    between atoms: C_24  and  C_25
REMARK                            x       y       z     vdW  Elec       q    Type
REMARK                         _______ _______ _______ _____ _____    ______ ____
ROOT
ATOM      1  C   UNL     1       0.850   9.449  20.180  0.00  0.00    +0.000 C 
ATOM      2  O   UNL     1       0.942   9.509  21.400  0.00  0.00    +0.000 OA
ATOM      3  N   UNL     1       0.023  10.189  19.359  0.00  0.00    +0.000 N 
ATOM      4  C   UNL     1      -0.856  11.163  19.804  0.00  0.00    +0.000 A 
ATOM      5  N   UNL     1      -0.838  11.718  21.016  0.00  0.00    +0.000 NA
ATOM      6  N   UNL     1      -1.952  12.484  21.087  0.00  0.00    +0.000 N 
ATOM      7  C   UNL     1      -2.568  12.562  19.860  0.00  0.00    +0.000 A 
ATOM      8  C   UNL     1      -1.887  11.724  19.003  0.00  0.00    +0.000 A 
ATOM      9  C   UNL     1      -2.203  11.474  17.579  0.00  0.00    +0.000 C 
ATOM     10  H   UNL     1      -0.086   9.908  18.398  0.00  0.00    +0.000 HD
ENDROOT
BRANCH   1  19
ATOM     11  C   UNL     1       5.176   6.159  15.854  0.00  0.00    +0.000 C 
ATOM     12  C   UNL     1       4.992   5.126  16.927  0.00  0.00    +0.000 C 
ATOM     13  O   UNL     1       5.631   4.070  16.858  0.00  0.00    +0.000 OA
ATOM     14  N   UNL     1       4.139   5.375  17.978  0.00  0.00    +0.000 N 
ATOM     15  C   UNL     1       4.088   4.408  19.087  0.00  0.00    +0.000 C 
ATOM     16  C   UNL     1       3.037   4.893  20.083  0.00  0.00    +0.000 C 
ATOM     17  C   UNL     1       2.714   6.251  19.545  0.00  0.00    +0.000 A 
ATOM     18  C   UNL     1       1.900   7.201  20.151  0.00  0.00    +0.000 A 
ATOM     19  C   UNL     1       1.666   8.410  19.486  0.00  0.00    +0.000 A 
ATOM     20  C   UNL     1       2.241   8.629  18.221  0.00  0.00    +0.000 A 
ATOM     21  C   UNL     1       3.072   7.662  17.629  0.00  0.00    +0.000 A 
ATOM     22  C   UNL     1       3.324   6.477  18.306  0.00  0.00    +0.000 A 
ENDBRANCH   1  19
BRANCH   6  23
ATOM     23  C   UNL     1      -2.300  13.163  22.284  0.00  0.00    +0.000 A 
ATOM     24  C   UNL     1      -1.252  13.684  23.068  0.00  0.00    +0.000 A 
ATOM     25  C   UNL     1      -1.528  14.438  24.211  0.00  0.00    +0.000 A 
ATOM     26  C   UNL     1      -2.846  14.649  24.607  0.00  0.00    +0.000 A 
ATOM     27  C   UNL     1      -3.888  14.095  23.864  0.00  0.00    +0.000 A 
ATOM     28  C   UNL     1      -3.625  13.351  22.704  0.00  0.00    +0.000 A 
ATOM     29 CL   UNL     1      -5.001  12.596  21.974  0.00  0.00    +0.000 Cl
ENDBRANCH   6  23
TORSDOF 2
ENDMDL
MODEL 9
REMARK VINA RESULT:      -8.2      3.284     10.043
REMARK  Name = 
REMARK  4 active torsions:
REMARK  status: ('A' for Active; 'I' for Inactive)
REMARK    1  A    between atoms: C_1  and  C_2
REMARK    2  A    between atoms: C_9  and  C_10
REMARK    3  A    between atoms: N_15  and  C_16
REMARK    4  A    between atoms: C_24  and  C_25
REMARK                            x       y       z     vdW  Elec       q    Type
REMARK                         _______ _______ _______ _____ _____    ______ ____
ROOT
ATOM      1  C   UNL     1       0.796   8.834  20.987  0.00  0.00    +0.000 C 
ATOM      2  O   UNL     1       0.786   8.961  22.205  0.00  0.00    +0.000 OA
ATOM      3  N   UNL     1       0.166   9.629  20.050  0.00  0.00    +0.000 N 
ATOM      4  C   UNL     1      -0.593  10.746  20.353  0.00  0.00    +0.000 A 
ATOM      5  N   UNL     1      -0.602  11.372  21.530  0.00  0.00    +0.000 NA
ATOM      6  N   UNL     1      -1.591  12.293  21.451  0.00  0.00    +0.000 N 
ATOM      7  C   UNL     1      -2.075  12.378  20.167  0.00  0.00    +0.000 A 
ATOM      8  C   UNL     1      -1.453  11.395  19.426  0.00  0.00    +0.000 A 
ATOM      9  C   UNL     1      -1.673  11.098  17.993  0.00  0.00    +0.000 C 
ATOM     10  H   UNL     1       0.104   9.303  19.098  0.00  0.00    +0.000 HD
ENDROOT
BRANCH   1  19
ATOM     11  C   UNL     1       2.817   2.347  19.536  0.00  0.00    +0.000 C 
ATOM     12  C   UNL     1       3.522   3.122  18.461  0.00  0.00    +0.000 C 
ATOM     13  O   UNL     1       4.171   2.507  17.607  0.00  0.00    +0.000 OA
ATOM     14  N   UNL     1       3.420   4.494  18.427  0.00  0.00    +0.000 N 
ATOM     15  C   UNL     1       4.001   5.214  17.282  0.00  0.00    +0.000 C 
ATOM     16  C   UNL     1       3.795   6.710  17.516  0.00  0.00    +0.000 C 
ATOM     17  C   UNL     1       2.898   6.707  18.713  0.00  0.00    +0.000 A 
ATOM     18  C   UNL     1       2.283   7.819  19.280  0.00  0.00    +0.000 A 
ATOM     19  C   UNL     1       1.508   7.644  20.432  0.00  0.00    +0.000 A 
ATOM     20  C   UNL     1       1.381   6.363  20.997  0.00  0.00    +0.000 A 
ATOM     21  C   UNL     1       2.000   5.249  20.403  0.00  0.00    +0.000 A 
ATOM     22  C   UNL     1       2.744   5.422  19.245  0.00  0.00    +0.000 A 
ENDBRANCH   1  19
BRANCH   6  23
ATOM     23  C   UNL     1      -1.940  13.094  22.570  0.00  0.00    +0.000 A 
ATOM     24  C   UNL     1      -3.174  12.834  23.199  0.00  0.00    +0.000 A 
ATOM     25  C   UNL     1      -3.539  13.525  24.357  0.00  0.00    +0.000 A 
ATOM     26  C   UNL     1      -2.701  14.506  24.878  0.00  0.00    +0.000 A 
ATOM     27  C   UNL     1      -1.501  14.805  24.233  0.00  0.00    +0.000 A 
ATOM     28  C   UNL     1      -1.114  14.106  23.080  0.00  0.00    +0.000 A 
ATOM     29 CL   UNL     1       0.318  14.687  22.300  0.00  0.00    +0.000 Cl
ENDBRANCH   6  23
TORSDOF 2
ENDMDL
