MODEL 1
REMARK VINA RESULT:      -8.3      0.000      0.000
REMARK  Name = 
REMARK  4 active torsions:
REMARK  status: ('A' for Active; 'I' for Inactive)
REMARK    1  A    between atoms: C_2  and  C_18
REMARK    2  A    between atoms: N_3  and  C_4
REMARK    3  A    between atoms: C_7  and  C_8
REMARK    4  A    between atoms: C_8  and  N_9
REMARK                            x       y       z     vdW  Elec       q    Type
REMARK                         _______ _______ _______ _____ _____    ______ ____
ROOT
ATOM      1  C   UNL     1       1.461   8.434  19.623  0.00  0.00    +0.000 A 
ATOM      2  C   UNL     1       2.040   8.676  18.376  0.00  0.00    +0.000 A 
ATOM      3  C   UNL     1       2.895   7.739  17.793  0.00  0.00    +0.000 A 
ATOM      4  C   UNL     1       3.185   6.539  18.448  0.00  0.00    +0.000 A 
ATOM      5  C   UNL     1       2.656   6.322  19.726  0.00  0.00    +0.000 A 
ATOM      6  C   UNL     1       1.805   7.267  20.313  0.00  0.00    +0.000 A 
ENDROOT
BRANCH   1   9
ATOM      7  O   UNL     1       1.565   9.669  22.275  0.00  0.00    +0.000 OA
ATOM      8  C   UNL     1       0.634   9.846  21.498  0.00  0.00    +0.000 C 
ATOM      9  N   UNL     1       0.537   9.313  20.224  0.00  0.00    +0.000 N 
ATOM     10  H   UNL     1      -0.192   9.675  19.627  0.00  0.00    +0.000 HD
BRANCH   8  11
ATOM     11  C   UNL     1      -0.483  10.713  21.877  0.00  0.00    +0.000 A 
ATOM     12  C   UNL     1      -1.185  10.854  23.112  0.00  0.00    +0.000 A 
ATOM     13  C   UNL     1      -2.139  11.835  22.946  0.00  0.00    +0.000 A 
ATOM     14  C   UNL     1      -3.117  12.426  23.797  0.00  0.00    +0.000 A 
ATOM     15  C   UNL     1      -3.921  13.391  23.313  0.00  0.00    +0.000 A 
ATOM     16  C   UNL     1      -3.823  13.847  21.936  0.00  0.00    +0.000 A 
ATOM     17  C   UNL     1      -2.897  13.293  21.134  0.00  0.00    +0.000 A 
ATOM     18  N   UNL     1      -2.065  12.301  21.639  0.00  0.00    +0.000 N 
ATOM     19  C   UNL     1      -1.060  11.621  21.001  0.00  0.00    +0.000 A 
ENDBRANCH   8  11
ENDBRANCH   1   9
BRANCH   4  20
ATOM     20  C   UNL     1       4.070   5.511  17.784  0.00  0.00    +0.000 C 
BRANCH  20  21
ATOM     21  N   UNL     1       5.465   5.880  17.853  0.00  0.00    +0.000 N 
ATOM     22  C   UNL     1       6.279   5.544  18.891  0.00  0.00    +0.000 C 
ATOM     23  O   UNL     1       5.987   4.859  19.862  0.00  0.00    +0.000 OA
ATOM     24  C   UNL     1       7.625   6.165  18.672  0.00  0.00    +0.000 C 
ATOM     25  C   UNL     1       7.550   6.742  17.270  0.00  0.00    +0.000 C 
ATOM     26  C   UNL     1       6.113   6.571  16.873  0.00  0.00    +0.000 C 
ATOM     27  O   UNL     1       5.643   6.962  15.815  0.00  0.00    +0.000 OA
ENDBRANCH  20  21
ENDBRANCH   4  20
TORSDOF 4
ENDMDL
MODEL 2
REMARK VINA RESULT:      -8.3      6.812      8.775
REMARK  Name = 
REMARK  4 active torsions:
REMARK  status: ('A' for Active; 'I' for Inactive)
REMARK    1  A    between atoms: C_2  and  C_18
REMARK    2  A    between atoms: N_3  and  C_4
REMARK    3  A    between atoms: C_7  and  C_8
REMARK    4  A    between atoms: C_8  and  N_9
REMARK                            x       y       z     vdW  Elec       q    Type
REMARK                         _______ _______ _______ _____ _____    ______ ____
ROOT
ATOM      1  C   UNL     1       6.233   7.039  17.322  0.00  0.00    +0.000 A 
ATOM      2  C   UNL     1       4.838   7.032  17.375  0.00  0.00    +0.000 A 
ATOM      3  C   UNL     1       4.126   5.839  17.251  0.00  0.00    +0.000 A 
ATOM      4  C   UNL     1       4.798   4.627  17.074  0.00  0.00    +0.000 A 
ATOM      5  C   UNL     1       6.194   4.639  16.956  0.00  0.00    +0.000 A 
ATOM      6  C   UNL     1       6.906   5.838  17.073  0.00  0.00    +0.000 A 
ENDROOT
BRANCH   1   9
ATOM      7  O   UNL     1       8.613   7.415  18.987  0.00  0.00    +0.000 OA
ATOM      8  C   UNL     1       8.108   8.323  18.336  0.00  0.00    +0.000 C 
ATOM      9  N   UNL     1       7.003   8.205  17.512  0.00  0.00    +0.000 N 
ATOM     10  H   UNL     1       6.798   8.982  16.901  0.00  0.00    +0.000 HD
BRANCH   8  11
ATOM     11  C   UNL     1       8.704   9.660  18.362  0.00  0.00    +0.000 A 
ATOM     12  C   UNL     1       8.529  10.783  17.497  0.00  0.00    +0.000 A 
ATOM     13  C   UNL     1       9.303  11.814  17.983  0.00  0.00    +0.000 A 
ATOM     14  C   UNL     1       9.535  13.160  17.577  0.00  0.00    +0.000 A 
ATOM     15  C   UNL     1      10.378  13.932  18.289  0.00  0.00    +0.000 A 
ATOM     16  C   UNL     1      11.067  13.425  19.465  0.00  0.00    +0.000 A 
ATOM     17  C   UNL     1      10.846  12.157  19.851  0.00  0.00    +0.000 A 
ATOM     18  N   UNL     1       9.970  11.366  19.116  0.00  0.00    +0.000 N 
ATOM     19  C   UNL     1       9.600  10.065  19.341  0.00  0.00    +0.000 A 
ENDBRANCH   8  11
ENDBRANCH   1   9
BRANCH   4  20
ATOM     20  C   UNL     1       4.019   3.335  16.992  0.00  0.00    +0.000 C 
BRANCH  20  21
ATOM     21  N   UNL     1       3.155   3.156  18.135  0.00  0.00    +0.000 N 
ATOM     22  C   UNL     1       3.598   2.727  19.350  0.00  0.00    +0.000 C 
ATOM     23  O   UNL     1       4.755   2.488  19.667  0.00  0.00    +0.000 OA
ATOM     24  C   UNL     1       2.423   2.573  20.266  0.00  0.00    +0.000 C 
ATOM     25  C   UNL     1       1.259   3.161  19.489  0.00  0.00    +0.000 C 
ATOM     26  C   UNL     1       1.821   3.431  18.125  0.00  0.00    +0.000 C 
ATOM     27  O   UNL     1       1.167   3.869  17.189  0.00  0.00    +0.000 OA
ENDBRANCH  20  21
ENDBRANCH   4  20
TORSDOF 4
ENDMDL
MODEL 3
REMARK VINA RESULT:      -8.2      6.871      8.876
REMARK  Name = 
REMARK  4 active torsions:
REMARK  status: ('A' for Active; 'I' for Inactive)
REMARK    1  A    between atoms: C_2  and  C_18
REMARK    2  A    between atoms: N_3  and  C_4
REMARK    3  A    between atoms: C_7  and  C_8
REMARK    4  A    between atoms: C_8  and  N_9
REMARK                            x       y       z     vdW  Elec       q    Type
REMARK                         _______ _______ _______ _____ _____    ______ ____
ROOT
ATOM      1  C   UNL     1       6.366   7.036  17.359  0.00  0.00    +0.000 A 
ATOM      2  C   UNL     1       4.974   7.035  17.255  0.00  0.00    +0.000 A 
ATOM      3  C   UNL     1       4.269   5.835  17.149  0.00  0.00    +0.000 A 
ATOM      4  C   UNL     1       4.945   4.612  17.147  0.00  0.00    +0.000 A 
ATOM      5  C   UNL     1       6.345   4.614  17.187  0.00  0.00    +0.000 A 
ATOM      6  C   UNL     1       7.051   5.818  17.286  0.00  0.00    +0.000 A 
ENDROOT
BRANCH   1   9
ATOM      7  O   UNL     1       8.672   7.486  19.107  0.00  0.00    +0.000 OA
ATOM      8  C   UNL     1       8.191   8.368  18.404  0.00  0.00    +0.000 C 
ATOM      9  N   UNL     1       7.121   8.214  17.539  0.00  0.00    +0.000 N 
ATOM     10  H   UNL     1       6.937   8.967  16.894  0.00  0.00    +0.000 HD
BRANCH   8  11
ATOM     11  C   UNL     1       8.777   9.709  18.408  0.00  0.00    +0.000 A 
ATOM     12  C   UNL     1       8.670  10.783  17.474  0.00  0.00    +0.000 A 
ATOM     13  C   UNL     1       9.398  11.844  17.965  0.00  0.00    +0.000 A 
ATOM     14  C   UNL     1       9.657  13.170  17.509  0.00  0.00    +0.000 A 
ATOM     15  C   UNL     1      10.437  13.984  18.245  0.00  0.00    +0.000 A 
ATOM     16  C   UNL     1      11.031  13.545  19.498  0.00  0.00    +0.000 A 
ATOM     17  C   UNL     1      10.783  12.297  19.931  0.00  0.00    +0.000 A 
ATOM     18  N   UNL     1       9.973  11.462  19.170  0.00  0.00    +0.000 N 
ATOM     19  C   UNL     1       9.590  10.171  19.432  0.00  0.00    +0.000 A 
ENDBRANCH   8  11
ENDBRANCH   1   9
BRANCH   4  20
ATOM     20  C   UNL     1       4.167   3.319  17.083  0.00  0.00    +0.000 C 
BRANCH  20  21
ATOM     21  N   UNL     1       3.294   3.161  18.222  0.00  0.00    +0.000 N 
ATOM     22  C   UNL     1       1.953   3.393  18.177  0.00  0.00    +0.000 C 
ATOM     23  O   UNL     1       1.294   3.705  17.195  0.00  0.00    +0.000 OA
ATOM     24  C   UNL     1       1.385   3.217  19.553  0.00  0.00    +0.000 C 
ATOM     25  C   UNL     1       2.537   2.655  20.367  0.00  0.00    +0.000 C 
ATOM     26  C   UNL     1       3.717   2.731  19.444  0.00  0.00    +0.000 C 
ATOM     27  O   UNL     1       4.854   2.410  19.758  0.00  0.00    +0.000 OA
ENDBRANCH  20  21
ENDBRANCH   4  20
TORSDOF 4
ENDMDL
MODEL 4
REMARK VINA RESULT:      -8.2      0.143      1.484
REMARK  Name = 
REMARK  4 active torsions:
REMARK  status: ('A' for Active; 'I' for Inactive)
REMARK    1  A    between atoms: C_2  and  C_18
REMARK    2  A    between atoms: N_3  and  C_4
REMARK    3  A    between atoms: C_7  and  C_8
REMARK    4  A    between atoms: C_8  and  N_9
REMARK                            x       y       z     vdW  Elec       q    Type
REMARK                         _______ _______ _______ _____ _____    ______ ____
ROOT
ATOM      1  C   UNL     1       1.475   8.414  19.650  0.00  0.00    +0.000 A 
ATOM      2  C   UNL     1       2.058   8.657  18.405  0.00  0.00    +0.000 A 
ATOM      3  C   UNL     1       2.894   7.709  17.812  0.00  0.00    +0.000 A 
ATOM      4  C   UNL     1       3.160   6.498  18.454  0.00  0.00    +0.000 A 
ATOM      5  C   UNL     1       2.628   6.278  19.731  0.00  0.00    +0.000 A 
ATOM      6  C   UNL     1       1.796   7.233  20.328  0.00  0.00    +0.000 A 
ENDROOT
BRANCH   1   9
ATOM      7  O   UNL     1       1.653   9.696  22.276  0.00  0.00    +0.000 OA
ATOM      8  C   UNL     1       0.701   9.860  21.521  0.00  0.00    +0.000 C 
ATOM      9  N   UNL     1       0.568   9.305  20.260  0.00  0.00    +0.000 N 
ATOM     10  H   UNL     1      -0.176   9.657  19.677  0.00  0.00    +0.000 HD
BRANCH   8  11
ATOM     11  C   UNL     1      -0.404  10.736  21.915  0.00  0.00    +0.000 A 
ATOM     12  C   UNL     1      -1.195  10.773  23.103  0.00  0.00    +0.000 A 
ATOM     13  C   UNL     1      -2.089  11.814  22.983  0.00  0.00    +0.000 A 
ATOM     14  C   UNL     1      -3.105  12.355  23.822  0.00  0.00    +0.000 A 
ATOM     15  C   UNL     1      -3.827  13.409  23.396  0.00  0.00    +0.000 A 
ATOM     16  C   UNL     1      -3.601  14.011  22.092  0.00  0.00    +0.000 A 
ATOM     17  C   UNL     1      -2.640  13.504  21.301  0.00  0.00    +0.000 A 
ATOM     18  N   UNL     1      -1.893  12.420  21.748  0.00  0.00    +0.000 N 
ATOM     19  C   UNL     1      -0.871  11.765  21.111  0.00  0.00    +0.000 A 
ENDBRANCH   8  11
ENDBRANCH   1   9
BRANCH   4  20
ATOM     20  C   UNL     1       4.025   5.459  17.780  0.00  0.00    +0.000 C 
BRANCH  20  21
ATOM     21  N   UNL     1       5.423   5.822  17.813  0.00  0.00    +0.000 N 
ATOM     22  C   UNL     1       6.041   6.515  16.816  0.00  0.00    +0.000 C 
ATOM     23  O   UNL     1       5.522   6.968  15.806  0.00  0.00    +0.000 OA
ATOM     24  C   UNL     1       7.499   6.634  17.142  0.00  0.00    +0.000 C 
ATOM     25  C   UNL     1       7.614   6.095  18.556  0.00  0.00    +0.000 C 
ATOM     26  C   UNL     1       6.253   5.539  18.855  0.00  0.00    +0.000 C 
ATOM     27  O   UNL     1       5.959   4.968  19.895  0.00  0.00    +0.000 OA
ENDBRANCH  20  21
ENDBRANCH   4  20
TORSDOF 4
ENDMDL
MODEL 5
REMARK VINA RESULT:      -8.1      0.746      1.205
REMARK  Name = 
REMARK  4 active torsions:
REMARK  status: ('A' for Active; 'I' for Inactive)
REMARK    1  A    between atoms: C_2  and  C_18
REMARK    2  A    between atoms: N_3  and  C_4
REMARK    3  A    between atoms: C_7  and  C_8
REMARK    4  A    between atoms: C_8  and  N_9
REMARK                            x       y       z     vdW  Elec       q    Type
REMARK                         _______ _______ _______ _____ _____    ______ ____
ROOT
ATOM      1  C   UNL     1       1.583   8.372  19.596  0.00  0.00    +0.000 A 
ATOM      2  C   UNL     1       1.924   7.134  20.143  0.00  0.00    +0.000 A 
ATOM      3  C   UNL     1       2.793   6.272  19.472  0.00  0.00    +0.000 A 
ATOM      4  C   UNL     1       3.340   6.636  18.239  0.00  0.00    +0.000 A 
ATOM      5  C   UNL     1       2.950   7.849  17.658  0.00  0.00    +0.000 A 
ATOM      6  C   UNL     1       2.072   8.708  18.328  0.00  0.00    +0.000 A 
ENDROOT
BRANCH   1   9
ATOM      7  O   UNL     1       1.850   9.430  22.313  0.00  0.00    +0.000 OA
ATOM      8  C   UNL     1       0.935   9.750  21.563  0.00  0.00    +0.000 C 
ATOM      9  N   UNL     1       0.766   9.308  20.263  0.00  0.00    +0.000 N 
ATOM     10  H   UNL     1       0.075   9.780  19.700  0.00  0.00    +0.000 HD
BRANCH   8  11
ATOM     11  C   UNL     1      -0.077  10.708  22.012  0.00  0.00    +0.000 A 
ATOM     12  C   UNL     1      -1.156  10.571  22.936  0.00  0.00    +0.000 A 
ATOM     13  C   UNL     1      -1.796  11.788  23.023  0.00  0.00    +0.000 A 
ATOM     14  C   UNL     1      -2.906  12.278  23.771  0.00  0.00    +0.000 A 
ATOM     15  C   UNL     1      -3.293  13.559  23.621  0.00  0.00    +0.000 A 
ATOM     16  C   UNL     1      -2.611  14.461  22.707  0.00  0.00    +0.000 A 
ATOM     17  C   UNL     1      -1.561  14.001  22.005  0.00  0.00    +0.000 A 
ATOM     18  N   UNL     1      -1.161  12.679  22.168  0.00  0.00    +0.000 N 
ATOM     19  C   UNL     1      -0.121  12.020  21.563  0.00  0.00    +0.000 A 
ENDBRANCH   8  11
ENDBRANCH   1   9
BRANCH   4  20
ATOM     20  C   UNL     1       4.320   5.718  17.547  0.00  0.00    +0.000 C 
BRANCH  20  21
ATOM     21  N   UNL     1       5.666   5.901  18.037  0.00  0.00    +0.000 N 
ATOM     22  C   UNL     1       6.213   5.144  19.028  0.00  0.00    +0.000 C 
ATOM     23  O   UNL     1       5.694   4.194  19.598  0.00  0.00    +0.000 OA
ATOM     24  C   UNL     1       7.582   5.669  19.338  0.00  0.00    +0.000 C 
ATOM     25  C   UNL     1       7.841   6.704  18.259  0.00  0.00    +0.000 C 
ATOM     26  C   UNL     1       6.533   6.824  17.535  0.00  0.00    +0.000 C 
ATOM     27  O   UNL     1       6.327   7.605  16.618  0.00  0.00    +0.000 OA
ENDBRANCH  20  21
ENDBRANCH   4  20
TORSDOF 4
ENDMDL
MODEL 6
REMARK VINA RESULT:      -8.1      1.661      2.521
REMARK  Name = 
REMARK  4 active torsions:
REMARK  status: ('A' for Active; 'I' for Inactive)
REMARK    1  A    between atoms: C_2  and  C_18
REMARK    2  A    between atoms: N_3  and  C_4
REMARK    3  A    between atoms: C_7  and  C_8
REMARK    4  A    between atoms: C_8  and  N_9
REMARK                            x       y       z     vdW  Elec       q    Type
REMARK                         _______ _______ _______ _____ _____    ______ ____
ROOT
ATOM      1  C   UNL     1       1.447   8.534  19.584  0.00  0.00    +0.000 A 
ATOM      2  C   UNL     1       1.993   8.766  18.320  0.00  0.00    +0.000 A 
ATOM      3  C   UNL     1       2.826   7.821  17.719  0.00  0.00    +0.000 A 
ATOM      4  C   UNL     1       3.128   6.623  18.373  0.00  0.00    +0.000 A 
ATOM      5  C   UNL     1       2.634   6.417  19.667  0.00  0.00    +0.000 A 
ATOM      6  C   UNL     1       1.805   7.369  20.272  0.00  0.00    +0.000 A 
ENDROOT
BRANCH   1   9
ATOM      7  O   UNL     1       1.556   9.668  22.281  0.00  0.00    +0.000 OA
ATOM      8  C   UNL     1       0.642   9.904  21.499  0.00  0.00    +0.000 C 
ATOM      9  N   UNL     1       0.545   9.422  20.205  0.00  0.00    +0.000 N 
ATOM     10  H   UNL     1      -0.162   9.830  19.612  0.00  0.00    +0.000 HD
BRANCH   8  11
ATOM     11  C   UNL     1      -0.450  10.795  21.895  0.00  0.00    +0.000 A 
ATOM     12  C   UNL     1      -1.231  10.850  23.089  0.00  0.00    +0.000 A 
ATOM     13  C   UNL     1      -2.115  11.899  22.968  0.00  0.00    +0.000 A 
ATOM     14  C   UNL     1      -3.118  12.458  23.812  0.00  0.00    +0.000 A 
ATOM     15  C   UNL     1      -3.832  13.517  23.383  0.00  0.00    +0.000 A 
ATOM     16  C   UNL     1      -3.610  14.106  22.072  0.00  0.00    +0.000 A 
ATOM     17  C   UNL     1      -2.661  13.583  21.278  0.00  0.00    +0.000 A 
ATOM     18  N   UNL     1      -1.922  12.494  21.727  0.00  0.00    +0.000 N 
ATOM     19  C   UNL     1      -0.912  11.823  21.086  0.00  0.00    +0.000 A 
ENDBRANCH   8  11
ENDBRANCH   1   9
BRANCH   4  20
ATOM     20  C   UNL     1       3.990   5.587  17.692  0.00  0.00    +0.000 C 
BRANCH  20  21
ATOM     21  N   UNL     1       3.749   4.262  18.213  0.00  0.00    +0.000 N 
ATOM     22  C   UNL     1       2.650   3.521  17.899  0.00  0.00    +0.000 C 
ATOM     23  O   UNL     1       1.759   3.823  17.118  0.00  0.00    +0.000 OA
ATOM     24  C   UNL     1       2.686   2.246  18.686  0.00  0.00    +0.000 C 
ATOM     25  C   UNL     1       4.051   2.250  19.349  0.00  0.00    +0.000 C 
ATOM     26  C   UNL     1       4.610   3.608  19.042  0.00  0.00    +0.000 C 
ATOM     27  O   UNL     1       5.688   4.013  19.451  0.00  0.00    +0.000 OA
ENDBRANCH  20  21
ENDBRANCH   4  20
TORSDOF 4
ENDMDL
MODEL 7
REMARK VINA RESULT:      -8.1      1.699      2.381
REMARK  Name = 
REMARK  4 active torsions:
REMARK  status: ('A' for Active; 'I' for Inactive)
REMARK    1  A    between atoms: C_2  and  C_18
REMARK    2  A    between atoms: N_3  and  C_4
REMARK    3  A    between atoms: C_7  and  C_8
REMARK    4  A    between atoms: C_8  and  N_9
REMARK                            x       y       z     vdW  Elec       q    Type
REMARK                         _______ _______ _______ _____ _____    ______ ____
ROOT
ATOM      1  C   UNL     1       1.441   8.517  19.600  0.00  0.00    +0.000 A 
ATOM      2  C   UNL     1       2.027   8.754  18.356  0.00  0.00    +0.000 A 
ATOM      3  C   UNL     1       2.859   7.801  17.766  0.00  0.00    +0.000 A 
ATOM      4  C   UNL     1       3.119   6.589  18.412  0.00  0.00    +0.000 A 
ATOM      5  C   UNL     1       2.585   6.376  19.689  0.00  0.00    +0.000 A 
ATOM      6  C   UNL     1       1.757   7.336  20.282  0.00  0.00    +0.000 A 
ENDROOT
BRANCH   1   9
ATOM      7  O   UNL     1       1.540   9.680  22.286  0.00  0.00    +0.000 OA
ATOM      8  C   UNL     1       0.631   9.910  21.496  0.00  0.00    +0.000 C 
ATOM      9  N   UNL     1       0.539   9.414  20.208  0.00  0.00    +0.000 N 
ATOM     10  H   UNL     1      -0.165   9.817  19.607  0.00  0.00    +0.000 HD
BRANCH   8  11
ATOM     11  C   UNL     1      -0.460  10.808  21.878  0.00  0.00    +0.000 A 
ATOM     12  C   UNL     1      -1.229  10.895  23.078  0.00  0.00    +0.000 A 
ATOM     13  C   UNL     1      -2.118  11.937  22.935  0.00  0.00    +0.000 A 
ATOM     14  C   UNL     1      -3.114  12.517  23.773  0.00  0.00    +0.000 A 
ATOM     15  C   UNL     1      -3.837  13.559  23.321  0.00  0.00    +0.000 A 
ATOM     16  C   UNL     1      -3.632  14.110  21.991  0.00  0.00    +0.000 A 
ATOM     17  C   UNL     1      -2.690  13.567  21.202  0.00  0.00    +0.000 A 
ATOM     18  N   UNL     1      -1.942  12.495  21.675  0.00  0.00    +0.000 N 
ATOM     19  C   UNL     1      -0.936  11.809  21.044  0.00  0.00    +0.000 A 
ENDBRANCH   8  11
ENDBRANCH   1   9
BRANCH   4  20
ATOM     20  C   UNL     1       3.980   5.545  17.741  0.00  0.00    +0.000 C 
BRANCH  20  21
ATOM     21  N   UNL     1       3.604   4.207  18.133  0.00  0.00    +0.000 N 
ATOM     22  C   UNL     1       4.384   3.406  18.910  0.00  0.00    +0.000 C 
ATOM     23  O   UNL     1       5.455   3.698  19.423  0.00  0.00    +0.000 OA
ATOM     24  C   UNL     1       3.724   2.066  19.039  0.00  0.00    +0.000 C 
ATOM     25  C   UNL     1       2.360   2.256  18.401  0.00  0.00    +0.000 C 
ATOM     26  C   UNL     1       2.419   3.626  17.794  0.00  0.00    +0.000 C 
ATOM     27  O   UNL     1       1.513   4.127  17.143  0.00  0.00    +0.000 OA
ENDBRANCH  20  21
ENDBRANCH   4  20
TORSDOF 4
ENDMDL
MODEL 8
REMARK VINA RESULT:      -8.0      0.439      1.158
REMARK  Name = 
REMARK  4 active torsions:
REMARK  status: ('A' for Active; 'I' for Inactive)
REMARK    1  A    between atoms: C_2  and  C_18
REMARK    2  A    between atoms: N_3  and  C_4
REMARK    3  A    between atoms: C_7  and  C_8
REMARK    4  A    between atoms: C_8  and  N_9
REMARK                            x       y       z     vdW  Elec       q    Type
REMARK                         _______ _______ _______ _____ _____    ______ ____
ROOT
ATOM      1  C   UNL     1       1.443   8.604  19.497  0.00  0.00    +0.000 A 
ATOM      2  C   UNL     1       2.039   8.776  18.247  0.00  0.00    +0.000 A 
ATOM      3  C   UNL     1       2.875   7.793  17.713  0.00  0.00    +0.000 A 
ATOM      4  C   UNL     1       3.128   6.617  18.423  0.00  0.00    +0.000 A 
ATOM      5  C   UNL     1       2.583   6.470  19.705  0.00  0.00    +0.000 A 
ATOM      6  C   UNL     1       1.751   7.460  20.241  0.00  0.00    +0.000 A 
ENDROOT
BRANCH   1   9
ATOM      7  O   UNL     1       1.525   9.908  22.118  0.00  0.00    +0.000 OA
ATOM      8  C   UNL     1       0.621  10.095  21.311  0.00  0.00    +0.000 C 
ATOM      9  N   UNL     1       0.537   9.532  20.050  0.00  0.00    +0.000 N 
ATOM     10  H   UNL     1      -0.163   9.903  19.425  0.00  0.00    +0.000 HD
BRANCH   8  11
ATOM     11  C   UNL     1      -0.472  11.012  21.638  0.00  0.00    +0.000 A 
ATOM     12  C   UNL     1      -1.036  12.101  20.906  0.00  0.00    +0.000 A 
ATOM     13  C   UNL     1      -2.070  12.622  21.653  0.00  0.00    +0.000 A 
ATOM     14  C   UNL     1      -3.003  13.681  21.458  0.00  0.00    +0.000 A 
ATOM     15  C   UNL     1      -3.917  13.945  22.411  0.00  0.00    +0.000 A 
ATOM     16  C   UNL     1      -3.975  13.177  23.645  0.00  0.00    +0.000 A 
ATOM     17  C   UNL     1      -3.099  12.174  23.827  0.00  0.00    +0.000 A 
ATOM     18  N   UNL     1      -2.161  11.903  22.838  0.00  0.00    +0.000 N 
ATOM     19  C   UNL     1      -1.195  10.930  22.820  0.00  0.00    +0.000 A 
ENDBRANCH   8  11
ENDBRANCH   1   9
BRANCH   4  20
ATOM     20  C   UNL     1       3.993   5.539  17.814  0.00  0.00    +0.000 C 
BRANCH  20  21
ATOM     21  N   UNL     1       5.394   5.886  17.857  0.00  0.00    +0.000 N 
ATOM     22  C   UNL     1       6.216   5.560  18.893  0.00  0.00    +0.000 C 
ATOM     23  O   UNL     1       5.925   4.901  19.881  0.00  0.00    +0.000 OA
ATOM     24  C   UNL     1       7.569   6.154  18.642  0.00  0.00    +0.000 C 
ATOM     25  C   UNL     1       7.484   6.701  17.229  0.00  0.00    +0.000 C 
ATOM     26  C   UNL     1       6.040   6.544  16.854  0.00  0.00    +0.000 C 
ATOM     27  O   UNL     1       5.564   6.919  15.793  0.00  0.00    +0.000 OA
ENDBRANCH  20  21
ENDBRANCH   4  20
TORSDOF 4
ENDMDL
MODEL 9
REMARK VINA RESULT:      -8.0      1.951      2.990
REMARK  Name = 
REMARK  4 active torsions:
REMARK  status: ('A' for Active; 'I' for Inactive)
REMARK    1  A    between atoms: C_2  and  C_18
REMARK    2  A    between atoms: N_3  and  C_4
REMARK    3  A    between atoms: C_7  and  C_8
REMARK    4  A    between atoms: C_8  and  N_9
REMARK                            x       y       z     vdW  Elec       q    Type
REMARK                         _______ _______ _______ _____ _____    ______ ____
ROOT
ATOM      1  C   UNL     1       1.421   8.752  19.700  0.00  0.00    +0.000 A 
ATOM      2  C   UNL     1       1.922   8.910  18.407  0.00  0.00    +0.000 A 
ATOM      3  C   UNL     1       2.638   7.883  17.789  0.00  0.00    +0.000 A 
ATOM      4  C   UNL     1       2.865   6.677  18.456  0.00  0.00    +0.000 A 
ATOM      5  C   UNL     1       2.419   6.540  19.777  0.00  0.00    +0.000 A 
ATOM      6  C   UNL     1       1.708   7.573  20.397  0.00  0.00    +0.000 A 
ENDROOT
BRANCH   1   9
ATOM      7  O   UNL     1       1.537   9.665  22.480  0.00  0.00    +0.000 OA
ATOM      8  C   UNL     1       0.722  10.098  21.673  0.00  0.00    +0.000 C 
ATOM      9  N   UNL     1       0.632   9.729  20.342  0.00  0.00    +0.000 N 
ATOM     10  H   UNL     1       0.036  10.285  19.748  0.00  0.00    +0.000 HD
BRANCH   8  11
ATOM     11  C   UNL     1      -0.239  11.123  22.082  0.00  0.00    +0.000 A 
ATOM     12  C   UNL     1      -0.327  12.511  21.759  0.00  0.00    +0.000 A 
ATOM     13  C   UNL     1      -1.443  13.021  22.386  0.00  0.00    +0.000 A 
ATOM     14  C   UNL     1      -2.057  14.306  22.434  0.00  0.00    +0.000 A 
ATOM     15  C   UNL     1      -3.175  14.480  23.165  0.00  0.00    +0.000 A 
ATOM     16  C   UNL     1      -3.773  13.388  23.916  0.00  0.00    +0.000 A 
ATOM     17  C   UNL     1      -3.197  12.175  23.867  0.00  0.00    +0.000 A 
ATOM     18  N   UNL     1      -2.047  11.998  23.106  0.00  0.00    +0.000 N 
ATOM     19  C   UNL     1      -1.316  10.854  22.915  0.00  0.00    +0.000 A 
ENDBRANCH   8  11
ENDBRANCH   1   9
BRANCH   4  20
ATOM     20  C   UNL     1       3.598   5.555  17.759  0.00  0.00    +0.000 C 
BRANCH  20  21
ATOM     21  N   UNL     1       3.183   4.259  18.245  0.00  0.00    +0.000 N 
ATOM     22  C   UNL     1       1.972   3.705  17.961  0.00  0.00    +0.000 C 
ATOM     23  O   UNL     1       1.103   4.169  17.236  0.00  0.00    +0.000 OA
ATOM     24  C   UNL     1       1.850   2.406  18.700  0.00  0.00    +0.000 C 
ATOM     25  C   UNL     1       3.228   2.179  19.292  0.00  0.00    +0.000 C 
ATOM     26  C   UNL     1       3.972   3.450  19.005  0.00  0.00    +0.000 C 
ATOM     27  O   UNL     1       5.116   3.672  19.373  0.00  0.00    +0.000 OA
ENDBRANCH  20  21
ENDBRANCH   4  20
TORSDOF 4
ENDMDL
