MODEL 1
REMARK VINA RESULT:      -9.1      0.000      0.000
REMARK  Name = 
REMARK  6 active torsions:
REMARK  status: ('A' for Active; 'I' for Inactive)
REMARK    1  A    between atoms: C_1  and  C_2
REMARK    2  A    between atoms: N_4  and  S_5
REMARK    3  A    between atoms: S_5  and  C_8
REMARK    4  A    between atoms: C_11  and  N_12
REMARK    5  A    between atoms: C_13  and  C_15
REMARK    6  A    between atoms: C_28  and  C_29
REMARK                            x       y       z     vdW  Elec       q    Type
REMARK                         _______ _______ _______ _____ _____    ______ ____
ROOT
ATOM      1  C   UNL     1       2.649   6.181  19.051  0.00  0.00    +0.000 A 
ATOM      2  C   UNL     1       2.532   7.275  18.201  0.00  0.00    +0.000 A 
ATOM      3  C   UNL     1       1.900   8.438  18.645  0.00  0.00    +0.000 A 
ATOM      4  C   UNL     1       1.339   8.529  19.921  0.00  0.00    +0.000 A 
ATOM      5  C   UNL     1       1.428   7.406  20.763  0.00  0.00    +0.000 A 
ATOM      6  C   UNL     1       2.076   6.234  20.329  0.00  0.00    +0.000 A 
ENDROOT
BRANCH   4   7
ATOM      7  N   UNL     1       0.697   9.703  20.399  0.00  0.00    +0.000 N 
ATOM      8  C   UNL     1       0.642  10.103  21.728  0.00  0.00    +0.000 C 
ATOM      9  O   UNL     1       1.190   9.560  22.682  0.00  0.00    +0.000 OA
ATOM     10  H   UNL     1       0.170  10.236  19.714  0.00  0.00    +0.000 HD
BRANCH   8  11
ATOM     11  C   UNL     1      -0.236  11.255  22.053  0.00  0.00    +0.000 A 
ATOM     12  C   UNL     1      -0.033  12.547  21.536  0.00  0.00    +0.000 A 
ATOM     13  C   UNL     1      -0.954  13.561  21.832  0.00  0.00    +0.000 A 
ATOM     14 CL   UNL     1      -0.735  15.131  21.171  0.00  0.00    +0.000 Cl
ATOM     15  C   UNL     1      -2.050  13.261  22.624  0.00  0.00    +0.000 A 
ATOM     16  C   UNL     1      -2.211  12.005  23.157  0.00  0.00    +0.000 A 
ATOM     17  C   UNL     1      -1.315  10.991  22.912  0.00  0.00    +0.000 A 
ATOM     18  O   UNL     1      -3.348  11.884  23.893  0.00  0.00    +0.000 OA
ATOM     19  C   UNL     1      -3.948  13.173  23.668  0.00  0.00    +0.000 C 
ATOM     20  O   UNL     1      -3.083  14.084  22.960  0.00  0.00    +0.000 OA
ENDBRANCH   8  11
ENDBRANCH   4   7
BRANCH   1  21
ATOM     21  S   UNL     1       3.290   4.655  18.395  0.00  0.00    +0.000 S 
ATOM     22  O   UNL     1       2.311   4.122  17.470  0.00  0.00    +0.000 OA
ATOM     23  O   UNL     1       3.736   3.866  19.527  0.00  0.00    +0.000 OA
BRANCH  21  27
ATOM     24  C   UNL     1       6.371   5.178  14.798  0.00  0.00    +0.000 C 
ATOM     25  C   UNL     1       6.650   4.356  16.056  0.00  0.00    +0.000 C 
ATOM     26  C   UNL     1       5.365   3.910  16.790  0.00  0.00    +0.000 C 
ATOM     27  N   UNL     1       4.693   5.068  17.477  0.00  0.00    +0.000 NA
ATOM     28  C   UNL     1       5.703   5.756  18.370  0.00  0.00    +0.000 C 
ATOM     29  C   UNL     1       6.955   6.172  17.583  0.00  0.00    +0.000 C 
ATOM     30  C   UNL     1       8.002   6.770  18.517  0.00  0.00    +0.000 C 
ATOM     31  O   UNL     1       7.557   5.041  16.934  0.00  0.00    +0.000 OA
ENDBRANCH  21  27
ENDBRANCH   1  21
TORSDOF 4
ENDMDL
MODEL 2
REMARK VINA RESULT:      -8.9      0.823      1.209
REMARK  Name = 
REMARK  6 active torsions:
REMARK  status: ('A' for Active; 'I' for Inactive)
REMARK    1  A    between atoms: C_1  and  C_2
REMARK    2  A    between atoms: N_4  and  S_5
REMARK    3  A    between atoms: S_5  and  C_8
REMARK    4  A    between atoms: C_11  and  N_12
REMARK    5  A    between atoms: C_13  and  C_15
REMARK    6  A    between atoms: C_28  and  C_29
REMARK                            x       y       z     vdW  Elec       q    Type
REMARK                         _______ _______ _______ _____ _____    ______ ____
ROOT
ATOM      1  C   UNL     1       2.547   5.652  18.716  0.00  0.00    +0.000 A 
ATOM      2  C   UNL     1       2.226   5.628  20.068  0.00  0.00    +0.000 A 
ATOM      3  C   UNL     1       1.804   6.796  20.706  0.00  0.00    +0.000 A 
ATOM      4  C   UNL     1       1.727   8.016  20.030  0.00  0.00    +0.000 A 
ATOM      5  C   UNL     1       2.090   8.042  18.672  0.00  0.00    +0.000 A 
ATOM      6  C   UNL     1       2.503   6.866  18.017  0.00  0.00    +0.000 A 
ENDROOT
BRANCH   4   7
ATOM      7  N   UNL     1       1.295   9.217  20.654  0.00  0.00    +0.000 N 
ATOM      8  C   UNL     1       0.148   9.352  21.427  0.00  0.00    +0.000 C 
ATOM      9  O   UNL     1      -0.627   8.459  21.754  0.00  0.00    +0.000 OA
ATOM     10  H   UNL     1       1.832  10.051  20.440  0.00  0.00    +0.000 HD
BRANCH   8  11
ATOM     11  C   UNL     1      -0.235  10.726  21.835  0.00  0.00    +0.000 A 
ATOM     12  C   UNL     1       0.386  11.881  21.327  0.00  0.00    +0.000 A 
ATOM     13  C   UNL     1      -0.091  13.144  21.706  0.00  0.00    +0.000 A 
ATOM     14 CL   UNL     1       0.637  14.559  21.059  0.00  0.00    +0.000 Cl
ATOM     15  C   UNL     1      -1.169  13.222  22.571  0.00  0.00    +0.000 A 
ATOM     16  C   UNL     1      -1.737  12.085  23.092  0.00  0.00    +0.000 A 
ATOM     17  C   UNL     1      -1.282  10.829  22.765  0.00  0.00    +0.000 A 
ATOM     18  O   UNL     1      -2.794  12.347  23.906  0.00  0.00    +0.000 OA
ATOM     19  C   UNL     1      -2.904  13.774  23.748  0.00  0.00    +0.000 C 
ATOM     20  O   UNL     1      -1.815  14.345  22.995  0.00  0.00    +0.000 OA
ENDBRANCH   8  11
ENDBRANCH   4   7
BRANCH   1  21
ATOM     21  S   UNL     1       3.259   4.195  17.981  0.00  0.00    +0.000 S 
ATOM     22  O   UNL     1       2.302   3.661  17.034  0.00  0.00    +0.000 OA
ATOM     23  O   UNL     1       3.751   3.373  19.071  0.00  0.00    +0.000 OA
BRANCH  21  27
ATOM     24  C   UNL     1       6.342   4.950  14.427  0.00  0.00    +0.000 C 
ATOM     25  C   UNL     1       6.673   4.175  15.701  0.00  0.00    +0.000 C 
ATOM     26  C   UNL     1       5.422   3.623  16.421  0.00  0.00    +0.000 C 
ATOM     27  N   UNL     1       4.634   4.723  17.080  0.00  0.00    +0.000 NA
ATOM     28  C   UNL     1       5.561   5.514  17.978  0.00  0.00    +0.000 C 
ATOM     29  C   UNL     1       6.783   6.032  17.205  0.00  0.00    +0.000 C 
ATOM     30  C   UNL     1       7.754   6.737  18.147  0.00  0.00    +0.000 C 
ATOM     31  O   UNL     1       7.498   4.953  16.583  0.00  0.00    +0.000 OA
ENDBRANCH  21  27
ENDBRANCH   1  21
TORSDOF 4
ENDMDL
MODEL 3
REMARK VINA RESULT:      -8.8      1.414      2.144
REMARK  Name = 
REMARK  6 active torsions:
REMARK  status: ('A' for Active; 'I' for Inactive)
REMARK    1  A    between atoms: C_1  and  C_2
REMARK    2  A    between atoms: N_4  and  S_5
REMARK    3  A    between atoms: S_5  and  C_8
REMARK    4  A    between atoms: C_11  and  N_12
REMARK    5  A    between atoms: C_13  and  C_15
REMARK    6  A    between atoms: C_28  and  C_29
REMARK                            x       y       z     vdW  Elec       q    Type
REMARK                         _______ _______ _______ _____ _____    ______ ____
ROOT
ATOM      1  C   UNL     1       2.532   5.713  18.709  0.00  0.00    +0.000 A 
ATOM      2  C   UNL     1       2.195   5.710  20.058  0.00  0.00    +0.000 A 
ATOM      3  C   UNL     1       1.759   6.887  20.671  0.00  0.00    +0.000 A 
ATOM      4  C   UNL     1       1.683   8.094  19.973  0.00  0.00    +0.000 A 
ATOM      5  C   UNL     1       2.060   8.099  18.618  0.00  0.00    +0.000 A 
ATOM      6  C   UNL     1       2.488   6.914  17.989  0.00  0.00    +0.000 A 
ENDROOT
BRANCH   4   7
ATOM      7  N   UNL     1       1.237   9.304  20.571  0.00  0.00    +0.000 N 
ATOM      8  C   UNL     1       0.134   9.426  21.407  0.00  0.00    +0.000 C 
ATOM      9  O   UNL     1      -0.580   8.517  21.818  0.00  0.00    +0.000 OA
ATOM     10  H   UNL     1       1.722  10.149  20.288  0.00  0.00    +0.000 HD
BRANCH   8  11
ATOM     11  C   UNL     1      -0.285  10.801  21.778  0.00  0.00    +0.000 A 
ATOM     12  C   UNL     1      -1.402  11.073  22.586  0.00  0.00    +0.000 A 
ATOM     13  C   UNL     1      -1.682  12.397  22.954  0.00  0.00    +0.000 A 
ATOM     14 CL   UNL     1      -3.023  12.733  23.974  0.00  0.00    +0.000 Cl
ATOM     15  C   UNL     1      -0.843  13.406  22.513  0.00  0.00    +0.000 A 
ATOM     16  C   UNL     1       0.219  13.129  21.688  0.00  0.00    +0.000 A 
ATOM     17  C   UNL     1       0.512  11.847  21.285  0.00  0.00    +0.000 A 
ATOM     18  O   UNL     1       0.945  14.234  21.369  0.00  0.00    +0.000 OA
ATOM     19  C   UNL     1       0.289  15.226  22.182  0.00  0.00    +0.000 C 
ATOM     20  O   UNL     1      -0.907  14.732  22.820  0.00  0.00    +0.000 OA
ENDBRANCH   8  11
ENDBRANCH   4   7
BRANCH   1  21
ATOM     21  S   UNL     1       3.260   4.248  18.008  0.00  0.00    +0.000 S 
ATOM     22  O   UNL     1       2.326   3.704  17.044  0.00  0.00    +0.000 OA
ATOM     23  O   UNL     1       3.725   3.438  19.118  0.00  0.00    +0.000 OA
BRANCH  21  27
ATOM     24  C   UNL     1       6.394   5.025  14.504  0.00  0.00    +0.000 C 
ATOM     25  C   UNL     1       6.692   4.204  15.757  0.00  0.00    +0.000 C 
ATOM     26  C   UNL     1       5.421   3.664  16.450  0.00  0.00    +0.000 C 
ATOM     27  N   UNL     1       4.657   4.765  17.135  0.00  0.00    +0.000 NA
ATOM     28  C   UNL     1       5.596   5.503  18.064  0.00  0.00    +0.000 C 
ATOM     29  C   UNL     1       6.839   6.011  17.317  0.00  0.00    +0.000 C 
ATOM     30  C   UNL     1       7.820   6.661  18.288  0.00  0.00    +0.000 C 
ATOM     31  O   UNL     1       7.530   4.932  16.669  0.00  0.00    +0.000 OA
ENDBRANCH  21  27
ENDBRANCH   1  21
TORSDOF 4
ENDMDL
MODEL 4
REMARK VINA RESULT:      -8.8      2.076      2.687
REMARK  Name = 
REMARK  6 active torsions:
REMARK  status: ('A' for Active; 'I' for Inactive)
REMARK    1  A    between atoms: C_1  and  C_2
REMARK    2  A    between atoms: N_4  and  S_5
REMARK    3  A    between atoms: S_5  and  C_8
REMARK    4  A    between atoms: C_11  and  N_12
REMARK    5  A    between atoms: C_13  and  C_15
REMARK    6  A    between atoms: C_28  and  C_29
REMARK                            x       y       z     vdW  Elec       q    Type
REMARK                         _______ _______ _______ _____ _____    ______ ____
ROOT
ATOM      1  C   UNL     1       2.603   6.646  18.792  0.00  0.00    +0.000 A 
ATOM      2  C   UNL     1       2.398   7.598  17.800  0.00  0.00    +0.000 A 
ATOM      3  C   UNL     1       1.812   8.824  18.120  0.00  0.00    +0.000 A 
ATOM      4  C   UNL     1       1.384   9.118  19.417  0.00  0.00    +0.000 A 
ATOM      5  C   UNL     1       1.560   8.136  20.409  0.00  0.00    +0.000 A 
ATOM      6  C   UNL     1       2.163   6.902  20.097  0.00  0.00    +0.000 A 
ENDROOT
BRANCH   4   7
ATOM      7  N   UNL     1       0.791  10.359  19.770  0.00  0.00    +0.000 N 
ATOM      8  C   UNL     1      -0.506  10.748  19.457  0.00  0.00    +0.000 C 
ATOM      9  O   UNL     1      -1.361  10.068  18.899  0.00  0.00    +0.000 OA
ATOM     10  H   UNL     1       1.403  11.038  20.213  0.00  0.00    +0.000 HD
BRANCH   8  11
ATOM     11  C   UNL     1      -0.880  12.155  19.746  0.00  0.00    +0.000 A 
ATOM     12  C   UNL     1      -1.779  12.519  20.764  0.00  0.00    +0.000 A 
ATOM     13  C   UNL     1      -2.017  13.876  21.021  0.00  0.00    +0.000 A 
ATOM     14 CL   UNL     1      -3.084  14.329  22.289  0.00  0.00    +0.000 Cl
ATOM     15  C   UNL     1      -1.353  14.828  20.266  0.00  0.00    +0.000 A 
ATOM     16  C   UNL     1      -0.511  14.456  19.247  0.00  0.00    +0.000 A 
ATOM     17  C   UNL     1      -0.271  13.135  18.947  0.00  0.00    +0.000 A 
ATOM     18  O   UNL     1       0.068  15.517  18.625  0.00  0.00    +0.000 OA
ATOM     19  C   UNL     1      -0.413  16.600  19.444  0.00  0.00    +0.000 C 
ATOM     20  O   UNL     1      -1.397  16.182  20.412  0.00  0.00    +0.000 OA
ENDBRANCH   8  11
ENDBRANCH   4   7
BRANCH   1  21
ATOM     21  S   UNL     1       3.177   5.029  18.318  0.00  0.00    +0.000 S 
ATOM     22  O   UNL     1       2.137   4.400  17.530  0.00  0.00    +0.000 OA
ATOM     23  O   UNL     1       3.674   4.390  19.522  0.00  0.00    +0.000 OA
BRANCH  21  27
ATOM     24  C   UNL     1       6.133   4.820  14.587  0.00  0.00    +0.000 C 
ATOM     25  C   UNL     1       6.489   4.339  15.992  0.00  0.00    +0.000 C 
ATOM     26  C   UNL     1       5.250   4.021  16.860  0.00  0.00    +0.000 C 
ATOM     27  N   UNL     1       4.531   5.276  17.276  0.00  0.00    +0.000 NA
ATOM     28  C   UNL     1       5.524   6.206  17.940  0.00  0.00    +0.000 C 
ATOM     29  C   UNL     1       6.731   6.480  17.030  0.00  0.00    +0.000 C 
ATOM     30  C   UNL     1       7.766   7.335  17.755  0.00  0.00    +0.000 C 
ATOM     31  O   UNL     1       7.378   5.257  16.647  0.00  0.00    +0.000 OA
ENDBRANCH  21  27
ENDBRANCH   1  21
TORSDOF 4
ENDMDL
MODEL 5
REMARK VINA RESULT:      -8.8      1.592      1.787
REMARK  Name = 
REMARK  6 active torsions:
REMARK  status: ('A' for Active; 'I' for Inactive)
REMARK    1  A    between atoms: C_1  and  C_2
REMARK    2  A    between atoms: N_4  and  S_5
REMARK    3  A    between atoms: S_5  and  C_8
REMARK    4  A    between atoms: C_11  and  N_12
REMARK    5  A    between atoms: C_13  and  C_15
REMARK    6  A    between atoms: C_28  and  C_29
REMARK                            x       y       z     vdW  Elec       q    Type
REMARK                         _______ _______ _______ _____ _____    ______ ____
ROOT
ATOM      1  C   UNL     1       2.614   6.576  18.803  0.00  0.00    +0.000 A 
ATOM      2  C   UNL     1       2.413   7.562  17.844  0.00  0.00    +0.000 A 
ATOM      3  C   UNL     1       1.832   8.779  18.206  0.00  0.00    +0.000 A 
ATOM      4  C   UNL     1       1.405   9.030  19.512  0.00  0.00    +0.000 A 
ATOM      5  C   UNL     1       1.578   8.015  20.470  0.00  0.00    +0.000 A 
ATOM      6  C   UNL     1       2.176   6.790  20.117  0.00  0.00    +0.000 A 
ENDROOT
BRANCH   4   7
ATOM      7  N   UNL     1       0.818  10.262  19.907  0.00  0.00    +0.000 N 
ATOM      8  C   UNL     1      -0.447  10.703  19.537  0.00  0.00    +0.000 C 
ATOM      9  O   UNL     1      -1.277  10.084  18.880  0.00  0.00    +0.000 OA
ATOM     10  H   UNL     1       1.413  10.894  20.433  0.00  0.00    +0.000 HD
BRANCH   8  11
ATOM     11  C   UNL     1      -0.808  12.098  19.893  0.00  0.00    +0.000 A 
ATOM     12  C   UNL     1      -0.323  13.220  19.199  0.00  0.00    +0.000 A 
ATOM     13  C   UNL     1      -0.775  14.499  19.551  0.00  0.00    +0.000 A 
ATOM     14 CL   UNL     1      -0.218  15.871  18.681  0.00  0.00    +0.000 Cl
ATOM     15  C   UNL     1      -1.698  14.624  20.576  0.00  0.00    +0.000 A 
ATOM     16  C   UNL     1      -2.129  13.523  21.274  0.00  0.00    +0.000 A 
ATOM     17  C   UNL     1      -1.689  12.254  20.975  0.00  0.00    +0.000 A 
ATOM     18  O   UNL     1      -3.045  13.827  22.231  0.00  0.00    +0.000 OA
ATOM     19  C   UNL     1      -3.233  15.233  21.982  0.00  0.00    +0.000 C 
ATOM     20  O   UNL     1      -2.305  15.764  21.013  0.00  0.00    +0.000 OA
ENDBRANCH   8  11
ENDBRANCH   4   7
BRANCH   1  21
ATOM     21  S   UNL     1       3.182   4.974  18.275  0.00  0.00    +0.000 S 
ATOM     22  O   UNL     1       2.150   4.387  17.445  0.00  0.00    +0.000 OA
ATOM     23  O   UNL     1       3.652   4.283  19.461  0.00  0.00    +0.000 OA
BRANCH  21  27
ATOM     24  C   UNL     1       6.207   4.873  14.595  0.00  0.00    +0.000 C 
ATOM     25  C   UNL     1       6.535   4.346  15.991  0.00  0.00    +0.000 C 
ATOM     26  C   UNL     1       5.279   4.005  16.825  0.00  0.00    +0.000 C 
ATOM     27  N   UNL     1       4.556   5.249  17.267  0.00  0.00    +0.000 NA
ATOM     28  C   UNL     1       5.539   6.154  17.978  0.00  0.00    +0.000 C 
ATOM     29  C   UNL     1       6.763   6.453  17.100  0.00  0.00    +0.000 C 
ATOM     30  C   UNL     1       7.787   7.280  17.871  0.00  0.00    +0.000 C 
ATOM     31  O   UNL     1       7.414   5.240  16.691  0.00  0.00    +0.000 OA
ENDBRANCH  21  27
ENDBRANCH   1  21
TORSDOF 4
ENDMDL
MODEL 6
REMARK VINA RESULT:      -8.7      1.764      2.024
REMARK  Name = 
REMARK  6 active torsions:
REMARK  status: ('A' for Active; 'I' for Inactive)
REMARK    1  A    between atoms: C_1  and  C_2
REMARK    2  A    between atoms: N_4  and  S_5
REMARK    3  A    between atoms: S_5  and  C_8
REMARK    4  A    between atoms: C_11  and  N_12
REMARK    5  A    between atoms: C_13  and  C_15
REMARK    6  A    between atoms: C_28  and  C_29
REMARK                            x       y       z     vdW  Elec       q    Type
REMARK                         _______ _______ _______ _____ _____    ______ ____
ROOT
ATOM      1  C   UNL     1       2.612   6.335  18.916  0.00  0.00    +0.000 A 
ATOM      2  C   UNL     1       2.447   7.413  18.054  0.00  0.00    +0.000 A 
ATOM      3  C   UNL     1       1.886   8.603  18.524  0.00  0.00    +0.000 A 
ATOM      4  C   UNL     1       1.446   8.736  19.842  0.00  0.00    +0.000 A 
ATOM      5  C   UNL     1       1.582   7.630  20.700  0.00  0.00    +0.000 A 
ATOM      6  C   UNL     1       2.159   6.432  20.238  0.00  0.00    +0.000 A 
ENDROOT
BRANCH   4   7
ATOM      7  N   UNL     1       0.879   9.937  20.347  0.00  0.00    +0.000 N 
ATOM      8  C   UNL     1      -0.322  10.496  19.928  0.00  0.00    +0.000 C 
ATOM      9  O   UNL     1      -1.112  10.018  19.120  0.00  0.00    +0.000 OA
ATOM     10  H   UNL     1       1.448  10.460  21.006  0.00  0.00    +0.000 HD
BRANCH   8  11
ATOM     11  C   UNL     1      -0.653  11.850  20.437  0.00  0.00    +0.000 A 
ATOM     12  C   UNL     1      -1.928  12.430  20.310  0.00  0.00    +0.000 A 
ATOM     13  C   UNL     1      -2.177  13.683  20.888  0.00  0.00    +0.000 A 
ATOM     14 CL   UNL     1      -3.743  14.379  20.772  0.00  0.00    +0.000 Cl
ATOM     15  C   UNL     1      -1.157  14.317  21.578  0.00  0.00    +0.000 A 
ATOM     16  C   UNL     1       0.095  13.758  21.655  0.00  0.00    +0.000 A 
ATOM     17  C   UNL     1       0.385  12.543  21.080  0.00  0.00    +0.000 A 
ATOM     18  O   UNL     1       0.965  14.506  22.384  0.00  0.00    +0.000 OA
ATOM     19  C   UNL     1       0.089  15.547  22.858  0.00  0.00    +0.000 C 
ATOM     20  O   UNL     1      -1.225  15.493  22.263  0.00  0.00    +0.000 OA
ENDBRANCH   8  11
ENDBRANCH   4   7
BRANCH   1  21
ATOM     21  S   UNL     1       3.153   4.779  18.242  0.00  0.00    +0.000 S 
ATOM     22  O   UNL     1       2.118   4.294  17.353  0.00  0.00    +0.000 OA
ATOM     23  O   UNL     1       3.599   3.970  19.361  0.00  0.00    +0.000 OA
BRANCH  21  27
ATOM     24  C   UNL     1       6.198   4.989  14.583  0.00  0.00    +0.000 C 
ATOM     25  C   UNL     1       6.500   4.301  15.913  0.00  0.00    +0.000 C 
ATOM     26  C   UNL     1       5.229   3.910  16.700  0.00  0.00    +0.000 C 
ATOM     27  N   UNL     1       4.542   5.120  17.275  0.00  0.00    +0.000 NA
ATOM     28  C   UNL     1       5.548   5.910  18.085  0.00  0.00    +0.000 C 
ATOM     29  C   UNL     1       6.786   6.265  17.248  0.00  0.00    +0.000 C 
ATOM     30  C   UNL     1       7.830   6.970  18.109  0.00  0.00    +0.000 C 
ATOM     31  O   UNL     1       7.402   5.085  16.710  0.00  0.00    +0.000 OA
ENDBRANCH  21  27
ENDBRANCH   1  21
TORSDOF 4
ENDMDL
MODEL 7
REMARK VINA RESULT:      -8.7      1.216      1.751
REMARK  Name = 
REMARK  6 active torsions:
REMARK  status: ('A' for Active; 'I' for Inactive)
REMARK    1  A    between atoms: C_1  and  C_2
REMARK    2  A    between atoms: N_4  and  S_5
REMARK    3  A    between atoms: S_5  and  C_8
REMARK    4  A    between atoms: C_11  and  N_12
REMARK    5  A    between atoms: C_13  and  C_15
REMARK    6  A    between atoms: C_28  and  C_29
REMARK                            x       y       z     vdW  Elec       q    Type
REMARK                         _______ _______ _______ _____ _____    ______ ____
ROOT
ATOM      1  C   UNL     1       2.567   6.140  19.229  0.00  0.00    +0.000 A 
ATOM      2  C   UNL     1       2.553   7.247  18.387  0.00  0.00    +0.000 A 
ATOM      3  C   UNL     1       1.931   8.428  18.799  0.00  0.00    +0.000 A 
ATOM      4  C   UNL     1       1.282   8.526  20.031  0.00  0.00    +0.000 A 
ATOM      5  C   UNL     1       1.268   7.391  20.863  0.00  0.00    +0.000 A 
ATOM      6  C   UNL     1       1.905   6.201  20.462  0.00  0.00    +0.000 A 
ENDROOT
BRANCH   4   7
ATOM      7  N   UNL     1       0.649   9.717  20.476  0.00  0.00    +0.000 N 
ATOM      8  C   UNL     1       0.620  10.168  21.790  0.00  0.00    +0.000 C 
ATOM      9  O   UNL     1       1.187   9.662  22.753  0.00  0.00    +0.000 OA
ATOM     10  H   UNL     1       0.108  10.223  19.782  0.00  0.00    +0.000 HD
BRANCH   8  11
ATOM     11  C   UNL     1      -0.252  11.332  22.087  0.00  0.00    +0.000 A 
ATOM     12  C   UNL     1      -1.434  11.235  22.843  0.00  0.00    +0.000 A 
ATOM     13  C   UNL     1      -2.158  12.397  23.143  0.00  0.00    +0.000 A 
ATOM     14 CL   UNL     1      -3.581  12.292  24.100  0.00  0.00    +0.000 Cl
ATOM     15  C   UNL     1      -1.685  13.617  22.690  0.00  0.00    +0.000 A 
ATOM     16  C   UNL     1      -0.553  13.690  21.916  0.00  0.00    +0.000 A 
ATOM     17  C   UNL     1       0.171  12.570  21.578  0.00  0.00    +0.000 A 
ATOM     18  O   UNL     1      -0.225  14.965  21.576  0.00  0.00    +0.000 OA
ATOM     19  C   UNL     1      -1.213  15.701  22.321  0.00  0.00    +0.000 C 
ATOM     20  O   UNL     1      -2.204  14.853  22.937  0.00  0.00    +0.000 OA
ENDBRANCH   8  11
ENDBRANCH   4   7
BRANCH   1  21
ATOM     21  S   UNL     1       3.200   4.599  18.601  0.00  0.00    +0.000 S 
ATOM     22  O   UNL     1       2.236   4.072  17.658  0.00  0.00    +0.000 OA
ATOM     23  O   UNL     1       3.607   3.813  19.751  0.00  0.00    +0.000 OA
BRANCH  21  27
ATOM     24  C   UNL     1       6.282   5.288  15.033  0.00  0.00    +0.000 C 
ATOM     25  C   UNL     1       6.481   4.270  16.155  0.00  0.00    +0.000 C 
ATOM     26  C   UNL     1       5.162   3.867  16.853  0.00  0.00    +0.000 C 
ATOM     27  N   UNL     1       4.631   4.982  17.714  0.00  0.00    +0.000 NA
ATOM     28  C   UNL     1       5.722   5.422  18.667  0.00  0.00    +0.000 C 
ATOM     29  C   UNL     1       7.004   5.806  17.913  0.00  0.00    +0.000 C 
ATOM     30  C   UNL     1       8.121   6.146  18.894  0.00  0.00    +0.000 C 
ATOM     31  O   UNL     1       7.468   4.719  17.097  0.00  0.00    +0.000 OA
ENDBRANCH  21  27
ENDBRANCH   1  21
TORSDOF 4
ENDMDL
MODEL 8
REMARK VINA RESULT:      -8.7      1.457      1.812
REMARK  Name = 
REMARK  6 active torsions:
REMARK  status: ('A' for Active; 'I' for Inactive)
REMARK    1  A    between atoms: C_1  and  C_2
REMARK    2  A    between atoms: N_4  and  S_5
REMARK    3  A    between atoms: S_5  and  C_8
REMARK    4  A    between atoms: C_11  and  N_12
REMARK    5  A    between atoms: C_13  and  C_15
REMARK    6  A    between atoms: C_28  and  C_29
REMARK                            x       y       z     vdW  Elec       q    Type
REMARK                         _______ _______ _______ _____ _____    ______ ____
ROOT
ATOM      1  C   UNL     1       2.308   6.060  18.867  0.00  0.00    +0.000 A 
ATOM      2  C   UNL     1       1.893   6.166  20.189  0.00  0.00    +0.000 A 
ATOM      3  C   UNL     1       1.500   7.405  20.700  0.00  0.00    +0.000 A 
ATOM      4  C   UNL     1       1.545   8.566  19.926  0.00  0.00    +0.000 A 
ATOM      5  C   UNL     1       2.000   8.459  18.599  0.00  0.00    +0.000 A 
ATOM      6  C   UNL     1       2.385   7.211  18.072  0.00  0.00    +0.000 A 
ENDROOT
BRANCH   4   7
ATOM      7  N   UNL     1       1.144   9.837  20.419  0.00  0.00    +0.000 N 
ATOM      8  C   UNL     1      -0.052  10.475  20.115  0.00  0.00    +0.000 C 
ATOM      9  O   UNL     1      -0.974  10.025  19.443  0.00  0.00    +0.000 OA
ATOM     10  H   UNL     1       1.833  10.342  20.968  0.00  0.00    +0.000 HD
BRANCH   8  11
ATOM     11  C   UNL     1      -0.206  11.878  20.574  0.00  0.00    +0.000 A 
ATOM     12  C   UNL     1      -0.220  12.977  19.697  0.00  0.00    +0.000 A 
ATOM     13  C   UNL     1      -0.448  14.263  20.206  0.00  0.00    +0.000 A 
ATOM     14 CL   UNL     1      -0.506  15.606  19.136  0.00  0.00    +0.000 Cl
ATOM     15  C   UNL     1      -0.662  14.418  21.565  0.00  0.00    +0.000 A 
ATOM     16  C   UNL     1      -0.603  13.340  22.414  0.00  0.00    +0.000 A 
ATOM     17  C   UNL     1      -0.355  12.067  21.957  0.00  0.00    +0.000 A 
ATOM     18  O   UNL     1      -0.855  13.671  23.709  0.00  0.00    +0.000 OA
ATOM     19  C   UNL     1      -1.196  15.063  23.566  0.00  0.00    +0.000 C 
ATOM     20  O   UNL     1      -0.969  15.566  22.233  0.00  0.00    +0.000 OA
ENDBRANCH   8  11
ENDBRANCH   4   7
BRANCH   1  21
ATOM     21  S   UNL     1       2.978   4.510  18.304  0.00  0.00    +0.000 S 
ATOM     22  O   UNL     1       2.066   3.958  17.325  0.00  0.00    +0.000 OA
ATOM     23  O   UNL     1       3.331   3.750  19.489  0.00  0.00    +0.000 OA
BRANCH  21  27
ATOM     24  C   UNL     1       6.235   5.136  14.883  0.00  0.00    +0.000 C 
ATOM     25  C   UNL     1       6.382   4.148  16.038  0.00  0.00    +0.000 C 
ATOM     26  C   UNL     1       5.033   3.751  16.677  0.00  0.00    +0.000 C 
ATOM     27  N   UNL     1       4.450   4.882  17.482  0.00  0.00    +0.000 NA
ATOM     28  C   UNL     1       5.488   5.354  18.479  0.00  0.00    +0.000 C 
ATOM     29  C   UNL     1       6.804   5.729  17.782  0.00  0.00    +0.000 C 
ATOM     30  C   UNL     1       7.867   6.102  18.810  0.00  0.00    +0.000 C 
ATOM     31  O   UNL     1       7.317   4.627  17.017  0.00  0.00    +0.000 OA
ENDBRANCH  21  27
ENDBRANCH   1  21
TORSDOF 4
ENDMDL
MODEL 9
REMARK VINA RESULT:      -8.6      1.814      2.204
REMARK  Name = 
REMARK  6 active torsions:
REMARK  status: ('A' for Active; 'I' for Inactive)
REMARK    1  A    between atoms: C_1  and  C_2
REMARK    2  A    between atoms: N_4  and  S_5
REMARK    3  A    between atoms: S_5  and  C_8
REMARK    4  A    between atoms: C_11  and  N_12
REMARK    5  A    between atoms: C_13  and  C_15
REMARK    6  A    between atoms: C_28  and  C_29
REMARK                            x       y       z     vdW  Elec       q    Type
REMARK                         _______ _______ _______ _____ _____    ______ ____
ROOT
ATOM      1  C   UNL     1       2.507   6.346  18.718  0.00  0.00    +0.000 A 
ATOM      2  C   UNL     1       2.157   6.617  20.036  0.00  0.00    +0.000 A 
ATOM      3  C   UNL     1       1.669   7.879  20.382  0.00  0.00    +0.000 A 
ATOM      4  C   UNL     1       1.553   8.906  19.443  0.00  0.00    +0.000 A 
ATOM      5  C   UNL     1       1.944   8.637  18.119  0.00  0.00    +0.000 A 
ATOM      6  C   UNL     1       2.423   7.363  17.758  0.00  0.00    +0.000 A 
ENDROOT
BRANCH   4   7
ATOM      7  N   UNL     1       1.054  10.196  19.768  0.00  0.00    +0.000 N 
ATOM      8  C   UNL     1      -0.207  10.675  19.438  0.00  0.00    +0.000 C 
ATOM      9  O   UNL     1      -1.108  10.052  18.885  0.00  0.00    +0.000 OA
ATOM     10  H   UNL     1       1.713  10.835  20.203  0.00  0.00    +0.000 HD
BRANCH   8  11
ATOM     11  C   UNL     1      -0.475  12.112  19.697  0.00  0.00    +0.000 A 
ATOM     12  C   UNL     1       0.332  13.148  19.196  0.00  0.00    +0.000 A 
ATOM     13  C   UNL     1      -0.036  14.481  19.424  0.00  0.00    +0.000 A 
ATOM     14 CL   UNL     1       0.924  15.753  18.780  0.00  0.00    +0.000 Cl
ATOM     15  C   UNL     1      -1.195  14.744  20.134  0.00  0.00    +0.000 A 
ATOM     16  C   UNL     1      -1.949  13.722  20.654  0.00  0.00    +0.000 A 
ATOM     17  C   UNL     1      -1.608  12.402  20.475  0.00  0.00    +0.000 A 
ATOM     18  O   UNL     1      -3.059  14.161  21.305  0.00  0.00    +0.000 OA
ATOM     19  C   UNL     1      -2.983  15.573  21.037  0.00  0.00    +0.000 C 
ATOM     20  O   UNL     1      -1.752  15.961  20.393  0.00  0.00    +0.000 OA
ENDBRANCH   8  11
ENDBRANCH   4   7
BRANCH   1  21
ATOM     21  S   UNL     1       3.298   4.796  18.347  0.00  0.00    +0.000 S 
ATOM     22  O   UNL     1       2.373   3.998  17.569  0.00  0.00    +0.000 OA
ATOM     23  O   UNL     1       3.835   4.289  19.596  0.00  0.00    +0.000 OA
BRANCH  21  27
ATOM     24  C   UNL     1       6.241   4.982  14.604  0.00  0.00    +0.000 C 
ATOM     25  C   UNL     1       6.614   4.387  15.961  0.00  0.00    +0.000 C 
ATOM     26  C   UNL     1       5.386   3.966  16.800  0.00  0.00    +0.000 C 
ATOM     27  N   UNL     1       4.642   5.164  17.327  0.00  0.00    +0.000 NA
ATOM     28  C   UNL     1       5.618   6.054  18.068  0.00  0.00    +0.000 C 
ATOM     29  C   UNL     1       6.814   6.434  17.182  0.00  0.00    +0.000 C 
ATOM     30  C   UNL     1       7.833   7.244  17.977  0.00  0.00    +0.000 C 
ATOM     31  O   UNL     1       7.486   5.263  16.692  0.00  0.00    +0.000 OA
ENDBRANCH  21  27
ENDBRANCH   1  21
TORSDOF 4
ENDMDL
