MODEL 1
REMARK VINA RESULT:      -8.8      0.000      0.000
REMARK  Name = 
REMARK  5 active torsions:
REMARK  status: ('A' for Active; 'I' for Inactive)
REMARK    1  A    between atoms: C_2  and  C_3
REMARK    2  A    between atoms: C_3  and  O_4
REMARK    3  A    between atoms: O_4  and  C_5
REMARK    4  A    between atoms: C_5  and  C_7
REMARK    5  A    between atoms: N_18  and  C_19
REMARK                            x       y       z     vdW  Elec       q    Type
REMARK                         _______ _______ _______ _____ _____    ______ ____
ROOT
ATOM      1  O   UNL     1       7.002   7.716  17.498  0.00  0.00    +0.000 OA
ENDROOT
BRANCH   1   2
ATOM      2  C   UNL     1       6.938   6.480  16.955  0.00  0.00    +0.000 C 
ATOM      3  O   UNL     1       7.523   6.095  15.958  0.00  0.00    +0.000 OA
BRANCH   2   4
ATOM      4  C   UNL     1       6.034   5.576  17.792  0.00  0.00    +0.000 A 
ATOM      5  N   UNL     1       6.584   4.495  18.272  0.00  0.00    +0.000 NA
ATOM      6  N   UNL     1       5.801   3.632  18.976  0.00  0.00    +0.000 N 
ATOM      7  C   UNL     1       4.444   3.741  19.160  0.00  0.00    +0.000 A 
ATOM      8  O   UNL     1       3.791   2.884  19.747  0.00  0.00    +0.000 OA
ATOM      9  C   UNL     1       3.815   4.963  18.635  0.00  0.00    +0.000 A 
ATOM     10  C   UNL     1       2.441   5.171  18.808  0.00  0.00    +0.000 A 
ATOM     11  C   UNL     1       1.855   6.351  18.357  0.00  0.00    +0.000 A 
ATOM     12  C   UNL     1       2.646   7.325  17.748  0.00  0.00    +0.000 A 
ATOM     13  C   UNL     1       4.016   7.113  17.564  0.00  0.00    +0.000 A 
ATOM     14  C   UNL     1       4.606   5.916  17.990  0.00  0.00    +0.000 A 
ATOM     15  H   UNL     1       6.252   2.796  19.337  0.00  0.00    +0.000 HD
ENDBRANCH   2   4
ENDBRANCH   1   2
BRANCH   1  16
ATOM     16  C   UNL     1       8.239   8.016  18.133  0.00  0.00    +0.000 C 
BRANCH  16  18
ATOM     17  O   UNL     1       8.020  10.365  17.703  0.00  0.00    +0.000 OA
ATOM     18  C   UNL     1       8.532   9.495  18.407  0.00  0.00    +0.000 C 
ATOM     19  N   UNL     1       9.330   9.720  19.515  0.00  0.00    +0.000 N 
ATOM     20  H   UNL     1       9.797   8.913  19.924  0.00  0.00    +0.000 HD
BRANCH  19  21
ATOM     21  C   UNL     1       9.680  10.983  20.054  0.00  0.00    +0.000 A 
ATOM     22  C   UNL     1       9.096  11.521  21.208  0.00  0.00    +0.000 A 
ATOM     23  C   UNL     1       9.469  12.789  21.671  0.00  0.00    +0.000 A 
ATOM     24  C   UNL     1      10.430  13.520  20.983  0.00  0.00    +0.000 A 
ATOM     25  F   UNL     1      10.766  14.739  21.426  0.00  0.00    +0.000 F 
ATOM     26  C   UNL     1      11.037  12.992  19.853  0.00  0.00    +0.000 A 
ATOM     27  F   UNL     1      11.967  13.701  19.197  0.00  0.00    +0.000 F 
ATOM     28  C   UNL     1      10.671  11.729  19.400  0.00  0.00    +0.000 A 
ATOM     29  F   UNL     1      11.260  11.221  18.305  0.00  0.00    +0.000 F 
ENDBRANCH  19  21
ENDBRANCH  16  18
ENDBRANCH   1  16
TORSDOF 5
ENDMDL
MODEL 2
REMARK VINA RESULT:      -8.7      5.303      7.321
REMARK  Name = 
REMARK  5 active torsions:
REMARK  status: ('A' for Active; 'I' for Inactive)
REMARK    1  A    between atoms: C_2  and  C_3
REMARK    2  A    between atoms: C_3  and  O_4
REMARK    3  A    between atoms: O_4  and  C_5
REMARK    4  A    between atoms: C_5  and  C_7
REMARK    5  A    between atoms: N_18  and  C_19
REMARK                            x       y       z     vdW  Elec       q    Type
REMARK                         _______ _______ _______ _____ _____    ______ ____
ROOT
ATOM      1  O   UNL     1       3.874   2.469  19.880  0.00  0.00    +0.000 OA
ENDROOT
BRANCH   1   2
ATOM      2  C   UNL     1       4.057   2.859  18.599  0.00  0.00    +0.000 C 
ATOM      3  O   UNL     1       3.400   2.509  17.634  0.00  0.00    +0.000 OA
BRANCH   2   4
ATOM      4  C   UNL     1       5.208   3.859  18.505  0.00  0.00    +0.000 A 
ATOM      5  N   UNL     1       5.651   4.338  19.635  0.00  0.00    +0.000 NA
ATOM      6  N   UNL     1       6.638   5.275  19.595  0.00  0.00    +0.000 N 
ATOM      7  C   UNL     1       7.163   5.844  18.461  0.00  0.00    +0.000 A 
ATOM      8  O   UNL     1       8.002   6.739  18.505  0.00  0.00    +0.000 OA
ATOM      9  C   UNL     1       6.681   5.303  17.181  0.00  0.00    +0.000 A 
ATOM     10  C   UNL     1       7.189   5.804  15.975  0.00  0.00    +0.000 A 
ATOM     11  C   UNL     1       6.771   5.256  14.765  0.00  0.00    +0.000 A 
ATOM     12  C   UNL     1       5.859   4.200  14.763  0.00  0.00    +0.000 A 
ATOM     13  C   UNL     1       5.344   3.707  15.966  0.00  0.00    +0.000 A 
ATOM     14  C   UNL     1       5.738   4.274  17.185  0.00  0.00    +0.000 A 
ATOM     15  H   UNL     1       6.963   5.634  20.488  0.00  0.00    +0.000 HD
ENDBRANCH   2   4
ENDBRANCH   1   2
BRANCH   1  16
ATOM     16  C   UNL     1       2.618   2.839  20.436  0.00  0.00    +0.000 C 
BRANCH  16  18
ATOM     17  O   UNL     1       0.964   4.070  19.210  0.00  0.00    +0.000 OA
ATOM     18  C   UNL     1       1.981   4.126  19.901  0.00  0.00    +0.000 C 
ATOM     19  N   UNL     1       2.605   5.286  20.323  0.00  0.00    +0.000 N 
ATOM     20  H   UNL     1       3.512   5.189  20.775  0.00  0.00    +0.000 HD
BRANCH  19  21
ATOM     21  C   UNL     1       2.178   6.612  20.064  0.00  0.00    +0.000 A 
ATOM     22  C   UNL     1       1.513   7.410  21.004  0.00  0.00    +0.000 A 
ATOM     23  C   UNL     1       1.093   8.704  20.671  0.00  0.00    +0.000 A 
ATOM     24  C   UNL     1       1.339   9.204  19.398  0.00  0.00    +0.000 A 
ATOM     25  F   UNL     1       0.917  10.436  19.086  0.00  0.00    +0.000 F 
ATOM     26  C   UNL     1       2.018   8.437  18.463  0.00  0.00    +0.000 A 
ATOM     27  F   UNL     1       2.258   8.928  17.238  0.00  0.00    +0.000 F 
ATOM     28  C   UNL     1       2.443   7.155  18.798  0.00  0.00    +0.000 A 
ATOM     29  F   UNL     1       3.099   6.416  17.890  0.00  0.00    +0.000 F 
ENDBRANCH  19  21
ENDBRANCH  16  18
ENDBRANCH   1  16
TORSDOF 5
ENDMDL
MODEL 3
REMARK VINA RESULT:      -8.7      5.546      7.451
REMARK  Name = 
REMARK  5 active torsions:
REMARK  status: ('A' for Active; 'I' for Inactive)
REMARK    1  A    between atoms: C_2  and  C_3
REMARK    2  A    between atoms: C_3  and  O_4
REMARK    3  A    between atoms: O_4  and  C_5
REMARK    4  A    between atoms: C_5  and  C_7
REMARK    5  A    between atoms: N_18  and  C_19
REMARK                            x       y       z     vdW  Elec       q    Type
REMARK                         _______ _______ _______ _____ _____    ______ ____
ROOT
ATOM      1  O   UNL     1       3.113   2.870  20.181  0.00  0.00    +0.000 OA
ENDROOT
BRANCH   1   2
ATOM      2  C   UNL     1       4.385   2.689  19.762  0.00  0.00    +0.000 C 
ATOM      3  O   UNL     1       5.225   1.977  20.283  0.00  0.00    +0.000 OA
BRANCH   2   4
ATOM      4  C   UNL     1       4.645   3.488  18.486  0.00  0.00    +0.000 A 
ATOM      5  N   UNL     1       3.918   3.173  17.450  0.00  0.00    +0.000 NA
ATOM      6  N   UNL     1       4.156   3.821  16.276  0.00  0.00    +0.000 N 
ATOM      7  C   UNL     1       5.162   4.726  16.044  0.00  0.00    +0.000 A 
ATOM      8  O   UNL     1       5.361   5.215  14.936  0.00  0.00    +0.000 OA
ATOM      9  C   UNL     1       5.981   5.098  17.208  0.00  0.00    +0.000 A 
ATOM     10  C   UNL     1       7.008   6.040  17.068  0.00  0.00    +0.000 A 
ATOM     11  C   UNL     1       7.748   6.431  18.182  0.00  0.00    +0.000 A 
ATOM     12  C   UNL     1       7.450   5.892  19.433  0.00  0.00    +0.000 A 
ATOM     13  C   UNL     1       6.431   4.944  19.571  0.00  0.00    +0.000 A 
ATOM     14  C   UNL     1       5.703   4.525  18.450  0.00  0.00    +0.000 A 
ATOM     15  H   UNL     1       3.578   3.556  15.483  0.00  0.00    +0.000 HD
ENDBRANCH   2   4
ENDBRANCH   1   2
BRANCH   1  16
ATOM     16  C   UNL     1       2.887   4.097  20.866  0.00  0.00    +0.000 C 
BRANCH  16  18
ATOM     17  O   UNL     1       1.028   4.884  19.572  0.00  0.00    +0.000 OA
ATOM     18  C   UNL     1       2.096   5.171  20.111  0.00  0.00    +0.000 C 
ATOM     19  N   UNL     1       2.656   6.435  20.172  0.00  0.00    +0.000 N 
ATOM     20  H   UNL     1       3.606   6.507  20.530  0.00  0.00    +0.000 HD
BRANCH  19  21
ATOM     21  C   UNL     1       2.094   7.627  19.651  0.00  0.00    +0.000 A 
ATOM     22  C   UNL     1       2.221   8.024  18.313  0.00  0.00    +0.000 A 
ATOM     23  C   UNL     1       1.664   9.230  17.871  0.00  0.00    +0.000 A 
ATOM     24  C   UNL     1       0.976  10.042  18.765  0.00  0.00    +0.000 A 
ATOM     25  F   UNL     1       0.462  11.201  18.334  0.00  0.00    +0.000 F 
ATOM     26  C   UNL     1       0.818   9.652  20.087  0.00  0.00    +0.000 A 
ATOM     27  F   UNL     1       0.148  10.437  20.943  0.00  0.00    +0.000 F 
ATOM     28  C   UNL     1       1.365   8.449  20.522  0.00  0.00    +0.000 A 
ATOM     29  F   UNL     1       1.211   8.076  21.803  0.00  0.00    +0.000 F 
ENDBRANCH  19  21
ENDBRANCH  16  18
ENDBRANCH   1  16
TORSDOF 5
ENDMDL
MODEL 4
REMARK VINA RESULT:      -8.6      5.277      7.321
REMARK  Name = 
REMARK  5 active torsions:
REMARK  status: ('A' for Active; 'I' for Inactive)
REMARK    1  A    between atoms: C_2  and  C_3
REMARK    2  A    between atoms: C_3  and  O_4
REMARK    3  A    between atoms: O_4  and  C_5
REMARK    4  A    between atoms: C_5  and  C_7
REMARK    5  A    between atoms: N_18  and  C_19
REMARK                            x       y       z     vdW  Elec       q    Type
REMARK                         _______ _______ _______ _____ _____    ______ ____
ROOT
ATOM      1  O   UNL     1       4.161   3.292  19.953  0.00  0.00    +0.000 OA
ENDROOT
BRANCH   1   2
ATOM      2  C   UNL     1       4.072   2.773  18.708  0.00  0.00    +0.000 C 
ATOM      3  O   UNL     1       3.618   1.683  18.408  0.00  0.00    +0.000 OA
BRANCH   2   4
ATOM      4  C   UNL     1       4.597   3.770  17.676  0.00  0.00    +0.000 A 
ATOM      5  N   UNL     1       4.072   3.697  16.484  0.00  0.00    +0.000 NA
ATOM      6  N   UNL     1       4.551   4.529  15.518  0.00  0.00    +0.000 N 
ATOM      7  C   UNL     1       5.612   5.391  15.650  0.00  0.00    +0.000 A 
ATOM      8  O   UNL     1       6.034   6.059  14.711  0.00  0.00    +0.000 OA
ATOM      9  C   UNL     1       6.203   5.492  16.993  0.00  0.00    +0.000 A 
ATOM     10  C   UNL     1       7.268   6.373  17.224  0.00  0.00    +0.000 A 
ATOM     11  C   UNL     1       7.792   6.505  18.507  0.00  0.00    +0.000 A 
ATOM     12  C   UNL     1       7.243   5.771  19.558  0.00  0.00    +0.000 A 
ATOM     13  C   UNL     1       6.187   4.883  19.326  0.00  0.00    +0.000 A 
ATOM     14  C   UNL     1       5.674   4.723  18.032  0.00  0.00    +0.000 A 
ATOM     15  H   UNL     1       4.128   4.451  14.598  0.00  0.00    +0.000 HD
ENDBRANCH   2   4
ENDBRANCH   1   2
BRANCH   1  16
ATOM     16  C   UNL     1       2.922   3.377  20.646  0.00  0.00    +0.000 C 
BRANCH  16  18
ATOM     17  O   UNL     1       0.809   4.441  20.249  0.00  0.00    +0.000 OA
ATOM     18  C   UNL     1       2.030   4.579  20.316  0.00  0.00    +0.000 C 
ATOM     19  N   UNL     1       2.715   5.774  20.186  0.00  0.00    +0.000 N 
ATOM     20  H   UNL     1       3.730   5.726  20.128  0.00  0.00    +0.000 HD
BRANCH  19  21
ATOM     21  C   UNL     1       2.139   7.052  19.979  0.00  0.00    +0.000 A 
ATOM     22  C   UNL     1       1.392   7.732  20.949  0.00  0.00    +0.000 A 
ATOM     23  C   UNL     1       0.828   8.983  20.668  0.00  0.00    +0.000 A 
ATOM     24  C   UNL     1       1.012   9.558  19.416  0.00  0.00    +0.000 A 
ATOM     25  F   UNL     1       0.452  10.746  19.153  0.00  0.00    +0.000 F 
ATOM     26  C   UNL     1       1.770   8.910  18.452  0.00  0.00    +0.000 A 
ATOM     27  F   UNL     1       1.949   9.473  17.248  0.00  0.00    +0.000 F 
ATOM     28  C   UNL     1       2.338   7.672  18.736  0.00  0.00    +0.000 A 
ATOM     29  F   UNL     1       3.070   7.048  17.800  0.00  0.00    +0.000 F 
ENDBRANCH  19  21
ENDBRANCH  16  18
ENDBRANCH   1  16
TORSDOF 5
ENDMDL
MODEL 5
REMARK VINA RESULT:      -8.5      6.132      7.193
REMARK  Name = 
REMARK  5 active torsions:
REMARK  status: ('A' for Active; 'I' for Inactive)
REMARK    1  A    between atoms: C_2  and  C_3
REMARK    2  A    between atoms: C_3  and  O_4
REMARK    3  A    between atoms: O_4  and  C_5
REMARK    4  A    between atoms: C_5  and  C_7
REMARK    5  A    between atoms: N_18  and  C_19
REMARK                            x       y       z     vdW  Elec       q    Type
REMARK                         _______ _______ _______ _____ _____    ______ ____
ROOT
ATOM      1  O   UNL     1       3.870   7.542  17.942  0.00  0.00    +0.000 OA
ENDROOT
BRANCH   1   2
ATOM      2  C   UNL     1       4.315   6.482  17.232  0.00  0.00    +0.000 C 
ATOM      3  O   UNL     1       4.643   6.481  16.059  0.00  0.00    +0.000 OA
BRANCH   2   4
ATOM      4  C   UNL     1       4.395   5.241  18.120  0.00  0.00    +0.000 A 
ATOM      5  N   UNL     1       5.553   4.998  18.670  0.00  0.00    +0.000 NA
ATOM      6  N   UNL     1       5.684   3.871  19.423  0.00  0.00    +0.000 N 
ATOM      7  C   UNL     1       4.729   2.899  19.593  0.00  0.00    +0.000 A 
ATOM      8  O   UNL     1       4.945   1.872  20.229  0.00  0.00    +0.000 OA
ATOM      9  C   UNL     1       3.415   3.168  18.989  0.00  0.00    +0.000 A 
ATOM     10  C   UNL     1       2.373   2.245  19.142  0.00  0.00    +0.000 A 
ATOM     11  C   UNL     1       1.114   2.525  18.615  0.00  0.00    +0.000 A 
ATOM     12  C   UNL     1       0.897   3.731  17.949  0.00  0.00    +0.000 A 
ATOM     13  C   UNL     1       1.940   4.648  17.786  0.00  0.00    +0.000 A 
ATOM     14  C   UNL     1       3.216   4.360  18.290  0.00  0.00    +0.000 A 
ATOM     15  H   UNL     1       6.596   3.702  19.838  0.00  0.00    +0.000 HD
ENDBRANCH   2   4
ENDBRANCH   1   2
BRANCH   1  16
ATOM     16  C   UNL     1       2.703   8.158  17.410  0.00  0.00    +0.000 C 
BRANCH  16  18
ATOM     17  O   UNL     1       1.985  10.390  17.913  0.00  0.00    +0.000 OA
ATOM     18  C   UNL     1       2.025   9.219  18.285  0.00  0.00    +0.000 C 
ATOM     19  N   UNL     1       1.439   8.716  19.433  0.00  0.00    +0.000 N 
ATOM     20  H   UNL     1       1.663   7.757  19.690  0.00  0.00    +0.000 HD
BRANCH  19  21
ATOM     21  C   UNL     1       0.667   9.447  20.370  0.00  0.00    +0.000 A 
ATOM     22  C   UNL     1      -0.157  10.525  20.023  0.00  0.00    +0.000 A 
ATOM     23  C   UNL     1      -0.872  11.222  21.005  0.00  0.00    +0.000 A 
ATOM     24  C   UNL     1      -0.767  10.841  22.337  0.00  0.00    +0.000 A 
ATOM     25  F   UNL     1      -1.442  11.526  23.269  0.00  0.00    +0.000 F 
ATOM     26  C   UNL     1       0.025   9.759  22.696  0.00  0.00    +0.000 A 
ATOM     27  F   UNL     1       0.117   9.393  23.982  0.00  0.00    +0.000 F 
ATOM     28  C   UNL     1       0.727   9.063  21.718  0.00  0.00    +0.000 A 
ATOM     29  F   UNL     1       1.493   8.017  22.070  0.00  0.00    +0.000 F 
ENDBRANCH  19  21
ENDBRANCH  16  18
ENDBRANCH   1  16
TORSDOF 5
ENDMDL
MODEL 6
REMARK VINA RESULT:      -8.3      1.024      1.550
REMARK  Name = 
REMARK  5 active torsions:
REMARK  status: ('A' for Active; 'I' for Inactive)
REMARK    1  A    between atoms: C_2  and  C_3
REMARK    2  A    between atoms: C_3  and  O_4
REMARK    3  A    between atoms: O_4  and  C_5
REMARK    4  A    between atoms: C_5  and  C_7
REMARK    5  A    between atoms: N_18  and  C_19
REMARK                            x       y       z     vdW  Elec       q    Type
REMARK                         _______ _______ _______ _____ _____    ______ ____
ROOT
ATOM      1  O   UNL     1       6.990   7.790  17.668  0.00  0.00    +0.000 OA
ENDROOT
BRANCH   1   2
ATOM      2  C   UNL     1       6.933   6.579  17.071  0.00  0.00    +0.000 C 
ATOM      3  O   UNL     1       7.525   6.241  16.061  0.00  0.00    +0.000 OA
BRANCH   2   4
ATOM      4  C   UNL     1       6.030   5.635  17.863  0.00  0.00    +0.000 A 
ATOM      5  N   UNL     1       6.590   4.549  18.319  0.00  0.00    +0.000 NA
ATOM      6  N   UNL     1       5.809   3.652  18.982  0.00  0.00    +0.000 N 
ATOM      7  C   UNL     1       4.447   3.733  19.145  0.00  0.00    +0.000 A 
ATOM      8  O   UNL     1       3.798   2.848  19.692  0.00  0.00    +0.000 OA
ATOM      9  C   UNL     1       3.807   4.960  18.645  0.00  0.00    +0.000 A 
ATOM     10  C   UNL     1       2.426   5.141  18.800  0.00  0.00    +0.000 A 
ATOM     11  C   UNL     1       1.830   6.325  18.374  0.00  0.00    +0.000 A 
ATOM     12  C   UNL     1       2.615   7.330  17.810  0.00  0.00    +0.000 A 
ATOM     13  C   UNL     1       3.991   7.146  17.646  0.00  0.00    +0.000 A 
ATOM     14  C   UNL     1       4.593   5.946  18.045  0.00  0.00    +0.000 A 
ATOM     15  H   UNL     1       6.267   2.813  19.325  0.00  0.00    +0.000 HD
ENDBRANCH   2   4
ENDBRANCH   1   2
BRANCH   1  16
ATOM     16  C   UNL     1       8.240   8.090  18.277  0.00  0.00    +0.000 C 
BRANCH  16  18
ATOM     17  O   UNL     1       8.194  10.377  17.558  0.00  0.00    +0.000 OA
ATOM     18  C   UNL     1       8.615   9.571  18.387  0.00  0.00    +0.000 C 
ATOM     19  N   UNL     1       9.374   9.883  19.501  0.00  0.00    +0.000 N 
ATOM     20  H   UNL     1       9.769   9.106  20.028  0.00  0.00    +0.000 HD
BRANCH  19  21
ATOM     21  C   UNL     1       9.780  11.179  19.904  0.00  0.00    +0.000 A 
ATOM     22  C   UNL     1      10.643  11.990  19.155  0.00  0.00    +0.000 A 
ATOM     23  C   UNL     1      11.026  13.251  19.627  0.00  0.00    +0.000 A 
ATOM     24  C   UNL     1      10.546  13.707  20.849  0.00  0.00    +0.000 A 
ATOM     25  F   UNL     1      10.933  14.908  21.298  0.00  0.00    +0.000 F 
ATOM     26  C   UNL     1       9.671  12.928  21.592  0.00  0.00    +0.000 A 
ATOM     27  F   UNL     1       9.206  13.376  22.767  0.00  0.00    +0.000 F 
ATOM     28  C   UNL     1       9.284  11.679  21.117  0.00  0.00    +0.000 A 
ATOM     29  F   UNL     1       8.438  10.928  21.841  0.00  0.00    +0.000 F 
ENDBRANCH  19  21
ENDBRANCH  16  18
ENDBRANCH   1  16
TORSDOF 5
ENDMDL
MODEL 7
REMARK VINA RESULT:      -8.3      6.692      7.865
REMARK  Name = 
REMARK  5 active torsions:
REMARK  status: ('A' for Active; 'I' for Inactive)
REMARK    1  A    between atoms: C_2  and  C_3
REMARK    2  A    between atoms: C_3  and  O_4
REMARK    3  A    between atoms: O_4  and  C_5
REMARK    4  A    between atoms: C_5  and  C_7
REMARK    5  A    between atoms: N_18  and  C_19
REMARK                            x       y       z     vdW  Elec       q    Type
REMARK                         _______ _______ _______ _____ _____    ______ ____
ROOT
ATOM      1  O   UNL     1       1.711   8.141  17.718  0.00  0.00    +0.000 OA
ENDROOT
BRANCH   1   2
ATOM      2  C   UNL     1       2.337   7.442  18.690  0.00  0.00    +0.000 C 
ATOM      3  O   UNL     1       2.234   7.620  19.891  0.00  0.00    +0.000 OA
BRANCH   2   4
ATOM      4  C   UNL     1       3.198   6.336  18.082  0.00  0.00    +0.000 A 
ATOM      5  N   UNL     1       4.280   6.720  17.464  0.00  0.00    +0.000 NA
ATOM      6  N   UNL     1       5.046   5.772  16.858  0.00  0.00    +0.000 N 
ATOM      7  C   UNL     1       4.744   4.437  16.753  0.00  0.00    +0.000 A 
ATOM      8  O   UNL     1       5.450   3.652  16.127  0.00  0.00    +0.000 OA
ATOM      9  C   UNL     1       3.533   3.989  17.458  0.00  0.00    +0.000 A 
ATOM     10  C   UNL     1       3.169   2.636  17.431  0.00  0.00    +0.000 A 
ATOM     11  C   UNL     1       2.051   2.205  18.142  0.00  0.00    +0.000 A 
ATOM     12  C   UNL     1       1.311   3.121  18.888  0.00  0.00    +0.000 A 
ATOM     13  C   UNL     1       1.668   4.474  18.906  0.00  0.00    +0.000 A 
ATOM     14  C   UNL     1       2.774   4.919  18.170  0.00  0.00    +0.000 A 
ATOM     15  H   UNL     1       5.883   6.097  16.380  0.00  0.00    +0.000 HD
ENDBRANCH   2   4
ENDBRANCH   1   2
BRANCH   1  16
ATOM     16  C   UNL     1       1.864   9.552  17.815  0.00  0.00    +0.000 C 
BRANCH  16  18
ATOM     17  O   UNL     1      -0.358  10.367  18.201  0.00  0.00    +0.000 OA
ATOM     18  C   UNL     1       0.798  10.307  18.617  0.00  0.00    +0.000 C 
ATOM     19  N   UNL     1       1.249  10.814  19.822  0.00  0.00    +0.000 N 
ATOM     20  H   UNL     1       2.255  10.814  19.981  0.00  0.00    +0.000 HD
BRANCH  19  21
ATOM     21  C   UNL     1       0.464  11.468  20.804  0.00  0.00    +0.000 A 
ATOM     22  C   UNL     1       0.379  12.860  20.928  0.00  0.00    +0.000 A 
ATOM     23  C   UNL     1      -0.395  13.440  21.941  0.00  0.00    +0.000 A 
ATOM     24  C   UNL     1      -1.088  12.629  22.831  0.00  0.00    +0.000 A 
ATOM     25  F   UNL     1      -1.811  13.195  23.806  0.00  0.00    +0.000 F 
ATOM     26  C   UNL     1      -1.036  11.248  22.707  0.00  0.00    +0.000 A 
ATOM     27  F   UNL     1      -1.713  10.471  23.565  0.00  0.00    +0.000 F 
ATOM     28  C   UNL     1      -0.274  10.674  21.695  0.00  0.00    +0.000 A 
ATOM     29  F   UNL     1      -0.225   9.337  21.579  0.00  0.00    +0.000 F 
ENDBRANCH  19  21
ENDBRANCH  16  18
ENDBRANCH   1  16
TORSDOF 5
ENDMDL
MODEL 8
REMARK VINA RESULT:      -8.3      6.261      7.340
REMARK  Name = 
REMARK  5 active torsions:
REMARK  status: ('A' for Active; 'I' for Inactive)
REMARK    1  A    between atoms: C_2  and  C_3
REMARK    2  A    between atoms: C_3  and  O_4
REMARK    3  A    between atoms: O_4  and  C_5
REMARK    4  A    between atoms: C_5  and  C_7
REMARK    5  A    between atoms: N_18  and  C_19
REMARK                            x       y       z     vdW  Elec       q    Type
REMARK                         _______ _______ _______ _____ _____    ______ ____
ROOT
ATOM      1  O   UNL     1       2.639   7.117  17.828  0.00  0.00    +0.000 OA
ENDROOT
BRANCH   1   2
ATOM      2  C   UNL     1       3.870   6.577  17.691  0.00  0.00    +0.000 C 
ATOM      3  O   UNL     1       4.897   7.174  17.419  0.00  0.00    +0.000 OA
BRANCH   2   4
ATOM      4  C   UNL     1       3.826   5.074  17.961  0.00  0.00    +0.000 A 
ATOM      5  N   UNL     1       4.585   4.329  17.206  0.00  0.00    +0.000 NA
ATOM      6  N   UNL     1       4.534   2.979  17.375  0.00  0.00    +0.000 N 
ATOM      7  C   UNL     1       3.683   2.302  18.213  0.00  0.00    +0.000 A 
ATOM      8  O   UNL     1       3.644   1.077  18.258  0.00  0.00    +0.000 OA
ATOM      9  C   UNL     1       2.831   3.133  19.079  0.00  0.00    +0.000 A 
ATOM     10  C   UNL     1       1.956   2.524  19.989  0.00  0.00    +0.000 A 
ATOM     11  C   UNL     1       1.189   3.311  20.845  0.00  0.00    +0.000 A 
ATOM     12  C   UNL     1       1.308   4.699  20.800  0.00  0.00    +0.000 A 
ATOM     13  C   UNL     1       2.173   5.307  19.885  0.00  0.00    +0.000 A 
ATOM     14  C   UNL     1       2.926   4.523  19.001  0.00  0.00    +0.000 A 
ATOM     15  H   UNL     1       5.133   2.421  16.773  0.00  0.00    +0.000 HD
ENDBRANCH   2   4
ENDBRANCH   1   2
BRANCH   1  16
ATOM     16  C   UNL     1       2.533   8.464  17.381  0.00  0.00    +0.000 C 
BRANCH  16  18
ATOM     17  O   UNL     1       2.061  10.680  18.166  0.00  0.00    +0.000 OA
ATOM     18  C   UNL     1       1.941   9.473  18.370  0.00  0.00    +0.000 C 
ATOM     19  N   UNL     1       1.236   8.898  19.413  0.00  0.00    +0.000 N 
ATOM     20  H   UNL     1       1.329   7.892  19.540  0.00  0.00    +0.000 HD
BRANCH  19  21
ATOM     21  C   UNL     1       0.507   9.587  20.414  0.00  0.00    +0.000 A 
ATOM     22  C   UNL     1      -0.325  10.683  20.151  0.00  0.00    +0.000 A 
ATOM     23  C   UNL     1      -0.995  11.336  21.193  0.00  0.00    +0.000 A 
ATOM     24  C   UNL     1      -0.838  10.893  22.500  0.00  0.00    +0.000 A 
ATOM     25  F   UNL     1      -1.470  11.536  23.491  0.00  0.00    +0.000 F 
ATOM     26  C   UNL     1      -0.038   9.793  22.776  0.00  0.00    +0.000 A 
ATOM     27  F   UNL     1       0.105   9.367  24.039  0.00  0.00    +0.000 F 
ATOM     28  C   UNL     1       0.620   9.140  21.739  0.00  0.00    +0.000 A 
ATOM     29  F   UNL     1       1.394   8.077  22.010  0.00  0.00    +0.000 F 
ENDBRANCH  19  21
ENDBRANCH  16  18
ENDBRANCH   1  16
TORSDOF 5
ENDMDL
MODEL 9
REMARK VINA RESULT:      -8.3      6.550      7.756
REMARK  Name = 
REMARK  5 active torsions:
REMARK  status: ('A' for Active; 'I' for Inactive)
REMARK    1  A    between atoms: C_2  and  C_3
REMARK    2  A    between atoms: C_3  and  O_4
REMARK    3  A    between atoms: O_4  and  C_5
REMARK    4  A    between atoms: C_5  and  C_7
REMARK    5  A    between atoms: N_18  and  C_19
REMARK                            x       y       z     vdW  Elec       q    Type
REMARK                         _______ _______ _______ _____ _____    ______ ____
ROOT
ATOM      1  O   UNL     1       1.947   7.824  17.616  0.00  0.00    +0.000 OA
ENDROOT
BRANCH   1   2
ATOM      2  C   UNL     1       3.039   7.093  17.928  0.00  0.00    +0.000 C 
ATOM      3  O   UNL     1       4.159   7.230  17.467  0.00  0.00    +0.000 OA
BRANCH   2   4
ATOM      4  C   UNL     1       2.699   6.054  18.995  0.00  0.00    +0.000 A 
ATOM      5  N   UNL     1       2.418   6.516  20.182  0.00  0.00    +0.000 NA
ATOM      6  N   UNL     1       2.165   5.623  21.178  0.00  0.00    +0.000 N 
ATOM      7  C   UNL     1       2.264   4.257  21.080  0.00  0.00    +0.000 A 
ATOM      8  O   UNL     1       2.091   3.516  22.043  0.00  0.00    +0.000 OA
ATOM      9  C   UNL     1       2.568   3.723  19.743  0.00  0.00    +0.000 A 
ATOM     10  C   UNL     1       2.654   2.338  19.547  0.00  0.00    +0.000 A 
ATOM     11  C   UNL     1       2.889   1.832  18.270  0.00  0.00    +0.000 A 
ATOM     12  C   UNL     1       3.022   2.708  17.193  0.00  0.00    +0.000 A 
ATOM     13  C   UNL     1       2.946   4.091  17.391  0.00  0.00    +0.000 A 
ATOM     14  C   UNL     1       2.739   4.607  18.677  0.00  0.00    +0.000 A 
ATOM     15  H   UNL     1       1.952   6.008  22.094  0.00  0.00    +0.000 HD
ENDBRANCH   2   4
ENDBRANCH   1   2
BRANCH   1  16
ATOM     16  C   UNL     1       2.189   9.220  17.484  0.00  0.00    +0.000 C 
BRANCH  16  18
ATOM     17  O   UNL     1       1.887  11.326  18.590  0.00  0.00    +0.000 OA
ATOM     18  C   UNL     1       1.627  10.123  18.586  0.00  0.00    +0.000 C 
ATOM     19  N   UNL     1       0.786   9.477  19.476  0.00  0.00    +0.000 N 
ATOM     20  H   UNL     1       0.766   8.460  19.442  0.00  0.00    +0.000 HD
BRANCH  19  21
ATOM     21  C   UNL     1       0.055  10.080  20.528  0.00  0.00    +0.000 A 
ATOM     22  C   UNL     1      -0.834  11.146  20.343  0.00  0.00    +0.000 A 
ATOM     23  C   UNL     1      -1.504  11.714  21.434  0.00  0.00    +0.000 A 
ATOM     24  C   UNL     1      -1.288  11.215  22.713  0.00  0.00    +0.000 A 
ATOM     25  F   UNL     1      -1.922  11.778  23.751  0.00  0.00    +0.000 F 
ATOM     26  C   UNL     1      -0.430  10.143  22.912  0.00  0.00    +0.000 A 
ATOM     27  F   UNL     1      -0.232   9.663  24.147  0.00  0.00    +0.000 F 
ATOM     28  C   UNL     1       0.227   9.575  21.826  0.00  0.00    +0.000 A 
ATOM     29  F   UNL     1       1.057   8.537  22.022  0.00  0.00    +0.000 F 
ENDBRANCH  19  21
ENDBRANCH  16  18
ENDBRANCH   1  16
TORSDOF 5
ENDMDL
