MODEL 1
REMARK VINA RESULT:      -9.2      0.000      0.000
REMARK  Name = 
REMARK  4 active torsions:
REMARK  status: ('A' for Active; 'I' for Inactive)
REMARK    1  A    between atoms: N_6  and  C_7
REMARK    2  A    between atoms: C_11  and  N_12
REMARK    3  A    between atoms: N_12  and  C_13
REMARK    4  A    between atoms: N_21  and  C_22
REMARK                            x       y       z     vdW  Elec       q    Type
REMARK                         _______ _______ _______ _____ _____    ______ ____
ROOT
ATOM      1  C   UNL     1       3.088   4.691  18.922  0.00  0.00    +0.000 A 
ATOM      2  N   UNL     1       2.771   3.959  20.022  0.00  0.00    +0.000 NA
ATOM      3  C   UNL     1       2.110   4.529  21.034  0.00  0.00    +0.000 A 
ATOM      4  N   UNL     1       1.723   5.801  21.125  0.00  0.00    +0.000 NA
ATOM      5  C   UNL     1       2.080   6.533  20.049  0.00  0.00    +0.000 A 
ATOM      6  C   UNL     1       2.762   6.051  18.943  0.00  0.00    +0.000 A 
ATOM      7  C   UNL     1       2.879   7.160  18.091  0.00  0.00    +0.000 A 
ATOM      8  N   UNL     1       2.328   8.265  18.591  0.00  0.00    +0.000 NA
ATOM      9  N   UNL     1       1.819   7.878  19.804  0.00  0.00    +0.000 N 
ENDROOT
BRANCH   9  10
ATOM     10  C   UNL     1       1.106   8.808  20.617  0.00  0.00    +0.000 A 
ATOM     11  C   UNL     1       0.337   9.809  20.006  0.00  0.00    +0.000 A 
ATOM     12  C   UNL     1      -0.392  10.712  20.784  0.00  0.00    +0.000 A 
ATOM     13  C   UNL     1      -0.356  10.628  22.175  0.00  0.00    +0.000 A 
ATOM     14  C   UNL     1       0.413   9.645  22.790  0.00  0.00    +0.000 A 
ATOM     15  C   UNL     1       1.142   8.739  22.017  0.00  0.00    +0.000 A 
ENDBRANCH   9  10
BRANCH   1  16
ATOM     16  N   UNL     1       3.691   4.071  17.817  0.00  0.00    +0.000 N 
ATOM     17  H   UNL     1       3.235   3.229  17.500  0.00  0.00    +0.000 HD
BRANCH  16  22
ATOM     18  C   UNL     1       6.553   4.350  15.441  0.00  0.00    +0.000 A 
ATOM     19  C   UNL     1       7.581   4.692  16.327  0.00  0.00    +0.000 A 
ATOM     20  C   UNL     1       7.344   4.819  17.689  0.00  0.00    +0.000 A 
ATOM     21  C   UNL     1       6.066   4.597  18.194  0.00  0.00    +0.000 A 
ATOM     22  C   UNL     1       5.010   4.232  17.354  0.00  0.00    +0.000 A 
ATOM     23  C   UNL     1       5.273   4.108  15.979  0.00  0.00    +0.000 A 
BRANCH  18  29
ATOM     24  O   UNL     1       8.533   5.844  13.706  0.00  0.00    +0.000 OA
ATOM     25  C   UNL     1       7.692   5.054  13.310  0.00  0.00    +0.000 C 
ATOM     26  C   UNL     1       7.411   4.832  11.845  0.00  0.00    +0.000 C 
ATOM     27  C   UNL     1       6.637   3.530  11.829  0.00  0.00    +0.000 C 
ATOM     28  C   UNL     1       5.908   3.537  13.156  0.00  0.00    +0.000 C 
ATOM     29  N   UNL     1       6.774   4.277  14.041  0.00  0.00    +0.000 N 
ENDBRANCH  18  29
ENDBRANCH  16  22
ENDBRANCH   1  16
TORSDOF 4
ENDMDL
MODEL 2
REMARK VINA RESULT:      -9.0      2.571      5.013
REMARK  Name = 
REMARK  4 active torsions:
REMARK  status: ('A' for Active; 'I' for Inactive)
REMARK    1  A    between atoms: N_6  and  C_7
REMARK    2  A    between atoms: C_11  and  N_12
REMARK    3  A    between atoms: N_12  and  C_13
REMARK    4  A    between atoms: N_21  and  C_22
REMARK                            x       y       z     vdW  Elec       q    Type
REMARK                         _______ _______ _______ _____ _____    ______ ____
ROOT
ATOM      1  C   UNL     1       1.334   8.474  20.596  0.00  0.00    +0.000 A 
ATOM      2  N   UNL     1       1.267   8.904  19.308  0.00  0.00    +0.000 NA
ATOM      3  C   UNL     1       0.646  10.053  19.022  0.00  0.00    +0.000 A 
ATOM      4  N   UNL     1       0.023  10.864  19.876  0.00  0.00    +0.000 NA
ATOM      5  C   UNL     1       0.055  10.408  21.145  0.00  0.00    +0.000 A 
ATOM      6  C   UNL     1       0.669   9.238  21.561  0.00  0.00    +0.000 A 
ATOM      7  C   UNL     1       0.461   9.204  22.949  0.00  0.00    +0.000 A 
ATOM      8  N   UNL     1      -0.227  10.252  23.400  0.00  0.00    +0.000 NA
ATOM      9  N   UNL     1      -0.472  11.010  22.284  0.00  0.00    +0.000 N 
ENDROOT
BRANCH   9  10
ATOM     10  C   UNL     1      -1.161  12.254  22.394  0.00  0.00    +0.000 A 
ATOM     11  C   UNL     1      -2.543  12.256  22.639  0.00  0.00    +0.000 A 
ATOM     12  C   UNL     1      -3.232  13.463  22.777  0.00  0.00    +0.000 A 
ATOM     13  C   UNL     1      -2.553  14.675  22.670  0.00  0.00    +0.000 A 
ATOM     14  C   UNL     1      -1.185  14.684  22.417  0.00  0.00    +0.000 A 
ATOM     15  C   UNL     1      -0.491  13.480  22.278  0.00  0.00    +0.000 A 
ENDBRANCH   9  10
BRANCH   1  16
ATOM     16  N   UNL     1       2.072   7.324  20.913  0.00  0.00    +0.000 N 
ATOM     17  H   UNL     1       2.807   7.462  21.589  0.00  0.00    +0.000 HD
BRANCH  16  22
ATOM     18  C   UNL     1       3.527   4.762  18.625  0.00  0.00    +0.000 A 
ATOM     19  C   UNL     1       2.573   3.746  18.748  0.00  0.00    +0.000 A 
ATOM     20  C   UNL     1       1.458   3.901  19.561  0.00  0.00    +0.000 A 
ATOM     21  C   UNL     1       1.274   5.086  20.266  0.00  0.00    +0.000 A 
ATOM     22  C   UNL     1       2.186   6.140  20.160  0.00  0.00    +0.000 A 
ATOM     23  C   UNL     1       3.307   5.962  19.330  0.00  0.00    +0.000 A 
BRANCH  18  29
ATOM     24  O   UNL     1       6.436   4.719  19.464  0.00  0.00    +0.000 OA
ATOM     25  C   UNL     1       6.022   4.634  18.319  0.00  0.00    +0.000 C 
ATOM     26  C   UNL     1       6.937   4.659  17.120  0.00  0.00    +0.000 C 
ATOM     27  C   UNL     1       6.065   4.126  16.002  0.00  0.00    +0.000 C 
ATOM     28  C   UNL     1       4.673   4.566  16.400  0.00  0.00    +0.000 C 
ATOM     29  N   UNL     1       4.699   4.589  17.843  0.00  0.00    +0.000 N 
ENDBRANCH  18  29
ENDBRANCH  16  22
ENDBRANCH   1  16
TORSDOF 4
ENDMDL
MODEL 3
REMARK VINA RESULT:      -8.8      2.556      4.918
REMARK  Name = 
REMARK  4 active torsions:
REMARK  status: ('A' for Active; 'I' for Inactive)
REMARK    1  A    between atoms: N_6  and  C_7
REMARK    2  A    between atoms: C_11  and  N_12
REMARK    3  A    between atoms: N_12  and  C_13
REMARK    4  A    between atoms: N_21  and  C_22
REMARK                            x       y       z     vdW  Elec       q    Type
REMARK                         _______ _______ _______ _____ _____    ______ ____
ROOT
ATOM      1  C   UNL     1       1.450   8.368  20.464  0.00  0.00    +0.000 A 
ATOM      2  N   UNL     1       1.551   8.750  19.163  0.00  0.00    +0.000 NA
ATOM      3  C   UNL     1       1.081   9.942  18.781  0.00  0.00    +0.000 A 
ATOM      4  N   UNL     1       0.465  10.844  19.543  0.00  0.00    +0.000 NA
ATOM      5  C   UNL     1       0.327  10.440  20.822  0.00  0.00    +0.000 A 
ATOM      6  C   UNL     1       0.776   9.232  21.333  0.00  0.00    +0.000 A 
ATOM      7  C   UNL     1       0.432   9.276  22.694  0.00  0.00    +0.000 A 
ATOM      8  N   UNL     1      -0.186  10.404  23.041  0.00  0.00    +0.000 NA
ATOM      9  N   UNL     1      -0.243  11.137  21.884  0.00  0.00    +0.000 N 
ENDROOT
BRANCH   9  10
ATOM     10  C   UNL     1      -0.810  12.445  21.885  0.00  0.00    +0.000 A 
ATOM     11  C   UNL     1       0.033  13.561  21.995  0.00  0.00    +0.000 A 
ATOM     12  C   UNL     1      -0.500  14.852  21.970  0.00  0.00    +0.000 A 
ATOM     13  C   UNL     1      -1.874  15.042  21.841  0.00  0.00    +0.000 A 
ATOM     14  C   UNL     1      -2.720  13.942  21.742  0.00  0.00    +0.000 A 
ATOM     15  C   UNL     1      -2.192  12.649  21.766  0.00  0.00    +0.000 A 
ENDBRANCH   9  10
BRANCH   1  16
ATOM     16  N   UNL     1       2.033   7.165  20.889  0.00  0.00    +0.000 N 
ATOM     17  H   UNL     1       2.622   7.242  21.704  0.00  0.00    +0.000 HD
BRANCH  16  22
ATOM     18  C   UNL     1       3.658   4.688  18.623  0.00  0.00    +0.000 A 
ATOM     19  C   UNL     1       2.760   3.620  18.735  0.00  0.00    +0.000 A 
ATOM     20  C   UNL     1       1.629   3.712  19.534  0.00  0.00    +0.000 A 
ATOM     21  C   UNL     1       1.370   4.886  20.235  0.00  0.00    +0.000 A 
ATOM     22  C   UNL     1       2.223   5.989  20.139  0.00  0.00    +0.000 A 
ATOM     23  C   UNL     1       3.362   5.874  19.324  0.00  0.00    +0.000 A 
BRANCH  18  29
ATOM     24  O   UNL     1       6.553   4.751  19.505  0.00  0.00    +0.000 OA
ATOM     25  C   UNL     1       6.160   4.671  18.352  0.00  0.00    +0.000 C 
ATOM     26  C   UNL     1       7.090   4.759  17.168  0.00  0.00    +0.000 C 
ATOM     27  C   UNL     1       6.258   4.212  16.027  0.00  0.00    +0.000 C 
ATOM     28  C   UNL     1       4.842   4.585  16.412  0.00  0.00    +0.000 C 
ATOM     29  N   UNL     1       4.847   4.580  17.855  0.00  0.00    +0.000 N 
ENDBRANCH  18  29
ENDBRANCH  16  22
ENDBRANCH   1  16
TORSDOF 4
ENDMDL
MODEL 4
REMARK VINA RESULT:      -8.8      2.571      5.012
REMARK  Name = 
REMARK  4 active torsions:
REMARK  status: ('A' for Active; 'I' for Inactive)
REMARK    1  A    between atoms: N_6  and  C_7
REMARK    2  A    between atoms: C_11  and  N_12
REMARK    3  A    between atoms: N_12  and  C_13
REMARK    4  A    between atoms: N_21  and  C_22
REMARK                            x       y       z     vdW  Elec       q    Type
REMARK                         _______ _______ _______ _____ _____    ______ ____
ROOT
ATOM      1  C   UNL     1       1.266   8.637  20.660  0.00  0.00    +0.000 A 
ATOM      2  N   UNL     1       1.136   9.129  19.400  0.00  0.00    +0.000 NA
ATOM      3  C   UNL     1       0.450  10.259  19.193  0.00  0.00    +0.000 A 
ATOM      4  N   UNL     1      -0.184  10.991  20.108  0.00  0.00    +0.000 NA
ATOM      5  C   UNL     1      -0.089  10.472  21.349  0.00  0.00    +0.000 A 
ATOM      6  C   UNL     1       0.596   9.315  21.684  0.00  0.00    +0.000 A 
ATOM      7  C   UNL     1       0.434   9.199  23.073  0.00  0.00    +0.000 A 
ATOM      8  N   UNL     1      -0.289  10.186  23.600  0.00  0.00    +0.000 NA
ATOM      9  N   UNL     1      -0.607  10.987  22.534  0.00  0.00    +0.000 N 
ENDROOT
BRANCH   9  10
ATOM     10  C   UNL     1      -1.354  12.187  22.731  0.00  0.00    +0.000 A 
ATOM     11  C   UNL     1      -0.700  13.425  22.649  0.00  0.00    +0.000 A 
ATOM     12  C   UNL     1      -1.418  14.613  22.810  0.00  0.00    +0.000 A 
ATOM     13  C   UNL     1      -2.789  14.576  23.058  0.00  0.00    +0.000 A 
ATOM     14  C   UNL     1      -3.444  13.352  23.152  0.00  0.00    +0.000 A 
ATOM     15  C   UNL     1      -2.731  12.162  22.991  0.00  0.00    +0.000 A 
ENDBRANCH   9  10
BRANCH   1  16
ATOM     16  N   UNL     1       2.069   7.511  20.893  0.00  0.00    +0.000 N 
ATOM     17  H   UNL     1       2.887   7.681  21.459  0.00  0.00    +0.000 HD
BRANCH  16  22
ATOM     18  C   UNL     1       3.179   4.992  18.376  0.00  0.00    +0.000 A 
ATOM     19  C   UNL     1       2.365   3.910  18.729  0.00  0.00    +0.000 A 
ATOM     20  C   UNL     1       1.454   4.006  19.773  0.00  0.00    +0.000 A 
ATOM     21  C   UNL     1       1.335   5.197  20.481  0.00  0.00    +0.000 A 
ATOM     22  C   UNL     1       2.109   6.314  20.154  0.00  0.00    +0.000 A 
ATOM     23  C   UNL     1       3.024   6.195  19.093  0.00  0.00    +0.000 A 
BRANCH  18  29
ATOM     24  O   UNL     1       4.651   7.156  16.856  0.00  0.00    +0.000 OA
ATOM     25  C   UNL     1       4.751   5.955  16.663  0.00  0.00    +0.000 C 
ATOM     26  C   UNL     1       5.519   5.380  15.500  0.00  0.00    +0.000 C 
ATOM     27  C   UNL     1       5.712   3.929  15.890  0.00  0.00    +0.000 C 
ATOM     28  C   UNL     1       4.489   3.624  16.729  0.00  0.00    +0.000 C 
ATOM     29  N   UNL     1       4.154   4.882  17.350  0.00  0.00    +0.000 N 
ENDBRANCH  18  29
ENDBRANCH  16  22
ENDBRANCH   1  16
TORSDOF 4
ENDMDL
MODEL 5
REMARK VINA RESULT:      -8.8      1.279      1.794
REMARK  Name = 
REMARK  4 active torsions:
REMARK  status: ('A' for Active; 'I' for Inactive)
REMARK    1  A    between atoms: N_6  and  C_7
REMARK    2  A    between atoms: C_11  and  N_12
REMARK    3  A    between atoms: N_12  and  C_13
REMARK    4  A    between atoms: N_21  and  C_22
REMARK                            x       y       z     vdW  Elec       q    Type
REMARK                         _______ _______ _______ _____ _____    ______ ____
ROOT
ATOM      1  C   UNL     1       2.935   6.973  18.380  0.00  0.00    +0.000 A 
ATOM      2  N   UNL     1       2.858   5.982  19.307  0.00  0.00    +0.000 NA
ATOM      3  C   UNL     1       2.148   6.169  20.424  0.00  0.00    +0.000 A 
ATOM      4  N   UNL     1       1.492   7.272  20.783  0.00  0.00    +0.000 NA
ATOM      5  C   UNL     1       1.610   8.266  19.880  0.00  0.00    +0.000 A 
ATOM      6  C   UNL     1       2.314   8.188  18.689  0.00  0.00    +0.000 A 
ATOM      7  C   UNL     1       2.127   9.441  18.085  0.00  0.00    +0.000 A 
ATOM      8  N   UNL     1       1.374  10.264  18.813  0.00  0.00    +0.000 NA
ATOM      9  N   UNL     1       1.039   9.535  19.924  0.00  0.00    +0.000 N 
ENDROOT
BRANCH   9  10
ATOM     10  C   UNL     1       0.187  10.092  20.923  0.00  0.00    +0.000 A 
ATOM     11  C   UNL     1       0.146   9.508  22.197  0.00  0.00    +0.000 A 
ATOM     12  C   UNL     1      -0.661  10.054  23.198  0.00  0.00    +0.000 A 
ATOM     13  C   UNL     1      -1.436  11.182  22.936  0.00  0.00    +0.000 A 
ATOM     14  C   UNL     1      -1.411  11.763  21.672  0.00  0.00    +0.000 A 
ATOM     15  C   UNL     1      -0.605  11.220  20.669  0.00  0.00    +0.000 A 
ENDBRANCH   9  10
BRANCH   1  16
ATOM     16  N   UNL     1       3.593   6.744  17.162  0.00  0.00    +0.000 N 
ATOM     17  H   UNL     1       3.016   6.844  16.341  0.00  0.00    +0.000 HD
BRANCH  16  22
ATOM     18  C   UNL     1       6.313   4.930  15.366  0.00  0.00    +0.000 A 
ATOM     19  C   UNL     1       7.231   4.761  16.408  0.00  0.00    +0.000 A 
ATOM     20  C   UNL     1       6.960   5.225  17.688  0.00  0.00    +0.000 A 
ATOM     21  C   UNL     1       5.753   5.865  17.952  0.00  0.00    +0.000 A 
ATOM     22  C   UNL     1       4.792   6.039  16.951  0.00  0.00    +0.000 A 
ATOM     23  C   UNL     1       5.088   5.560  15.663  0.00  0.00    +0.000 A 
BRANCH  18  29
ATOM     24  O   UNL     1       8.481   5.864  13.471  0.00  0.00    +0.000 OA
ATOM     25  C   UNL     1       7.614   5.044  13.215  0.00  0.00    +0.000 C 
ATOM     26  C   UNL     1       7.403   4.491  11.827  0.00  0.00    +0.000 C 
ATOM     27  C   UNL     1       6.548   3.262  12.066  0.00  0.00    +0.000 C 
ATOM     28  C   UNL     1       5.747   3.624  13.298  0.00  0.00    +0.000 C 
ATOM     29  N   UNL     1       6.608   4.511  14.042  0.00  0.00    +0.000 N 
ENDBRANCH  18  29
ENDBRANCH  16  22
ENDBRANCH   1  16
TORSDOF 4
ENDMDL
MODEL 6
REMARK VINA RESULT:      -8.7      2.719      5.178
REMARK  Name = 
REMARK  4 active torsions:
REMARK  status: ('A' for Active; 'I' for Inactive)
REMARK    1  A    between atoms: N_6  and  C_7
REMARK    2  A    between atoms: C_11  and  N_12
REMARK    3  A    between atoms: N_12  and  C_13
REMARK    4  A    between atoms: N_21  and  C_22
REMARK                            x       y       z     vdW  Elec       q    Type
REMARK                         _______ _______ _______ _____ _____    ______ ____
ROOT
ATOM      1  C   UNL     1       1.215   8.772  20.655  0.00  0.00    +0.000 A 
ATOM      2  N   UNL     1       1.095   9.294  19.406  0.00  0.00    +0.000 NA
ATOM      3  C   UNL     1       0.406  10.424  19.220  0.00  0.00    +0.000 A 
ATOM      4  N   UNL     1      -0.241  11.131  20.145  0.00  0.00    +0.000 NA
ATOM      5  C   UNL     1      -0.156  10.583  21.375  0.00  0.00    +0.000 A 
ATOM      6  C   UNL     1       0.531   9.421  21.688  0.00  0.00    +0.000 A 
ATOM      7  C   UNL     1       0.356   9.271  23.073  0.00  0.00    +0.000 A 
ATOM      8  N   UNL     1      -0.377  10.241  23.615  0.00  0.00    +0.000 NA
ATOM      9  N   UNL     1      -0.689  11.067  22.566  0.00  0.00    +0.000 N 
ENDROOT
BRANCH   9  10
ATOM     10  C   UNL     1      -1.443  12.257  22.784  0.00  0.00    +0.000 A 
ATOM     11  C   UNL     1      -2.795  12.160  23.146  0.00  0.00    +0.000 A 
ATOM     12  C   UNL     1      -3.544  13.313  23.391  0.00  0.00    +0.000 A 
ATOM     13  C   UNL     1      -2.955  14.570  23.274  0.00  0.00    +0.000 A 
ATOM     14  C   UNL     1      -1.617  14.678  22.906  0.00  0.00    +0.000 A 
ATOM     15  C   UNL     1      -0.864  13.528  22.660  0.00  0.00    +0.000 A 
ENDBRANCH   9  10
BRANCH   1  16
ATOM     16  N   UNL     1       2.022   7.644  20.869  0.00  0.00    +0.000 N 
ATOM     17  H   UNL     1       2.843   7.809  21.431  0.00  0.00    +0.000 HD
BRANCH  16  22
ATOM     18  C   UNL     1       3.104   5.166  18.300  0.00  0.00    +0.000 A 
ATOM     19  C   UNL     1       2.309   4.072  18.657  0.00  0.00    +0.000 A 
ATOM     20  C   UNL     1       1.419   4.146  19.720  0.00  0.00    +0.000 A 
ATOM     21  C   UNL     1       1.304   5.327  20.445  0.00  0.00    +0.000 A 
ATOM     22  C   UNL     1       2.058   6.457  20.115  0.00  0.00    +0.000 A 
ATOM     23  C   UNL     1       2.952   6.359  19.034  0.00  0.00    +0.000 A 
BRANCH  18  29
ATOM     24  O   UNL     1       4.483   2.741  17.124  0.00  0.00    +0.000 OA
ATOM     25  C   UNL     1       4.686   3.901  16.805  0.00  0.00    +0.000 C 
ATOM     26  C   UNL     1       5.798   4.305  15.870  0.00  0.00    +0.000 C 
ATOM     27  C   UNL     1       5.416   5.711  15.456  0.00  0.00    +0.000 C 
ATOM     28  C   UNL     1       4.673   6.244  16.662  0.00  0.00    +0.000 C 
ATOM     29  N   UNL     1       4.059   5.079  17.252  0.00  0.00    +0.000 N 
ENDBRANCH  18  29
ENDBRANCH  16  22
ENDBRANCH   1  16
TORSDOF 4
ENDMDL
MODEL 7
REMARK VINA RESULT:      -8.6      4.415      7.041
REMARK  Name = 
REMARK  4 active torsions:
REMARK  status: ('A' for Active; 'I' for Inactive)
REMARK    1  A    between atoms: N_6  and  C_7
REMARK    2  A    between atoms: C_11  and  N_12
REMARK    3  A    between atoms: N_12  and  C_13
REMARK    4  A    between atoms: N_21  and  C_22
REMARK                            x       y       z     vdW  Elec       q    Type
REMARK                         _______ _______ _______ _____ _____    ______ ____
ROOT
ATOM      1  C   UNL     1      -0.142  11.173  18.517  0.00  0.00    +0.000 A 
ATOM      2  N   UNL     1       0.011  12.235  19.351  0.00  0.00    +0.000 NA
ATOM      3  C   UNL     1      -1.059  12.940  19.735  0.00  0.00    +0.000 A 
ATOM      4  N   UNL     1      -2.323  12.746  19.364  0.00  0.00    +0.000 NA
ATOM      5  C   UNL     1      -2.462  11.719  18.501  0.00  0.00    +0.000 A 
ATOM      6  C   UNL     1      -1.431  10.918  18.037  0.00  0.00    +0.000 A 
ATOM      7  C   UNL     1      -2.061   9.986  17.196  0.00  0.00    +0.000 A 
ATOM      8  N   UNL     1      -3.379  10.161  17.116  0.00  0.00    +0.000 NA
ATOM      9  N   UNL     1      -3.636  11.230  17.934  0.00  0.00    +0.000 N 
ENDROOT
BRANCH   9  10
ATOM     10  C   UNL     1      -4.974  11.683  18.131  0.00  0.00    +0.000 A 
ATOM     11  C   UNL     1      -5.585  11.501  19.380  0.00  0.00    +0.000 A 
ATOM     12  C   UNL     1      -6.886  11.963  19.603  0.00  0.00    +0.000 A 
ATOM     13  C   UNL     1      -7.586  12.604  18.583  0.00  0.00    +0.000 A 
ATOM     14  C   UNL     1      -6.992  12.779  17.338  0.00  0.00    +0.000 A 
ATOM     15  C   UNL     1      -5.693  12.320  17.110  0.00  0.00    +0.000 A 
ENDBRANCH   9  10
BRANCH   1  16
ATOM     16  N   UNL     1       0.961  10.370  18.194  0.00  0.00    +0.000 N 
ATOM     17  H   UNL     1       1.339  10.516  17.270  0.00  0.00    +0.000 HD
BRANCH  16  22
ATOM     18  C   UNL     1       2.566   7.029  18.617  0.00  0.00    +0.000 A 
ATOM     19  C   UNL     1       2.309   6.798  19.974  0.00  0.00    +0.000 A 
ATOM     20  C   UNL     1       1.609   7.720  20.740  0.00  0.00    +0.000 A 
ATOM     21  C   UNL     1       1.143   8.894  20.157  0.00  0.00    +0.000 A 
ATOM     22  C   UNL     1       1.353   9.162  18.801  0.00  0.00    +0.000 A 
ATOM     23  C   UNL     1       2.064   8.214  18.044  0.00  0.00    +0.000 A 
BRANCH  18  29
ATOM     24  O   UNL     1       1.960   4.176  17.807  0.00  0.00    +0.000 OA
ATOM     25  C   UNL     1       2.987   4.786  17.557  0.00  0.00    +0.000 C 
ATOM     26  C   UNL     1       4.192   4.126  16.935  0.00  0.00    +0.000 C 
ATOM     27  C   UNL     1       5.021   5.298  16.449  0.00  0.00    +0.000 C 
ATOM     28  C   UNL     1       4.688   6.398  17.434  0.00  0.00    +0.000 C 
ATOM     29  N   UNL     1       3.332   6.119  17.842  0.00  0.00    +0.000 N 
ENDBRANCH  18  29
ENDBRANCH  16  22
ENDBRANCH   1  16
TORSDOF 4
ENDMDL
MODEL 8
REMARK VINA RESULT:      -8.5      1.146      1.551
REMARK  Name = 
REMARK  4 active torsions:
REMARK  status: ('A' for Active; 'I' for Inactive)
REMARK    1  A    between atoms: N_6  and  C_7
REMARK    2  A    between atoms: C_11  and  N_12
REMARK    3  A    between atoms: N_12  and  C_13
REMARK    4  A    between atoms: N_21  and  C_22
REMARK                            x       y       z     vdW  Elec       q    Type
REMARK                         _______ _______ _______ _____ _____    ______ ____
ROOT
ATOM      1  C   UNL     1       3.002   5.642  18.892  0.00  0.00    +0.000 A 
ATOM      2  N   UNL     1       2.597   5.188  20.107  0.00  0.00    +0.000 NA
ATOM      3  C   UNL     1       1.819   5.954  20.879  0.00  0.00    +0.000 A 
ATOM      4  N   UNL     1       1.388   7.186  20.613  0.00  0.00    +0.000 NA
ATOM      5  C   UNL     1       1.831   7.648  19.426  0.00  0.00    +0.000 A 
ATOM      6  C   UNL     1       2.636   6.947  18.543  0.00  0.00    +0.000 A 
ATOM      7  C   UNL     1       2.806   7.817  17.454  0.00  0.00    +0.000 A 
ATOM      8  N   UNL     1       2.175   8.979  17.610  0.00  0.00    +0.000 NA
ATOM      9  N   UNL     1       1.557   8.876  18.829  0.00  0.00    +0.000 N 
ENDROOT
BRANCH   9  10
ATOM     10  C   UNL     1       0.737   9.937  19.315  0.00  0.00    +0.000 A 
ATOM     11  C   UNL     1       1.083  10.580  20.514  0.00  0.00    +0.000 A 
ATOM     12  C   UNL     1       0.309  11.640  20.993  0.00  0.00    +0.000 A 
ATOM     13  C   UNL     1      -0.814  12.065  20.286  0.00  0.00    +0.000 A 
ATOM     14  C   UNL     1      -1.170  11.427  19.102  0.00  0.00    +0.000 A 
ATOM     15  C   UNL     1      -0.400  10.367  18.619  0.00  0.00    +0.000 A 
ENDBRANCH   9  10
BRANCH   1  16
ATOM     16  N   UNL     1       3.732   4.804  18.037  0.00  0.00    +0.000 N 
ATOM     17  H   UNL     1       3.448   3.836  18.045  0.00  0.00    +0.000 HD
BRANCH  16  22
ATOM     18  C   UNL     1       6.495   4.913  15.533  0.00  0.00    +0.000 A 
ATOM     19  C   UNL     1       7.472   5.592  16.269  0.00  0.00    +0.000 A 
ATOM     20  C   UNL     1       7.236   6.001  17.574  0.00  0.00    +0.000 A 
ATOM     21  C   UNL     1       6.010   5.728  18.174  0.00  0.00    +0.000 A 
ATOM     22  C   UNL     1       5.008   5.033  17.490  0.00  0.00    +0.000 A 
ATOM     23  C   UNL     1       5.270   4.628  16.170  0.00  0.00    +0.000 A 
BRANCH  18  29
ATOM     24  O   UNL     1       8.577   5.882  13.561  0.00  0.00    +0.000 OA
ATOM     25  C   UNL     1       7.679   5.091  13.319  0.00  0.00    +0.000 C 
ATOM     26  C   UNL     1       7.380   4.602  11.924  0.00  0.00    +0.000 C 
ATOM     27  C   UNL     1       6.512   3.382  12.159  0.00  0.00    +0.000 C 
ATOM     28  C   UNL     1       5.787   3.708  13.448  0.00  0.00    +0.000 C 
ATOM     29  N   UNL     1       6.708   4.545  14.178  0.00  0.00    +0.000 N 
ENDBRANCH  18  29
ENDBRANCH  16  22
ENDBRANCH   1  16
TORSDOF 4
ENDMDL
MODEL 9
REMARK VINA RESULT:      -8.5      2.227      4.231
REMARK  Name = 
REMARK  4 active torsions:
REMARK  status: ('A' for Active; 'I' for Inactive)
REMARK    1  A    between atoms: N_6  and  C_7
REMARK    2  A    between atoms: C_11  and  N_12
REMARK    3  A    between atoms: N_12  and  C_13
REMARK    4  A    between atoms: N_21  and  C_22
REMARK                            x       y       z     vdW  Elec       q    Type
REMARK                         _______ _______ _______ _____ _____    ______ ____
ROOT
ATOM      1  C   UNL     1       1.711   8.157  19.737  0.00  0.00    +0.000 A 
ATOM      2  N   UNL     1       1.853   8.790  18.542  0.00  0.00    +0.000 NA
ATOM      3  C   UNL     1       1.268   9.976  18.344  0.00  0.00    +0.000 A 
ATOM      4  N   UNL     1       0.498  10.644  19.200  0.00  0.00    +0.000 NA
ATOM      5  C   UNL     1       0.324   9.990  20.367  0.00  0.00    +0.000 A 
ATOM      6  C   UNL     1       0.881   8.762  20.687  0.00  0.00    +0.000 A 
ATOM      7  C   UNL     1       0.444   8.508  21.996  0.00  0.00    +0.000 A 
ATOM      8  N   UNL     1      -0.327   9.476  22.487  0.00  0.00    +0.000 NA
ATOM      9  N   UNL     1      -0.396  10.406  21.483  0.00  0.00    +0.000 N 
ENDROOT
BRANCH   9  10
ATOM     10  C   UNL     1      -1.116  11.623  21.673  0.00  0.00    +0.000 A 
ATOM     11  C   UNL     1      -1.880  12.143  20.619  0.00  0.00    +0.000 A 
ATOM     12  C   UNL     1      -2.615  13.318  20.793  0.00  0.00    +0.000 A 
ATOM     13  C   UNL     1      -2.591  13.985  22.016  0.00  0.00    +0.000 A 
ATOM     14  C   UNL     1      -1.828  13.483  23.065  0.00  0.00    +0.000 A 
ATOM     15  C   UNL     1      -1.091  12.308  22.896  0.00  0.00    +0.000 A 
ENDBRANCH   9  10
BRANCH   1  16
ATOM     16  N   UNL     1       2.406   6.964  19.985  0.00  0.00    +0.000 N 
ATOM     17  H   UNL     1       3.081   7.012  20.733  0.00  0.00    +0.000 HD
BRANCH  16  22
ATOM     18  C   UNL     1       3.996   4.679  17.503  0.00  0.00    +0.000 A 
ATOM     19  C   UNL     1       3.056   3.643  17.478  0.00  0.00    +0.000 A 
ATOM     20  C   UNL     1       1.907   3.695  18.256  0.00  0.00    +0.000 A 
ATOM     21  C   UNL     1       1.674   4.797  19.074  0.00  0.00    +0.000 A 
ATOM     22  C   UNL     1       2.571   5.868  19.118  0.00  0.00    +0.000 A 
ATOM     23  C   UNL     1       3.726   5.794  18.321  0.00  0.00    +0.000 A 
BRANCH  18  29
ATOM     24  O   UNL     1       6.857   4.392  18.451  0.00  0.00    +0.000 OA
ATOM     25  C   UNL     1       6.499   4.522  17.292  0.00  0.00    +0.000 C 
ATOM     26  C   UNL     1       7.474   4.725  16.158  0.00  0.00    +0.000 C 
ATOM     27  C   UNL     1       6.646   4.425  14.926  0.00  0.00    +0.000 C 
ATOM     28  C   UNL     1       5.247   4.835  15.332  0.00  0.00    +0.000 C 
ATOM     29  N   UNL     1       5.201   4.605  16.755  0.00  0.00    +0.000 N 
ENDBRANCH  18  29
ENDBRANCH  16  22
ENDBRANCH   1  16
TORSDOF 4
ENDMDL
