MODEL 1
REMARK VINA RESULT:      -7.4      0.000      0.000
REMARK  Name = 
REMARK  3 active torsions:
REMARK  status: ('A' for Active; 'I' for Inactive)
REMARK    1  A    between atoms: C_1  and  C_2
REMARK    2  A    between atoms: C_13  and  C_15
REMARK    3  A    between atoms: C_15  and  N_16
REMARK                            x       y       z     vdW  Elec       q    Type
REMARK                         _______ _______ _______ _____ _____    ______ ____
ROOT
ATOM      1  C   UNL     1      -1.288   9.624  18.266  0.00  0.00    +0.000 C 
ATOM      2  C   UNL     1       0.005  10.369  18.641  0.00  0.00    +0.000 C 
ATOM      3  C   UNL     1      -0.330  11.565  19.537  0.00  0.00    +0.000 A 
ATOM      4  C   UNL     1      -0.981  12.684  18.981  0.00  0.00    +0.000 A 
ATOM      5  C   UNL     1      -1.329  13.778  19.776  0.00  0.00    +0.000 A 
ATOM      6  C   UNL     1      -1.025  13.761  21.131  0.00  0.00    +0.000 A 
ATOM      7  F   UNL     1      -1.359  14.809  21.894  0.00  0.00    +0.000 F 
ATOM      8  C   UNL     1      -0.374  12.675  21.701  0.00  0.00    +0.000 A 
ATOM      9  C   UNL     1      -0.023  11.568  20.913  0.00  0.00    +0.000 A 
ATOM     10  C   UNL     1       0.752  10.434  21.531  0.00  0.00    +0.000 C 
ATOM     11  C   UNL     1       0.715   9.166  20.683  0.00  0.00    +0.000 C 
ATOM     12  N   UNL     1       0.973   9.451  19.273  0.00  0.00    +0.000 N 
ATOM     13  C   UNL     1       1.981   8.872  18.486  0.00  0.00    +0.000 C 
ATOM     14  O   UNL     1       2.100   9.134  17.301  0.00  0.00    +0.000 OA
ENDROOT
BRANCH  13  15
ATOM     15  C   UNL     1       2.908   7.819  19.146  0.00  0.00    +0.000 C 
BRANCH  15  16
ATOM     16  N   UNL     1       2.482   6.451  18.845  0.00  0.00    +0.000 N 
ATOM     17  C   UNL     1       1.819   5.605  19.721  0.00  0.00    +0.000 C 
ATOM     18  O   UNL     1       1.628   5.768  20.904  0.00  0.00    +0.000 OA
ATOM     19  C   UNL     1       1.413   4.353  18.943  0.00  0.00    +0.000 C 
ATOM     20  C   UNL     1       1.748   3.005  19.617  0.00  0.00    +0.000 C 
ATOM     21  C   UNL     1       1.616   1.801  18.681  0.00  0.00    +0.000 C 
ATOM     22  C   UNL     1       2.612   1.889  17.779  0.00  0.00    +0.000 C 
ATOM     23  C   UNL     1       3.334   3.184  18.044  0.00  0.00    +0.000 C 
ATOM     24  C   UNL     1       3.283   3.054  19.582  0.00  0.00    +0.000 C 
ATOM     25  C   UNL     1       2.390   4.375  17.755  0.00  0.00    +0.000 C 
ATOM     26  C   UNL     1       3.050   5.728  17.842  0.00  0.00    +0.000 C 
ATOM     27  O   UNL     1       4.017   6.058  17.154  0.00  0.00    +0.000 OA
ENDBRANCH  15  16
ENDBRANCH  13  15
TORSDOF 2
ENDMDL
MODEL 2
REMARK VINA RESULT:      -7.3      2.031      2.972
REMARK  Name = 
REMARK  3 active torsions:
REMARK  status: ('A' for Active; 'I' for Inactive)
REMARK    1  A    between atoms: C_1  and  C_2
REMARK    2  A    between atoms: C_13  and  C_15
REMARK    3  A    between atoms: C_15  and  N_16
REMARK                            x       y       z     vdW  Elec       q    Type
REMARK                         _______ _______ _______ _____ _____    ______ ____
ROOT
ATOM      1  C   UNL     1      -0.149  11.625  20.830  0.00  0.00    +0.000 C 
ATOM      2  C   UNL     1      -0.571  10.266  20.245  0.00  0.00    +0.000 C 
ATOM      3  C   UNL     1      -1.480  10.486  19.032  0.00  0.00    +0.000 A 
ATOM      4  C   UNL     1      -2.789  10.967  19.228  0.00  0.00    +0.000 A 
ATOM      5  C   UNL     1      -3.634  11.209  18.142  0.00  0.00    +0.000 A 
ATOM      6  C   UNL     1      -3.174  10.967  16.853  0.00  0.00    +0.000 A 
ATOM      7  F   UNL     1      -3.982  11.200  15.813  0.00  0.00    +0.000 F 
ATOM      8  C   UNL     1      -1.891  10.482  16.635  0.00  0.00    +0.000 A 
ATOM      9  C   UNL     1      -1.033  10.240  17.718  0.00  0.00    +0.000 A 
ATOM     10  C   UNL     1       0.325   9.639  17.467  0.00  0.00    +0.000 C 
ATOM     11  C   UNL     1       1.268   9.799  18.657  0.00  0.00    +0.000 C 
ATOM     12  N   UNL     1       0.612   9.448  19.915  0.00  0.00    +0.000 N 
ATOM     13  C   UNL     1       1.059   8.488  20.837  0.00  0.00    +0.000 C 
ATOM     14  O   UNL     1       0.475   8.287  21.889  0.00  0.00    +0.000 OA
ENDROOT
BRANCH  13  15
ATOM     15  C   UNL     1       2.373   7.728  20.521  0.00  0.00    +0.000 C 
BRANCH  15  16
ATOM     16  N   UNL     1       2.121   6.476  19.804  0.00  0.00    +0.000 N 
ATOM     17  C   UNL     1       1.907   5.241  20.397  0.00  0.00    +0.000 C 
ATOM     18  O   UNL     1       2.052   4.943  21.560  0.00  0.00    +0.000 OA
ATOM     19  C   UNL     1       1.512   4.258  19.294  0.00  0.00    +0.000 C 
ATOM     20  C   UNL     1       2.262   2.907  19.297  0.00  0.00    +0.000 C 
ATOM     21  C   UNL     1       2.068   2.095  18.015  0.00  0.00    +0.000 C 
ATOM     22  C   UNL     1       2.720   2.745  17.032  0.00  0.00    +0.000 C 
ATOM     23  C   UNL     1       3.252   4.024  17.625  0.00  0.00    +0.000 C 
ATOM     24  C   UNL     1       3.683   3.382  18.962  0.00  0.00    +0.000 C 
ATOM     25  C   UNL     1       2.071   4.938  18.033  0.00  0.00    +0.000 C 
ATOM     26  C   UNL     1       2.482   6.310  18.503  0.00  0.00    +0.000 C 
ATOM     27  O   UNL     1       3.128   7.101  17.813  0.00  0.00    +0.000 OA
ENDBRANCH  15  16
ENDBRANCH  13  15
TORSDOF 2
ENDMDL
MODEL 3
REMARK VINA RESULT:      -7.2      3.366      8.731
REMARK  Name = 
REMARK  3 active torsions:
REMARK  status: ('A' for Active; 'I' for Inactive)
REMARK    1  A    between atoms: C_1  and  C_2
REMARK    2  A    between atoms: C_13  and  C_15
REMARK    3  A    between atoms: C_15  and  N_16
REMARK                            x       y       z     vdW  Elec       q    Type
REMARK                         _______ _______ _______ _____ _____    ______ ____
ROOT
ATOM      1  C   UNL     1       4.038   7.209  18.170  0.00  0.00    +0.000 C 
ATOM      2  C   UNL     1       2.518   6.993  18.262  0.00  0.00    +0.000 C 
ATOM      3  C   UNL     1       2.223   5.518  18.554  0.00  0.00    +0.000 A 
ATOM      4  C   UNL     1       2.442   4.557  17.547  0.00  0.00    +0.000 A 
ATOM      5  C   UNL     1       2.214   3.201  17.789  0.00  0.00    +0.000 A 
ATOM      6  C   UNL     1       1.762   2.798  19.039  0.00  0.00    +0.000 A 
ATOM      7  F   UNL     1       1.545   1.498  19.272  0.00  0.00    +0.000 F 
ATOM      8  C   UNL     1       1.529   3.727  20.045  0.00  0.00    +0.000 A 
ATOM      9  C   UNL     1       1.759   5.092  19.815  0.00  0.00    +0.000 A 
ATOM     10  C   UNL     1       1.425   6.091  20.890  0.00  0.00    +0.000 C 
ATOM     11  C   UNL     1       2.078   7.450  20.654  0.00  0.00    +0.000 C 
ATOM     12  N   UNL     1       1.920   7.891  19.270  0.00  0.00    +0.000 N 
ATOM     13  C   UNL     1       1.343   9.100  18.851  0.00  0.00    +0.000 C 
ATOM     14  O   UNL     1       1.290   9.413  17.673  0.00  0.00    +0.000 OA
ENDROOT
BRANCH  13  15
ATOM     15  C   UNL     1       0.833  10.081  19.939  0.00  0.00    +0.000 C 
BRANCH  15  16
ATOM     16  N   UNL     1       0.918  11.476  19.499  0.00  0.00    +0.000 N 
ATOM     17  C   UNL     1       1.727  12.448  20.068  0.00  0.00    +0.000 C 
ATOM     18  O   UNL     1       2.357  12.377  21.097  0.00  0.00    +0.000 OA
ATOM     19  C   UNL     1       1.636  13.699  19.193  0.00  0.00    +0.000 C 
ATOM     20  C   UNL     1       1.379  15.026  19.942  0.00  0.00    +0.000 C 
ATOM     21  C   UNL     1       0.986  16.183  19.021  0.00  0.00    +0.000 C 
ATOM     22  C   UNL     1      -0.247  15.915  18.552  0.00  0.00    +0.000 C 
ATOM     23  C   UNL     1      -0.628  14.551  19.066  0.00  0.00    +0.000 C 
ATOM     24  C   UNL     1      -0.038  14.770  20.476  0.00  0.00    +0.000 C 
ATOM     25  C   UNL     1       0.306  13.483  18.450  0.00  0.00    +0.000 C 
ATOM     26  C   UNL     1      -0.075  12.061  18.777  0.00  0.00    +0.000 C 
ATOM     27  O   UNL     1      -1.168  11.568  18.495  0.00  0.00    +0.000 OA
ENDBRANCH  15  16
ENDBRANCH  13  15
TORSDOF 2
ENDMDL
MODEL 4
REMARK VINA RESULT:      -7.0      4.090      8.728
REMARK  Name = 
REMARK  3 active torsions:
REMARK  status: ('A' for Active; 'I' for Inactive)
REMARK    1  A    between atoms: C_1  and  C_2
REMARK    2  A    between atoms: C_13  and  C_15
REMARK    3  A    between atoms: C_15  and  N_16
REMARK                            x       y       z     vdW  Elec       q    Type
REMARK                         _______ _______ _______ _____ _____    ______ ____
ROOT
ATOM      1  C   UNL     1      -0.707   8.100  21.174  0.00  0.00    +0.000 C 
ATOM      2  C   UNL     1       0.584   8.907  20.961  0.00  0.00    +0.000 C 
ATOM      3  C   UNL     1       1.509   8.157  19.998  0.00  0.00    +0.000 A 
ATOM      4  C   UNL     1       2.150   6.979  20.432  0.00  0.00    +0.000 A 
ATOM      5  C   UNL     1       2.975   6.253  19.570  0.00  0.00    +0.000 A 
ATOM      6  C   UNL     1       3.167   6.703  18.270  0.00  0.00    +0.000 A 
ATOM      7  F   UNL     1       3.956   6.007  17.444  0.00  0.00    +0.000 F 
ATOM      8  C   UNL     1       2.556   7.867  17.822  0.00  0.00    +0.000 A 
ATOM      9  C   UNL     1       1.721   8.602  18.678  0.00  0.00    +0.000 A 
ATOM     10  C   UNL     1       1.131   9.902  18.200  0.00  0.00    +0.000 C 
ATOM     11  C   UNL     1      -0.034  10.373  19.066  0.00  0.00    +0.000 C 
ATOM     12  N   UNL     1       0.277  10.272  20.490  0.00  0.00    +0.000 N 
ATOM     13  C   UNL     1       0.221  11.321  21.422  0.00  0.00    +0.000 C 
ATOM     14  O   UNL     1       0.455  11.141  22.606  0.00  0.00    +0.000 OA
ENDROOT
BRANCH  13  15
ATOM     15  C   UNL     1      -0.223  12.719  20.921  0.00  0.00    +0.000 C 
BRANCH  15  16
ATOM     16  N   UNL     1       0.865  13.426  20.239  0.00  0.00    +0.000 N 
ATOM     17  C   UNL     1       1.961  14.004  20.861  0.00  0.00    +0.000 C 
ATOM     18  O   UNL     1       2.132  14.178  22.046  0.00  0.00    +0.000 OA
ATOM     19  C   UNL     1       2.924  14.470  19.769  0.00  0.00    +0.000 C 
ATOM     20  C   UNL     1       3.457  15.913  19.914  0.00  0.00    +0.000 C 
ATOM     21  C   UNL     1       4.153  16.439  18.656  0.00  0.00    +0.000 C 
ATOM     22  C   UNL     1       3.201  16.613  17.720  0.00  0.00    +0.000 C 
ATOM     23  C   UNL     1       1.907  16.113  18.308  0.00  0.00    +0.000 C 
ATOM     24  C   UNL     1       2.158  16.707  19.711  0.00  0.00    +0.000 C 
ATOM     25  C   UNL     1       1.999  14.587  18.545  0.00  0.00    +0.000 C 
ATOM     26  C   UNL     1       0.708  13.949  18.993  0.00  0.00    +0.000 C 
ATOM     27  O   UNL     1      -0.335  13.994  18.340  0.00  0.00    +0.000 OA
ENDBRANCH  15  16
ENDBRANCH  13  15
TORSDOF 2
ENDMDL
MODEL 5
REMARK VINA RESULT:      -6.9      7.009     10.252
REMARK  Name = 
REMARK  3 active torsions:
REMARK  status: ('A' for Active; 'I' for Inactive)
REMARK    1  A    between atoms: C_1  and  C_2
REMARK    2  A    between atoms: C_13  and  C_15
REMARK    3  A    between atoms: C_15  and  N_16
REMARK                            x       y       z     vdW  Elec       q    Type
REMARK                         _______ _______ _______ _____ _____    ______ ____
ROOT
ATOM      1  C   UNL     1       7.080   6.239  15.826  0.00  0.00    +0.000 C 
ATOM      2  C   UNL     1       6.459   6.880  17.079  0.00  0.00    +0.000 C 
ATOM      3  C   UNL     1       5.463   5.906  17.717  0.00  0.00    +0.000 A 
ATOM      4  C   UNL     1       4.239   5.647  17.070  0.00  0.00    +0.000 A 
ATOM      5  C   UNL     1       3.322   4.741  17.607  0.00  0.00    +0.000 A 
ATOM      6  C   UNL     1       3.622   4.092  18.798  0.00  0.00    +0.000 A 
ATOM      7  F   UNL     1       2.745   3.223  19.313  0.00  0.00    +0.000 F 
ATOM      8  C   UNL     1       4.818   4.339  19.461  0.00  0.00    +0.000 A 
ATOM      9  C   UNL     1       5.749   5.243  18.928  0.00  0.00    +0.000 A 
ATOM     10  C   UNL     1       7.003   5.557  19.700  0.00  0.00    +0.000 C 
ATOM     11  C   UNL     1       8.070   6.229  18.840  0.00  0.00    +0.000 C 
ATOM     12  N   UNL     1       7.509   7.304  18.026  0.00  0.00    +0.000 N 
ATOM     13  C   UNL     1       7.940   8.640  18.016  0.00  0.00    +0.000 C 
ATOM     14  O   UNL     1       7.444   9.469  17.270  0.00  0.00    +0.000 OA
ENDROOT
BRANCH  13  15
ATOM     15  C   UNL     1       9.127   9.032  18.933  0.00  0.00    +0.000 C 
BRANCH  15  16
ATOM     16  N   UNL     1       9.253  10.484  19.072  0.00  0.00    +0.000 N 
ATOM     17  C   UNL     1       9.919  11.320  18.188  0.00  0.00    +0.000 C 
ATOM     18  O   UNL     1      10.637  11.003  17.268  0.00  0.00    +0.000 OA
ATOM     19  C   UNL     1       9.651  12.763  18.620  0.00  0.00    +0.000 C 
ATOM     20  C   UNL     1      10.892  13.678  18.714  0.00  0.00    +0.000 C 
ATOM     21  C   UNL     1      10.627  14.998  19.441  0.00  0.00    +0.000 C 
ATOM     22  C   UNL     1      10.431  14.703  20.740  0.00  0.00    +0.000 C 
ATOM     23  C   UNL     1      10.461  13.201  20.860  0.00  0.00    +0.000 C 
ATOM     24  C   UNL     1      11.638  13.011  19.879  0.00  0.00    +0.000 C 
ATOM     25  C   UNL     1       9.259  12.595  20.098  0.00  0.00    +0.000 C 
ATOM     26  C   UNL     1       9.100  11.105  20.273  0.00  0.00    +0.000 C 
ATOM     27  O   UNL     1       8.947  10.561  21.368  0.00  0.00    +0.000 OA
ENDBRANCH  15  16
ENDBRANCH  13  15
TORSDOF 2
ENDMDL
MODEL 6
REMARK VINA RESULT:      -6.8      4.353      9.718
REMARK  Name = 
REMARK  3 active torsions:
REMARK  status: ('A' for Active; 'I' for Inactive)
REMARK    1  A    between atoms: C_1  and  C_2
REMARK    2  A    between atoms: C_13  and  C_15
REMARK    3  A    between atoms: C_15  and  N_16
REMARK                            x       y       z     vdW  Elec       q    Type
REMARK                         _______ _______ _______ _____ _____    ______ ____
ROOT
ATOM      1  C   UNL     1       1.703  11.859  19.368  0.00  0.00    +0.000 C 
ATOM      2  C   UNL     1       0.657  10.737  19.485  0.00  0.00    +0.000 C 
ATOM      3  C   UNL     1       1.315   9.385  19.189  0.00  0.00    +0.000 A 
ATOM      4  C   UNL     1       1.703   9.079  17.870  0.00  0.00    +0.000 A 
ATOM      5  C   UNL     1       2.333   7.869  17.571  0.00  0.00    +0.000 A 
ATOM      6  C   UNL     1       2.576   6.957  18.590  0.00  0.00    +0.000 A 
ATOM      7  F   UNL     1       3.182   5.798  18.304  0.00  0.00    +0.000 F 
ATOM      8  C   UNL     1       2.193   7.231  19.897  0.00  0.00    +0.000 A 
ATOM      9  C   UNL     1       1.563   8.445  20.209  0.00  0.00    +0.000 A 
ATOM     10  C   UNL     1       1.085   8.690  21.616  0.00  0.00    +0.000 C 
ATOM     11  C   UNL     1       0.788  10.163  21.888  0.00  0.00    +0.000 C 
ATOM     12  N   UNL     1       0.006  10.763  20.809  0.00  0.00    +0.000 N 
ATOM     13  C   UNL     1      -1.229  11.415  20.952  0.00  0.00    +0.000 C 
ATOM     14  O   UNL     1      -1.796  11.931  20.003  0.00  0.00    +0.000 OA
ENDROOT
BRANCH  13  15
ATOM     15  C   UNL     1      -1.831  11.535  22.375  0.00  0.00    +0.000 C 
BRANCH  15  16
ATOM     16  N   UNL     1      -2.218  12.912  22.690  0.00  0.00    +0.000 N 
ATOM     17  C   UNL     1      -1.354  13.915  23.103  0.00  0.00    +0.000 C 
ATOM     18  O   UNL     1      -0.196  13.803  23.434  0.00  0.00    +0.000 OA
ATOM     19  C   UNL     1      -2.144  15.223  23.146  0.00  0.00    +0.000 C 
ATOM     20  C   UNL     1      -1.987  16.062  24.434  0.00  0.00    +0.000 C 
ATOM     21  C   UNL     1      -3.020  17.183  24.566  0.00  0.00    +0.000 C 
ATOM     22  C   UNL     1      -4.212  16.598  24.788  0.00  0.00    +0.000 C 
ATOM     23  C   UNL     1      -3.997  15.109  24.702  0.00  0.00    +0.000 C 
ATOM     24  C   UNL     1      -2.649  15.125  25.455  0.00  0.00    +0.000 C 
ATOM     25  C   UNL     1      -3.596  14.725  23.258  0.00  0.00    +0.000 C 
ATOM     26  C   UNL     1      -3.498  13.240  23.014  0.00  0.00    +0.000 C 
ATOM     27  O   UNL     1      -4.437  12.461  23.183  0.00  0.00    +0.000 OA
ENDBRANCH  15  16
ENDBRANCH  13  15
TORSDOF 2
ENDMDL
MODEL 7
REMARK VINA RESULT:      -6.8      7.828      9.681
REMARK  Name = 
REMARK  3 active torsions:
REMARK  status: ('A' for Active; 'I' for Inactive)
REMARK    1  A    between atoms: C_1  and  C_2
REMARK    2  A    between atoms: C_13  and  C_15
REMARK    3  A    between atoms: C_15  and  N_16
REMARK                            x       y       z     vdW  Elec       q    Type
REMARK                         _______ _______ _______ _____ _____    ______ ____
ROOT
ATOM      1  C   UNL     1       4.007  16.488  21.515  0.00  0.00    +0.000 C 
ATOM      2  C   UNL     1       4.689  15.271  20.867  0.00  0.00    +0.000 C 
ATOM      3  C   UNL     1       3.640  14.408  20.159  0.00  0.00    +0.000 A 
ATOM      4  C   UNL     1       2.724  13.663  20.929  0.00  0.00    +0.000 A 
ATOM      5  C   UNL     1       1.735  12.891  20.317  0.00  0.00    +0.000 A 
ATOM      6  C   UNL     1       1.658  12.855  18.930  0.00  0.00    +0.000 A 
ATOM      7  F   UNL     1       0.710  12.117  18.343  0.00  0.00    +0.000 F 
ATOM      8  C   UNL     1       2.556  13.572  18.149  0.00  0.00    +0.000 A 
ATOM      9  C   UNL     1       3.551  14.355  18.754  0.00  0.00    +0.000 A 
ATOM     10  C   UNL     1       4.564  15.061  17.891  0.00  0.00    +0.000 C 
ATOM     11  C   UNL     1       5.314  16.157  18.643  0.00  0.00    +0.000 C 
ATOM     12  N   UNL     1       5.767  15.699  19.954  0.00  0.00    +0.000 N 
ATOM     13  C   UNL     1       7.091  15.718  20.421  0.00  0.00    +0.000 C 
ATOM     14  O   UNL     1       7.379  15.356  21.551  0.00  0.00    +0.000 OA
ENDROOT
BRANCH  13  15
ATOM     15  C   UNL     1       8.188  16.286  19.485  0.00  0.00    +0.000 C 
BRANCH  15  16
ATOM     16  N   UNL     1       9.175  15.268  19.118  0.00  0.00    +0.000 N 
ATOM     17  C   UNL     1       8.930  14.167  18.312  0.00  0.00    +0.000 C 
ATOM     18  O   UNL     1       7.861  13.762  17.916  0.00  0.00    +0.000 OA
ATOM     19  C   UNL     1      10.269  13.475  18.050  0.00  0.00    +0.000 C 
ATOM     20  C   UNL     1      10.287  11.945  18.262  0.00  0.00    +0.000 C 
ATOM     21  C   UNL     1      11.696  11.348  18.297  0.00  0.00    +0.000 C 
ATOM     22  C   UNL     1      12.277  11.769  19.436  0.00  0.00    +0.000 C 
ATOM     23  C   UNL     1      11.311  12.716  20.100  0.00  0.00    +0.000 C 
ATOM     24  C   UNL     1      10.057  11.875  19.779  0.00  0.00    +0.000 C 
ATOM     25  C   UNL     1      11.132  13.976  19.220  0.00  0.00    +0.000 C 
ATOM     26  C   UNL     1      10.300  15.063  19.855  0.00  0.00    +0.000 C 
ATOM     27  O   UNL     1      10.585  15.598  20.928  0.00  0.00    +0.000 OA
ENDBRANCH  15  16
ENDBRANCH  13  15
TORSDOF 2
ENDMDL
MODEL 8
REMARK VINA RESULT:      -6.7      3.667      8.802
REMARK  Name = 
REMARK  3 active torsions:
REMARK  status: ('A' for Active; 'I' for Inactive)
REMARK    1  A    between atoms: C_1  and  C_2
REMARK    2  A    between atoms: C_13  and  C_15
REMARK    3  A    between atoms: C_15  and  N_16
REMARK                            x       y       z     vdW  Elec       q    Type
REMARK                         _______ _______ _______ _____ _____    ______ ____
ROOT
ATOM      1  C   UNL     1      -0.320   7.931  20.899  0.00  0.00    +0.000 C 
ATOM      2  C   UNL     1       1.040   8.605  20.653  0.00  0.00    +0.000 C 
ATOM      3  C   UNL     1       1.930   7.682  19.814  0.00  0.00    +0.000 A 
ATOM      4  C   UNL     1       2.455   6.512  20.396  0.00  0.00    +0.000 A 
ATOM      5  C   UNL     1       3.243   5.632  19.651  0.00  0.00    +0.000 A 
ATOM      6  C   UNL     1       3.514   5.920  18.319  0.00  0.00    +0.000 A 
ATOM      7  F   UNL     1       4.267   5.077  17.604  0.00  0.00    +0.000 F 
ATOM      8  C   UNL     1       3.016   7.073  17.725  0.00  0.00    +0.000 A 
ATOM      9  C   UNL     1       2.219   7.962  18.463  0.00  0.00    +0.000 A 
ATOM     10  C   UNL     1       1.756   9.245  17.826  0.00  0.00    +0.000 C 
ATOM     11  C   UNL     1       0.607   9.898  18.589  0.00  0.00    +0.000 C 
ATOM     12  N   UNL     1       0.864   9.930  20.027  0.00  0.00    +0.000 N 
ATOM     13  C   UNL     1       0.866  11.075  20.839  0.00  0.00    +0.000 C 
ATOM     14  O   UNL     1       1.047  11.009  22.044  0.00  0.00    +0.000 OA
ENDROOT
BRANCH  13  15
ATOM     15  C   UNL     1       0.557  12.442  20.174  0.00  0.00    +0.000 C 
BRANCH  15  16
ATOM     16  N   UNL     1      -0.652  13.057  20.729  0.00  0.00    +0.000 N 
ATOM     17  C   UNL     1      -0.710  13.803  21.895  0.00  0.00    +0.000 C 
ATOM     18  O   UNL     1       0.154  13.938  22.731  0.00  0.00    +0.000 OA
ATOM     19  C   UNL     1      -2.116  14.395  22.001  0.00  0.00    +0.000 C 
ATOM     20  C   UNL     1      -2.816  14.226  23.367  0.00  0.00    +0.000 C 
ATOM     21  C   UNL     1      -4.313  14.545  23.333  0.00  0.00    +0.000 C 
ATOM     22  C   UNL     1      -4.909  13.570  22.620  0.00  0.00    +0.000 C 
ATOM     23  C   UNL     1      -3.816  12.673  22.098  0.00  0.00    +0.000 C 
ATOM     24  C   UNL     1      -2.988  12.700  23.401  0.00  0.00    +0.000 C 
ATOM     25  C   UNL     1      -2.935  13.457  21.097  0.00  0.00    +0.000 C 
ATOM     26  C   UNL     1      -1.896  12.618  20.396  0.00  0.00    +0.000 C 
ATOM     27  O   UNL     1      -2.169  11.634  19.706  0.00  0.00    +0.000 OA
ENDBRANCH  15  16
ENDBRANCH  13  15
TORSDOF 2
ENDMDL
MODEL 9
REMARK VINA RESULT:      -6.7      4.088      9.326
REMARK  Name = 
REMARK  3 active torsions:
REMARK  status: ('A' for Active; 'I' for Inactive)
REMARK    1  A    between atoms: C_1  and  C_2
REMARK    2  A    between atoms: C_13  and  C_15
REMARK    3  A    between atoms: C_15  and  N_16
REMARK                            x       y       z     vdW  Elec       q    Type
REMARK                         _______ _______ _______ _____ _____    ______ ____
ROOT
ATOM      1  C   UNL     1      -0.698   7.903  21.091  0.00  0.00    +0.000 C 
ATOM      2  C   UNL     1       0.581   8.752  21.009  0.00  0.00    +0.000 C 
ATOM      3  C   UNL     1       1.525   8.164  19.956  0.00  0.00    +0.000 A 
ATOM      4  C   UNL     1       2.182   6.946  20.220  0.00  0.00    +0.000 A 
ATOM      5  C   UNL     1       3.025   6.365  19.270  0.00  0.00    +0.000 A 
ATOM      6  C   UNL     1       3.219   7.002  18.050  0.00  0.00    +0.000 A 
ATOM      7  F   UNL     1       4.024   6.445  17.139  0.00  0.00    +0.000 F 
ATOM      8  C   UNL     1       2.591   8.209  17.770  0.00  0.00    +0.000 A 
ATOM      9  C   UNL     1       1.739   8.799  18.716  0.00  0.00    +0.000 A 
ATOM     10  C   UNL     1       1.131  10.146  18.426  0.00  0.00    +0.000 C 
ATOM     11  C   UNL     1      -0.048  10.468  19.341  0.00  0.00    +0.000 C 
ATOM     12  N   UNL     1       0.255  10.166  20.738  0.00  0.00    +0.000 N 
ATOM     13  C   UNL     1       0.176  11.068  21.811  0.00  0.00    +0.000 C 
ATOM     14  O   UNL     1       0.404  10.722  22.959  0.00  0.00    +0.000 OA
ENDROOT
BRANCH  13  15
ATOM     15  C   UNL     1      -0.288  12.517  21.514  0.00  0.00    +0.000 C 
BRANCH  15  16
ATOM     16  N   UNL     1      -1.618  12.788  22.065  0.00  0.00    +0.000 N 
ATOM     17  C   UNL     1      -2.811  12.695  21.365  0.00  0.00    +0.000 C 
ATOM     18  O   UNL     1      -2.960  12.546  20.174  0.00  0.00    +0.000 OA
ATOM     19  C   UNL     1      -3.954  12.888  22.363  0.00  0.00    +0.000 C 
ATOM     20  C   UNL     1      -5.050  13.892  21.943  0.00  0.00    +0.000 C 
ATOM     21  C   UNL     1      -5.990  14.286  23.085  0.00  0.00    +0.000 C 
ATOM     22  C   UNL     1      -5.276  15.036  23.945  0.00  0.00    +0.000 C 
ATOM     23  C   UNL     1      -3.856  15.055  23.440  0.00  0.00    +0.000 C 
ATOM     24  C   UNL     1      -4.245  15.199  21.953  0.00  0.00    +0.000 C 
ATOM     25  C   UNL     1      -3.258  13.630  23.517  0.00  0.00    +0.000 C 
ATOM     26  C   UNL     1      -1.791  13.553  23.177  0.00  0.00    +0.000 C 
ATOM     27  O   UNL     1      -0.918  14.177  23.783  0.00  0.00    +0.000 OA
ENDBRANCH  15  16
ENDBRANCH  13  15
TORSDOF 2
ENDMDL
