MODEL 1
REMARK VINA RESULT:      -8.0      0.000      0.000
REMARK  Name = 
REMARK  9 active torsions:
REMARK  status: ('A' for Active; 'I' for Inactive)
REMARK    1  A    between atoms: C_2  and  C_17
REMARK    2  A    between atoms: N_3  and  C_4
REMARK    3  A    between atoms: C_4  and  C_5
REMARK    4  A    between atoms: C_8  and  O_9
REMARK    5  A    between atoms: O_9  and  C_10
REMARK    6  A    between atoms: C_10  and  C_11
REMARK    7  A    between atoms: C_21  and  S_22
REMARK    8  A    between atoms: S_22  and  N_25
REMARK    9  A    between atoms: N_25  and  C_26
REMARK                            x       y       z     vdW  Elec       q    Type
REMARK                         _______ _______ _______ _____ _____    ______ ____
ROOT
ATOM      1  O   UNL     1       1.151   5.227  20.766  0.00  0.00    +0.000 OA
ATOM      2  C   UNL     1       2.043   5.755  20.112  0.00  0.00    +0.000 C 
ATOM      3  N   UNL     1       2.373   7.094  20.206  0.00  0.00    +0.000 N 
ATOM      4  H   UNL     1       2.918   7.520  19.469  0.00  0.00    +0.000 HD
ENDROOT
BRANCH   2   5
ATOM      5  C   UNL     1       2.809   4.952  19.118  0.00  0.00    +0.000 A 
ATOM      6  C   UNL     1       2.142   3.970  18.375  0.00  0.00    +0.000 A 
ATOM      7  C   UNL     1       2.825   3.230  17.402  0.00  0.00    +0.000 A 
ATOM      8  C   UNL     1       4.176   3.481  17.154  0.00  0.00    +0.000 A 
ATOM      9  C   UNL     1       4.840   4.460  17.901  0.00  0.00    +0.000 A 
ATOM     10  C   UNL     1       4.171   5.175  18.902  0.00  0.00    +0.000 A 
BRANCH   9  11
ATOM     11  S   UNL     1       6.503   4.922  17.493  0.00  0.00    +0.000 S 
ATOM     12  O   UNL     1       6.487   6.333  17.178  0.00  0.00    +0.000 OA
ATOM     13  O   UNL     1       7.392   4.400  18.514  0.00  0.00    +0.000 OA
BRANCH  11  14
ATOM     14  N   UNL     1       6.829   4.107  16.055  0.00  0.00    +0.000 NA
ATOM     15  H   UNL     1       6.599   3.118  16.163  0.00  0.00    +0.000 HD
BRANCH  14  16
ATOM     16  C   UNL     1       6.387   4.739  14.814  0.00  0.00    +0.000 C 
ATOM     17  C   UNL     1       6.115   3.905  13.594  0.00  0.00    +0.000 C 
ATOM     18  C   UNL     1       7.313   4.807  13.632  0.00  0.00    +0.000 C 
ENDBRANCH  14  16
ENDBRANCH  11  14
ENDBRANCH   9  11
ENDBRANCH   2   5
BRANCH   3  19
ATOM     19  C   UNL     1       1.588   7.983  21.032  0.00  0.00    +0.000 C 
BRANCH  19  20
ATOM     20  C   UNL     1       0.839   9.013  20.222  0.00  0.00    +0.000 A 
ATOM     21  C   UNL     1       1.100   9.182  18.854  0.00  0.00    +0.000 A 
ATOM     22  C   UNL     1       0.347  10.078  18.083  0.00  0.00    +0.000 A 
ATOM     23  C   UNL     1      -0.674  10.821  18.671  0.00  0.00    +0.000 A 
ATOM     24  C   UNL     1      -0.919  10.680  20.038  0.00  0.00    +0.000 A 
ATOM     25  C   UNL     1      -0.177   9.779  20.807  0.00  0.00    +0.000 A 
BRANCH  23  26
ATOM     26  O   UNL     1      -1.455  11.744  18.036  0.00  0.00    +0.000 OA
BRANCH  26  27
ATOM     27  C   UNL     1      -2.294  11.261  16.977  0.00  0.00    +0.000 C 
BRANCH  27  28
ATOM     28  C   UNL     1      -3.610  10.710  17.526  0.00  0.00    +0.000 C 
ATOM     29  F   UNL     1      -4.018  11.332  18.653  0.00  0.00    +0.000 F 
ATOM     30  F   UNL     1      -4.602  10.844  16.612  0.00  0.00    +0.000 F 
ATOM     31  F   UNL     1      -3.505   9.390  17.807  0.00  0.00    +0.000 F 
ENDBRANCH  27  28
ENDBRANCH  26  27
ENDBRANCH  23  26
ENDBRANCH  19  20
ENDBRANCH   3  19
TORSDOF 9
ENDMDL
MODEL 2
REMARK VINA RESULT:      -7.9      0.696      1.056
REMARK  Name = 
REMARK  9 active torsions:
REMARK  status: ('A' for Active; 'I' for Inactive)
REMARK    1  A    between atoms: C_2  and  C_17
REMARK    2  A    between atoms: N_3  and  C_4
REMARK    3  A    between atoms: C_4  and  C_5
REMARK    4  A    between atoms: C_8  and  O_9
REMARK    5  A    between atoms: O_9  and  C_10
REMARK    6  A    between atoms: C_10  and  C_11
REMARK    7  A    between atoms: C_21  and  S_22
REMARK    8  A    between atoms: S_22  and  N_25
REMARK    9  A    between atoms: N_25  and  C_26
REMARK                            x       y       z     vdW  Elec       q    Type
REMARK                         _______ _______ _______ _____ _____    ______ ____
ROOT
ATOM      1  O   UNL     1       1.338   5.072  20.341  0.00  0.00    +0.000 OA
ATOM      2  C   UNL     1       2.261   5.678  19.811  0.00  0.00    +0.000 C 
ATOM      3  N   UNL     1       2.563   7.000  20.076  0.00  0.00    +0.000 N 
ATOM      4  H   UNL     1       3.148   7.512  19.429  0.00  0.00    +0.000 HD
ENDROOT
BRANCH   2   5
ATOM      5  C   UNL     1       3.103   4.999  18.785  0.00  0.00    +0.000 A 
ATOM      6  C   UNL     1       2.675   3.778  18.251  0.00  0.00    +0.000 A 
ATOM      7  C   UNL     1       3.421   3.138  17.254  0.00  0.00    +0.000 A 
ATOM      8  C   UNL     1       4.593   3.727  16.772  0.00  0.00    +0.000 A 
ATOM      9  C   UNL     1       5.019   4.946  17.311  0.00  0.00    +0.000 A 
ATOM     10  C   UNL     1       4.297   5.569  18.336  0.00  0.00    +0.000 A 
BRANCH   9  11
ATOM     11  S   UNL     1       6.401   5.802  16.602  0.00  0.00    +0.000 S 
ATOM     12  O   UNL     1       6.241   7.203  16.920  0.00  0.00    +0.000 OA
ATOM     13  O   UNL     1       7.617   5.094  16.961  0.00  0.00    +0.000 OA
BRANCH  11  14
ATOM     14  N   UNL     1       6.186   5.652  14.938  0.00  0.00    +0.000 NA
ATOM     15  H   UNL     1       6.275   6.569  14.498  0.00  0.00    +0.000 HD
BRANCH  14  16
ATOM     16  C   UNL     1       6.873   4.548  14.273  0.00  0.00    +0.000 C 
ATOM     17  C   UNL     1       7.248   4.653  12.821  0.00  0.00    +0.000 C 
ATOM     18  C   UNL     1       6.152   3.721  13.246  0.00  0.00    +0.000 C 
ENDBRANCH  14  16
ENDBRANCH  11  14
ENDBRANCH   9  11
ENDBRANCH   2   5
BRANCH   3  19
ATOM     19  C   UNL     1       1.712   7.784  20.942  0.00  0.00    +0.000 C 
BRANCH  19  20
ATOM     20  C   UNL     1       0.950   8.850  20.195  0.00  0.00    +0.000 A 
ATOM     21  C   UNL     1       1.193   9.088  18.833  0.00  0.00    +0.000 A 
ATOM     22  C   UNL     1       0.428  10.018  18.117  0.00  0.00    +0.000 A 
ATOM     23  C   UNL     1      -0.587  10.727  18.754  0.00  0.00    +0.000 A 
ATOM     24  C   UNL     1      -0.815  10.518  20.116  0.00  0.00    +0.000 A 
ATOM     25  C   UNL     1      -0.060   9.582  20.830  0.00  0.00    +0.000 A 
BRANCH  23  26
ATOM     26  O   UNL     1      -1.380  11.678  18.176  0.00  0.00    +0.000 OA
BRANCH  26  27
ATOM     27  C   UNL     1      -2.188  11.258  17.069  0.00  0.00    +0.000 C 
BRANCH  27  28
ATOM     28  C   UNL     1      -3.531  10.705  17.547  0.00  0.00    +0.000 C 
ATOM     29  F   UNL     1      -3.483   9.394  17.868  0.00  0.00    +0.000 F 
ATOM     30  F   UNL     1      -3.957  11.373  18.648  0.00  0.00    +0.000 F 
ATOM     31  F   UNL     1      -4.485  10.856  16.598  0.00  0.00    +0.000 F 
ENDBRANCH  27  28
ENDBRANCH  26  27
ENDBRANCH  23  26
ENDBRANCH  19  20
ENDBRANCH   3  19
TORSDOF 9
ENDMDL
MODEL 3
REMARK VINA RESULT:      -7.6      1.742      2.388
REMARK  Name = 
REMARK  9 active torsions:
REMARK  status: ('A' for Active; 'I' for Inactive)
REMARK    1  A    between atoms: C_2  and  C_17
REMARK    2  A    between atoms: N_3  and  C_4
REMARK    3  A    between atoms: C_4  and  C_5
REMARK    4  A    between atoms: C_8  and  O_9
REMARK    5  A    between atoms: O_9  and  C_10
REMARK    6  A    between atoms: C_10  and  C_11
REMARK    7  A    between atoms: C_21  and  S_22
REMARK    8  A    between atoms: S_22  and  N_25
REMARK    9  A    between atoms: N_25  and  C_26
REMARK                            x       y       z     vdW  Elec       q    Type
REMARK                         _______ _______ _______ _____ _____    ______ ____
ROOT
ATOM      1  O   UNL     1       1.253   5.483  20.832  0.00  0.00    +0.000 OA
ATOM      2  C   UNL     1       2.016   6.030  20.046  0.00  0.00    +0.000 C 
ATOM      3  N   UNL     1       2.294   7.384  20.063  0.00  0.00    +0.000 N 
ATOM      4  H   UNL     1       2.707   7.813  19.247  0.00  0.00    +0.000 HD
ENDROOT
BRANCH   2   5
ATOM      5  C   UNL     1       2.668   5.234  18.968  0.00  0.00    +0.000 A 
ATOM      6  C   UNL     1       2.003   4.117  18.447  0.00  0.00    +0.000 A 
ATOM      7  C   UNL     1       2.570   3.376  17.405  0.00  0.00    +0.000 A 
ATOM      8  C   UNL     1       3.800   3.758  16.863  0.00  0.00    +0.000 A 
ATOM      9  C   UNL     1       4.464   4.872  17.389  0.00  0.00    +0.000 A 
ATOM     10  C   UNL     1       3.919   5.593  18.458  0.00  0.00    +0.000 A 
BRANCH   9  11
ATOM     11  S   UNL     1       5.936   5.485  16.612  0.00  0.00    +0.000 S 
ATOM     12  O   UNL     1       6.741   4.336  16.263  0.00  0.00    +0.000 OA
ATOM     13  O   UNL     1       5.557   6.459  15.605  0.00  0.00    +0.000 OA
BRANCH  11  14
ATOM     14  N   UNL     1       6.755   6.299  17.839  0.00  0.00    +0.000 NA
ATOM     15  H   UNL     1       7.080   5.628  18.537  0.00  0.00    +0.000 HD
BRANCH  14  16
ATOM     16  C   UNL     1       7.716   7.323  17.434  0.00  0.00    +0.000 C 
ATOM     17  C   UNL     1       8.488   8.089  18.470  0.00  0.00    +0.000 C 
ATOM     18  C   UNL     1       7.415   8.775  17.678  0.00  0.00    +0.000 C 
ENDBRANCH  14  16
ENDBRANCH  11  14
ENDBRANCH   9  11
ENDBRANCH   2   5
BRANCH   3  19
ATOM     19  C   UNL     1       1.594   8.261  20.974  0.00  0.00    +0.000 C 
BRANCH  19  20
ATOM     20  C   UNL     1       0.665   9.213  20.262  0.00  0.00    +0.000 A 
ATOM     21  C   UNL     1      -0.190  10.059  20.984  0.00  0.00    +0.000 A 
ATOM     22  C   UNL     1      -0.991  11.003  20.327  0.00  0.00    +0.000 A 
ATOM     23  C   UNL     1      -0.952  11.109  18.939  0.00  0.00    +0.000 A 
ATOM     24  C   UNL     1      -0.126  10.250  18.212  0.00  0.00    +0.000 A 
ATOM     25  C   UNL     1       0.683   9.315  18.866  0.00  0.00    +0.000 A 
BRANCH  23  26
ATOM     26  O   UNL     1      -1.703  11.964  18.183  0.00  0.00    +0.000 OA
BRANCH  26  27
ATOM     27  C   UNL     1      -2.397  11.396  17.063  0.00  0.00    +0.000 C 
BRANCH  27  28
ATOM     28  C   UNL     1      -3.723  10.772  17.497  0.00  0.00    +0.000 C 
ATOM     29  F   UNL     1      -4.676  10.831  16.542  0.00  0.00    +0.000 F 
ATOM     30  F   UNL     1      -3.554   9.465  17.816  0.00  0.00    +0.000 F 
ATOM     31  F   UNL     1      -4.213  11.389  18.599  0.00  0.00    +0.000 F 
ENDBRANCH  27  28
ENDBRANCH  26  27
ENDBRANCH  23  26
ENDBRANCH  19  20
ENDBRANCH   3  19
TORSDOF 9
ENDMDL
MODEL 4
REMARK VINA RESULT:      -7.6      2.213      3.111
REMARK  Name = 
REMARK  9 active torsions:
REMARK  status: ('A' for Active; 'I' for Inactive)
REMARK    1  A    between atoms: C_2  and  C_17
REMARK    2  A    between atoms: N_3  and  C_4
REMARK    3  A    between atoms: C_4  and  C_5
REMARK    4  A    between atoms: C_8  and  O_9
REMARK    5  A    between atoms: O_9  and  C_10
REMARK    6  A    between atoms: C_10  and  C_11
REMARK    7  A    between atoms: C_21  and  S_22
REMARK    8  A    between atoms: S_22  and  N_25
REMARK    9  A    between atoms: N_25  and  C_26
REMARK                            x       y       z     vdW  Elec       q    Type
REMARK                         _______ _______ _______ _____ _____    ______ ____
ROOT
ATOM      1  O   UNL     1       2.509   8.760  17.368  0.00  0.00    +0.000 OA
ATOM      2  C   UNL     1       2.022   8.424  18.441  0.00  0.00    +0.000 C 
ATOM      3  N   UNL     1       1.142   9.208  19.162  0.00  0.00    +0.000 N 
ATOM      4  H   UNL     1       0.987   9.004  20.140  0.00  0.00    +0.000 HD
ENDROOT
BRANCH   2   5
ATOM      5  C   UNL     1       2.407   7.123  19.056  0.00  0.00    +0.000 A 
ATOM      6  C   UNL     1       1.714   6.671  20.186  0.00  0.00    +0.000 A 
ATOM      7  C   UNL     1       2.025   5.433  20.761  0.00  0.00    +0.000 A 
ATOM      8  C   UNL     1       3.019   4.630  20.197  0.00  0.00    +0.000 A 
ATOM      9  C   UNL     1       3.712   5.086  19.070  0.00  0.00    +0.000 A 
ATOM     10  C   UNL     1       3.432   6.341  18.516  0.00  0.00    +0.000 A 
BRANCH   9  11
ATOM     11  S   UNL     1       4.853   4.021  18.229  0.00  0.00    +0.000 S 
ATOM     12  O   UNL     1       6.014   3.886  19.081  0.00  0.00    +0.000 OA
ATOM     13  O   UNL     1       4.135   2.849  17.763  0.00  0.00    +0.000 OA
BRANCH  11  14
ATOM     14  N   UNL     1       5.341   4.902  16.878  0.00  0.00    +0.000 NA
ATOM     15  H   UNL     1       5.680   5.819  17.173  0.00  0.00    +0.000 HD
BRANCH  14  16
ATOM     16  C   UNL     1       6.151   4.203  15.883  0.00  0.00    +0.000 C 
ATOM     17  C   UNL     1       6.930   4.980  14.861  0.00  0.00    +0.000 C 
ATOM     18  C   UNL     1       5.726   4.191  14.441  0.00  0.00    +0.000 C 
ENDBRANCH  14  16
ENDBRANCH  11  14
ENDBRANCH   9  11
ENDBRANCH   2   5
BRANCH   3  19
ATOM     19  C   UNL     1       0.826  10.548  18.720  0.00  0.00    +0.000 C 
BRANCH  19  20
ATOM     20  C   UNL     1      -0.630  10.711  18.364  0.00  0.00    +0.000 A 
ATOM     21  C   UNL     1      -1.241   9.866  17.425  0.00  0.00    +0.000 A 
ATOM     22  C   UNL     1      -2.614   9.961  17.156  0.00  0.00    +0.000 A 
ATOM     23  C   UNL     1      -3.393  10.906  17.818  0.00  0.00    +0.000 A 
ATOM     24  C   UNL     1      -2.786  11.771  18.732  0.00  0.00    +0.000 A 
ATOM     25  C   UNL     1      -1.420  11.670  19.010  0.00  0.00    +0.000 A 
BRANCH  23  26
ATOM     26  O   UNL     1      -4.728  11.117  17.623  0.00  0.00    +0.000 OA
BRANCH  26  27
ATOM     27  C   UNL     1      -5.412  11.887  18.621  0.00  0.00    +0.000 C 
BRANCH  27  28
ATOM     28  C   UNL     1      -6.920  11.640  18.568  0.00  0.00    +0.000 C 
ATOM     29  F   UNL     1      -7.550  12.394  17.642  0.00  0.00    +0.000 F 
ATOM     30  F   UNL     1      -7.181  10.342  18.275  0.00  0.00    +0.000 F 
ATOM     31  F   UNL     1      -7.497  11.900  19.765  0.00  0.00    +0.000 F 
ENDBRANCH  27  28
ENDBRANCH  26  27
ENDBRANCH  23  26
ENDBRANCH  19  20
ENDBRANCH   3  19
TORSDOF 9
ENDMDL
MODEL 5
REMARK VINA RESULT:      -7.5      2.577      3.475
REMARK  Name = 
REMARK  9 active torsions:
REMARK  status: ('A' for Active; 'I' for Inactive)
REMARK    1  A    between atoms: C_2  and  C_17
REMARK    2  A    between atoms: N_3  and  C_4
REMARK    3  A    between atoms: C_4  and  C_5
REMARK    4  A    between atoms: C_8  and  O_9
REMARK    5  A    between atoms: O_9  and  C_10
REMARK    6  A    between atoms: C_10  and  C_11
REMARK    7  A    between atoms: C_21  and  S_22
REMARK    8  A    between atoms: S_22  and  N_25
REMARK    9  A    between atoms: N_25  and  C_26
REMARK                            x       y       z     vdW  Elec       q    Type
REMARK                         _______ _______ _______ _____ _____    ______ ____
ROOT
ATOM      1  O   UNL     1       2.679   8.985  17.442  0.00  0.00    +0.000 OA
ATOM      2  C   UNL     1       2.067   8.530  18.401  0.00  0.00    +0.000 C 
ATOM      3  N   UNL     1       1.081   9.221  19.079  0.00  0.00    +0.000 N 
ATOM      4  H   UNL     1       0.807   8.911  20.001  0.00  0.00    +0.000 HD
ENDROOT
BRANCH   2   5
ATOM      5  C   UNL     1       2.406   7.176  18.923  0.00  0.00    +0.000 A 
ATOM      6  C   UNL     1       1.801   6.729  20.104  0.00  0.00    +0.000 A 
ATOM      7  C   UNL     1       2.066   5.445  20.595  0.00  0.00    +0.000 A 
ATOM      8  C   UNL     1       2.924   4.593  19.898  0.00  0.00    +0.000 A 
ATOM      9  C   UNL     1       3.529   5.044  18.719  0.00  0.00    +0.000 A 
ATOM     10  C   UNL     1       3.299   6.341  18.246  0.00  0.00    +0.000 A 
BRANCH   9  11
ATOM     11  S   UNL     1       4.483   3.931  17.721  0.00  0.00    +0.000 S 
ATOM     12  O   UNL     1       3.913   2.613  17.892  0.00  0.00    +0.000 OA
ATOM     13  O   UNL     1       4.633   4.509  16.398  0.00  0.00    +0.000 OA
BRANCH  11  14
ATOM     14  N   UNL     1       6.002   3.902  18.450  0.00  0.00    +0.000 NA
ATOM     15  H   UNL     1       6.288   2.934  18.605  0.00  0.00    +0.000 HD
BRANCH  14  16
ATOM     16  C   UNL     1       7.021   4.796  17.905  0.00  0.00    +0.000 C 
ATOM     17  C   UNL     1       8.085   5.366  18.800  0.00  0.00    +0.000 C 
ATOM     18  C   UNL     1       7.006   6.257  18.259  0.00  0.00    +0.000 C 
ENDBRANCH  14  16
ENDBRANCH  11  14
ENDBRANCH   9  11
ENDBRANCH   2   5
BRANCH   3  19
ATOM     19  C   UNL     1       0.788  10.595  18.741  0.00  0.00    +0.000 C 
BRANCH  19  20
ATOM     20  C   UNL     1      -0.678  10.825  18.470  0.00  0.00    +0.000 A 
ATOM     21  C   UNL     1      -1.385   9.997  17.584  0.00  0.00    +0.000 A 
ATOM     22  C   UNL     1      -2.764  10.155  17.397  0.00  0.00    +0.000 A 
ATOM     23  C   UNL     1      -3.455  11.148  18.087  0.00  0.00    +0.000 A 
ATOM     24  C   UNL     1      -2.754  11.995  18.947  0.00  0.00    +0.000 A 
ATOM     25  C   UNL     1      -1.379  11.831  19.145  0.00  0.00    +0.000 A 
BRANCH  23  26
ATOM     26  O   UNL     1      -4.788  11.421  17.969  0.00  0.00    +0.000 OA
BRANCH  26  27
ATOM     27  C   UNL     1      -5.480  11.791  19.169  0.00  0.00    +0.000 C 
BRANCH  27  28
ATOM     28  C   UNL     1      -6.910  11.249  19.169  0.00  0.00    +0.000 C 
ATOM     29  F   UNL     1      -7.401  11.045  20.411  0.00  0.00    +0.000 F 
ATOM     30  F   UNL     1      -7.747  12.111  18.542  0.00  0.00    +0.000 F 
ATOM     31  F   UNL     1      -6.983  10.071  18.506  0.00  0.00    +0.000 F 
ENDBRANCH  27  28
ENDBRANCH  26  27
ENDBRANCH  23  26
ENDBRANCH  19  20
ENDBRANCH   3  19
TORSDOF 9
ENDMDL
MODEL 6
REMARK VINA RESULT:      -7.5      1.947      2.646
REMARK  Name = 
REMARK  9 active torsions:
REMARK  status: ('A' for Active; 'I' for Inactive)
REMARK    1  A    between atoms: C_2  and  C_17
REMARK    2  A    between atoms: N_3  and  C_4
REMARK    3  A    between atoms: C_4  and  C_5
REMARK    4  A    between atoms: C_8  and  O_9
REMARK    5  A    between atoms: O_9  and  C_10
REMARK    6  A    between atoms: C_10  and  C_11
REMARK    7  A    between atoms: C_21  and  S_22
REMARK    8  A    between atoms: S_22  and  N_25
REMARK    9  A    between atoms: N_25  and  C_26
REMARK                            x       y       z     vdW  Elec       q    Type
REMARK                         _______ _______ _______ _____ _____    ______ ____
ROOT
ATOM      1  O   UNL     1       2.877   7.449  19.516  0.00  0.00    +0.000 OA
ATOM      2  C   UNL     1       2.089   6.874  20.257  0.00  0.00    +0.000 C 
ATOM      3  N   UNL     1       1.294   7.523  21.183  0.00  0.00    +0.000 N 
ATOM      4  H   UNL     1       0.874   6.990  21.932  0.00  0.00    +0.000 HD
ENDROOT
BRANCH   2   5
ATOM      5  C   UNL     1       1.985   5.388  20.221  0.00  0.00    +0.000 A 
ATOM      6  C   UNL     1       0.739   4.785  20.431  0.00  0.00    +0.000 A 
ATOM      7  C   UNL     1       0.602   3.394  20.359  0.00  0.00    +0.000 A 
ATOM      8  C   UNL     1       1.708   2.597  20.059  0.00  0.00    +0.000 A 
ATOM      9  C   UNL     1       2.953   3.202  19.853  0.00  0.00    +0.000 A 
ATOM     10  C   UNL     1       3.103   4.590  19.963  0.00  0.00    +0.000 A 
BRANCH   9  11
ATOM     11  S   UNL     1       4.335   2.238  19.300  0.00  0.00    +0.000 S 
ATOM     12  O   UNL     1       5.058   1.817  20.480  0.00  0.00    +0.000 OA
ATOM     13  O   UNL     1       3.864   1.265  18.333  0.00  0.00    +0.000 OA
BRANCH  11  14
ATOM     14  N   UNL     1       5.323   3.338  18.491  0.00  0.00    +0.000 NA
ATOM     15  H   UNL     1       6.302   3.141  18.706  0.00  0.00    +0.000 HD
BRANCH  14  16
ATOM     16  C   UNL     1       5.013   3.607  17.089  0.00  0.00    +0.000 C 
ATOM     17  C   UNL     1       5.996   4.345  16.225  0.00  0.00    +0.000 C 
ATOM     18  C   UNL     1       4.717   5.010  16.640  0.00  0.00    +0.000 C 
ENDBRANCH  14  16
ENDBRANCH  11  14
ENDBRANCH   9  11
ENDBRANCH   2   5
BRANCH   3  19
ATOM     19  C   UNL     1       1.433   8.945  21.396  0.00  0.00    +0.000 C 
BRANCH  19  20
ATOM     20  C   UNL     1       0.465   9.752  20.568  0.00  0.00    +0.000 A 
ATOM     21  C   UNL     1      -0.428  10.649  21.174  0.00  0.00    +0.000 A 
ATOM     22  C   UNL     1      -1.269  11.461  20.400  0.00  0.00    +0.000 A 
ATOM     23  C   UNL     1      -1.232  11.383  19.010  0.00  0.00    +0.000 A 
ATOM     24  C   UNL     1      -0.368  10.472  18.401  0.00  0.00    +0.000 A 
ATOM     25  C   UNL     1       0.480   9.669  19.170  0.00  0.00    +0.000 A 
BRANCH  23  26
ATOM     26  O   UNL     1      -2.019  12.096  18.151  0.00  0.00    +0.000 OA
BRANCH  26  27
ATOM     27  C   UNL     1      -2.631  11.366  17.079  0.00  0.00    +0.000 C 
BRANCH  27  28
ATOM     28  C   UNL     1      -3.940  10.720  17.532  0.00  0.00    +0.000 C 
ATOM     29  F   UNL     1      -4.457  11.287  18.643  0.00  0.00    +0.000 F 
ATOM     30  F   UNL     1      -4.880  10.813  16.558  0.00  0.00    +0.000 F 
ATOM     31  F   UNL     1      -3.768   9.402  17.792  0.00  0.00    +0.000 F 
ENDBRANCH  27  28
ENDBRANCH  26  27
ENDBRANCH  23  26
ENDBRANCH  19  20
ENDBRANCH   3  19
TORSDOF 9
ENDMDL
MODEL 7
REMARK VINA RESULT:      -7.5      1.748      2.410
REMARK  Name = 
REMARK  9 active torsions:
REMARK  status: ('A' for Active; 'I' for Inactive)
REMARK    1  A    between atoms: C_2  and  C_17
REMARK    2  A    between atoms: N_3  and  C_4
REMARK    3  A    between atoms: C_4  and  C_5
REMARK    4  A    between atoms: C_8  and  O_9
REMARK    5  A    between atoms: O_9  and  C_10
REMARK    6  A    between atoms: C_10  and  C_11
REMARK    7  A    between atoms: C_21  and  S_22
REMARK    8  A    between atoms: S_22  and  N_25
REMARK    9  A    between atoms: N_25  and  C_26
REMARK                            x       y       z     vdW  Elec       q    Type
REMARK                         _______ _______ _______ _____ _____    ______ ____
ROOT
ATOM      1  O   UNL     1       2.157   5.026  20.820  0.00  0.00    +0.000 OA
ATOM      2  C   UNL     1       2.675   5.641  19.896  0.00  0.00    +0.000 C 
ATOM      3  N   UNL     1       2.647   7.017  19.779  0.00  0.00    +0.000 N 
ATOM      4  H   UNL     1       2.850   7.441  18.884  0.00  0.00    +0.000 HD
ENDROOT
BRANCH   2   5
ATOM      5  C   UNL     1       3.345   4.896  18.792  0.00  0.00    +0.000 A 
ATOM      6  C   UNL     1       3.080   3.530  18.632  0.00  0.00    +0.000 A 
ATOM      7  C   UNL     1       3.660   2.814  17.578  0.00  0.00    +0.000 A 
ATOM      8  C   UNL     1       4.495   3.464  16.666  0.00  0.00    +0.000 A 
ATOM      9  C   UNL     1       4.760   4.829  16.832  0.00  0.00    +0.000 A 
ATOM     10  C   UNL     1       4.214   5.540  17.907  0.00  0.00    +0.000 A 
BRANCH   9  11
ATOM     11  S   UNL     1       5.671   5.719  15.598  0.00  0.00    +0.000 S 
ATOM     12  O   UNL     1       6.008   4.775  14.556  0.00  0.00    +0.000 OA
ATOM     13  O   UNL     1       4.956   6.942  15.288  0.00  0.00    +0.000 OA
BRANCH  11  14
ATOM     14  N   UNL     1       7.115   6.140  16.358  0.00  0.00    +0.000 NA
ATOM     15  H   UNL     1       7.797   6.431  15.657  0.00  0.00    +0.000 HD
BRANCH  14  16
ATOM     16  C   UNL     1       7.020   6.977  17.553  0.00  0.00    +0.000 C 
ATOM     17  C   UNL     1       8.122   7.940  17.891  0.00  0.00    +0.000 C 
ATOM     18  C   UNL     1       7.918   6.713  18.729  0.00  0.00    +0.000 C 
ENDBRANCH  14  16
ENDBRANCH  11  14
ENDBRANCH   9  11
ENDBRANCH   2   5
BRANCH   3  19
ATOM     19  C   UNL     1       1.893   7.815  20.720  0.00  0.00    +0.000 C 
BRANCH  19  20
ATOM     20  C   UNL     1       0.961   8.785  20.038  0.00  0.00    +0.000 A 
ATOM     21  C   UNL     1       0.029   9.530  20.777  0.00  0.00    +0.000 A 
ATOM     22  C   UNL     1      -0.778  10.493  20.156  0.00  0.00    +0.000 A 
ATOM     23  C   UNL     1      -0.669  10.720  18.787  0.00  0.00    +0.000 A 
ATOM     24  C   UNL     1       0.235   9.963  18.039  0.00  0.00    +0.000 A 
ATOM     25  C   UNL     1       1.049   9.009  18.658  0.00  0.00    +0.000 A 
BRANCH  23  26
ATOM     26  O   UNL     1      -1.416  11.606  18.064  0.00  0.00    +0.000 OA
BRANCH  26  27
ATOM     27  C   UNL     1      -2.813  11.682  18.381  0.00  0.00    +0.000 C 
BRANCH  27  28
ATOM     28  C   UNL     1      -3.652  10.916  17.357  0.00  0.00    +0.000 C 
ATOM     29  F   UNL     1      -4.019  11.671  16.300  0.00  0.00    +0.000 F 
ATOM     30  F   UNL     1      -2.962   9.854  16.873  0.00  0.00    +0.000 F 
ATOM     31  F   UNL     1      -4.783  10.430  17.921  0.00  0.00    +0.000 F 
ENDBRANCH  27  28
ENDBRANCH  26  27
ENDBRANCH  23  26
ENDBRANCH  19  20
ENDBRANCH   3  19
TORSDOF 9
ENDMDL
MODEL 8
REMARK VINA RESULT:      -7.5      2.352      2.566
REMARK  Name = 
REMARK  9 active torsions:
REMARK  status: ('A' for Active; 'I' for Inactive)
REMARK    1  A    between atoms: C_2  and  C_17
REMARK    2  A    between atoms: N_3  and  C_4
REMARK    3  A    between atoms: C_4  and  C_5
REMARK    4  A    between atoms: C_8  and  O_9
REMARK    5  A    between atoms: O_9  and  C_10
REMARK    6  A    between atoms: C_10  and  C_11
REMARK    7  A    between atoms: C_21  and  S_22
REMARK    8  A    between atoms: S_22  and  N_25
REMARK    9  A    between atoms: N_25  and  C_26
REMARK                            x       y       z     vdW  Elec       q    Type
REMARK                         _______ _______ _______ _____ _____    ______ ____
ROOT
ATOM      1  O   UNL     1       2.122   4.906  21.045  0.00  0.00    +0.000 OA
ATOM      2  C   UNL     1       2.506   5.623  20.129  0.00  0.00    +0.000 C 
ATOM      3  N   UNL     1       2.294   6.987  20.082  0.00  0.00    +0.000 N 
ATOM      4  H   UNL     1       2.392   7.472  19.200  0.00  0.00    +0.000 HD
ENDROOT
BRANCH   2   5
ATOM      5  C   UNL     1       3.206   5.021  18.959  0.00  0.00    +0.000 A 
ATOM      6  C   UNL     1       2.557   4.032  18.210  0.00  0.00    +0.000 A 
ATOM      7  C   UNL     1       3.172   3.479  17.081  0.00  0.00    +0.000 A 
ATOM      8  C   UNL     1       4.434   3.925  16.682  0.00  0.00    +0.000 A 
ATOM      9  C   UNL     1       5.081   4.911  17.436  0.00  0.00    +0.000 A 
ATOM     10  C   UNL     1       4.487   5.438  18.589  0.00  0.00    +0.000 A 
BRANCH   9  11
ATOM     11  S   UNL     1       6.601   5.621  16.861  0.00  0.00    +0.000 S 
ATOM     12  O   UNL     1       6.650   6.979  17.358  0.00  0.00    +0.000 OA
ATOM     13  O   UNL     1       7.680   4.691  17.137  0.00  0.00    +0.000 OA
BRANCH  11  14
ATOM     14  N   UNL     1       6.418   5.721  15.189  0.00  0.00    +0.000 NA
ATOM     15  H   UNL     1       6.585   6.681  14.884  0.00  0.00    +0.000 HD
BRANCH  14  16
ATOM     16  C   UNL     1       7.041   4.672  14.385  0.00  0.00    +0.000 C 
ATOM     17  C   UNL     1       7.282   4.885  12.918  0.00  0.00    +0.000 C 
ATOM     18  C   UNL     1       6.228   3.918  13.371  0.00  0.00    +0.000 C 
ENDBRANCH  14  16
ENDBRANCH  11  14
ENDBRANCH   9  11
ENDBRANCH   2   5
BRANCH   3  19
ATOM     19  C   UNL     1       1.494   7.637  21.095  0.00  0.00    +0.000 C 
BRANCH  19  20
ATOM     20  C   UNL     1       0.879   8.925  20.608  0.00  0.00    +0.000 A 
ATOM     21  C   UNL     1       1.105   9.382  19.301  0.00  0.00    +0.000 A 
ATOM     22  C   UNL     1       0.466  10.533  18.819  0.00  0.00    +0.000 A 
ATOM     23  C   UNL     1      -0.405  11.245  19.640  0.00  0.00    +0.000 A 
ATOM     24  C   UNL     1      -0.612  10.814  20.952  0.00  0.00    +0.000 A 
ATOM     25  C   UNL     1       0.016   9.660  21.431  0.00  0.00    +0.000 A 
BRANCH  23  26
ATOM     26  O   UNL     1      -1.062  12.393  19.299  0.00  0.00    +0.000 OA
BRANCH  26  27
ATOM     27  C   UNL     1      -0.475  13.189  18.261  0.00  0.00    +0.000 C 
BRANCH  27  28
ATOM     28  C   UNL     1       0.316  14.359  18.846  0.00  0.00    +0.000 C 
ATOM     29  F   UNL     1       1.593  14.410  18.408  0.00  0.00    +0.000 F 
ATOM     30  F   UNL     1      -0.267  15.539  18.522  0.00  0.00    +0.000 F 
ATOM     31  F   UNL     1       0.354  14.293  20.198  0.00  0.00    +0.000 F 
ENDBRANCH  27  28
ENDBRANCH  26  27
ENDBRANCH  23  26
ENDBRANCH  19  20
ENDBRANCH   3  19
TORSDOF 9
ENDMDL
MODEL 9
REMARK VINA RESULT:      -7.4      4.864     10.267
REMARK  Name = 
REMARK  9 active torsions:
REMARK  status: ('A' for Active; 'I' for Inactive)
REMARK    1  A    between atoms: C_2  and  C_17
REMARK    2  A    between atoms: N_3  and  C_4
REMARK    3  A    between atoms: C_4  and  C_5
REMARK    4  A    between atoms: C_8  and  O_9
REMARK    5  A    between atoms: O_9  and  C_10
REMARK    6  A    between atoms: C_10  and  C_11
REMARK    7  A    between atoms: C_21  and  S_22
REMARK    8  A    between atoms: S_22  and  N_25
REMARK    9  A    between atoms: N_25  and  C_26
REMARK                            x       y       z     vdW  Elec       q    Type
REMARK                         _______ _______ _______ _____ _____    ______ ____
ROOT
ATOM      1  O   UNL     1      -1.016  10.263  19.671  0.00  0.00    +0.000 OA
ATOM      2  C   UNL     1      -0.887  10.286  18.452  0.00  0.00    +0.000 C 
ATOM      3  N   UNL     1       0.325  10.134  17.806  0.00  0.00    +0.000 N 
ATOM      4  H   UNL     1       0.409  10.424  16.841  0.00  0.00    +0.000 HD
ENDROOT
BRANCH   2   5
ATOM      5  C   UNL     1      -2.074  10.533  17.585  0.00  0.00    +0.000 A 
ATOM      6  C   UNL     1      -2.109   9.975  16.302  0.00  0.00    +0.000 A 
ATOM      7  C   UNL     1      -3.229  10.153  15.481  0.00  0.00    +0.000 A 
ATOM      8  C   UNL     1      -4.329  10.877  15.946  0.00  0.00    +0.000 A 
ATOM      9  C   UNL     1      -4.289  11.436  17.229  0.00  0.00    +0.000 A 
ATOM     10  C   UNL     1      -3.155  11.294  18.037  0.00  0.00    +0.000 A 
BRANCH   9  11
ATOM     11  S   UNL     1      -5.731  12.209  17.913  0.00  0.00    +0.000 S 
ATOM     12  O   UNL     1      -6.253  13.103  16.903  0.00  0.00    +0.000 OA
ATOM     13  O   UNL     1      -6.571  11.182  18.500  0.00  0.00    +0.000 OA
BRANCH  11  14
ATOM     14  N   UNL     1      -5.143  13.175  19.162  0.00  0.00    +0.000 NA
ATOM     15  H   UNL     1      -4.269  13.615  18.871  0.00  0.00    +0.000 HD
BRANCH  14  16
ATOM     16  C   UNL     1      -6.103  14.040  19.845  0.00  0.00    +0.000 C 
ATOM     17  C   UNL     1      -6.309  15.455  19.385  0.00  0.00    +0.000 C 
ATOM     18  C   UNL     1      -5.618  15.185  20.688  0.00  0.00    +0.000 C 
ENDBRANCH  14  16
ENDBRANCH  11  14
ENDBRANCH   9  11
ENDBRANCH   2   5
BRANCH   3  19
ATOM     19  C   UNL     1       1.551  10.040  18.566  0.00  0.00    +0.000 C 
BRANCH  19  20
ATOM     20  C   UNL     1       1.994   8.614  18.774  0.00  0.00    +0.000 A 
ATOM     21  C   UNL     1       2.726   7.936  17.787  0.00  0.00    +0.000 A 
ATOM     22  C   UNL     1       3.212   6.641  18.013  0.00  0.00    +0.000 A 
ATOM     23  C   UNL     1       2.968   6.004  19.227  0.00  0.00    +0.000 A 
ATOM     24  C   UNL     1       2.215   6.660  20.202  0.00  0.00    +0.000 A 
ATOM     25  C   UNL     1       1.739   7.957  19.983  0.00  0.00    +0.000 A 
BRANCH  23  26
ATOM     26  O   UNL     1       3.360   4.737  19.556  0.00  0.00    +0.000 OA
BRANCH  26  27
ATOM     27  C   UNL     1       3.171   3.724  18.559  0.00  0.00    +0.000 C 
BRANCH  27  28
ATOM     28  C   UNL     1       1.694   3.349  18.429  0.00  0.00    +0.000 C 
ATOM     29  F   UNL     1       1.503   2.076  18.022  0.00  0.00    +0.000 F 
ATOM     30  F   UNL     1       1.060   3.491  19.619  0.00  0.00    +0.000 F 
ATOM     31  F   UNL     1       1.064   4.157  17.544  0.00  0.00    +0.000 F 
ENDBRANCH  27  28
ENDBRANCH  26  27
ENDBRANCH  23  26
ENDBRANCH  19  20
ENDBRANCH   3  19
TORSDOF 9
ENDMDL
