MODEL 1
REMARK VINA RESULT:      -8.5      0.000      0.000
REMARK  Name = 
REMARK  6 active torsions:
REMARK  status: ('A' for Active; 'I' for Inactive)
REMARK    1  A    between atoms: C_1  and  O_2
REMARK    2  A    between atoms: O_2  and  C_3
REMARK    3  A    between atoms: C_7  and  S_8
REMARK    4  A    between atoms: S_8  and  N_11
REMARK    5  A    between atoms: N_11  and  C_12
REMARK    6  A    between atoms: C_16  and  C_17
REMARK                            x       y       z     vdW  Elec       q    Type
REMARK                         _______ _______ _______ _____ _____    ______ ____
ROOT
ATOM      1  C   UNL     1       2.680   6.766  19.506  0.00  0.00    +0.000 A 
ATOM      2  C   UNL     1       3.054   7.066  18.198  0.00  0.00    +0.000 A 
ATOM      3  C   UNL     1       2.624   8.256  17.610  0.00  0.00    +0.000 A 
ATOM      4  C   UNL     1       1.806   9.139  18.322  0.00  0.00    +0.000 A 
ATOM      5  C   UNL     1       1.406   8.831  19.629  0.00  0.00    +0.000 A 
ATOM      6  C   UNL     1       1.861   7.640  20.218  0.00  0.00    +0.000 A 
ENDROOT
BRANCH   5   7
ATOM      7  C   UNL     1       0.469   9.666  20.359  0.00  0.00    +0.000 A 
ATOM      8  C   UNL     1       0.248   9.677  21.719  0.00  0.00    +0.000 A 
ATOM      9  N   UNL     1      -0.692  10.653  21.921  0.00  0.00    +0.000 N 
ATOM     10  C   UNL     1      -1.287  11.087  23.098  0.00  0.00    +0.000 A 
ATOM     11  C   UNL     1      -2.197  12.070  23.045  0.00  0.00    +0.000 A 
ATOM     12  C   UNL     1      -2.467  12.606  21.680  0.00  0.00    +0.000 A 
ATOM     13  N   UNL     1      -1.920  12.212  20.572  0.00  0.00    +0.000 NA
ATOM     14  C   UNL     1      -1.007  11.204  20.681  0.00  0.00    +0.000 A 
ATOM     15  N   UNL     1      -0.319  10.605  19.732  0.00  0.00    +0.000 NA
ENDBRANCH   5   7
BRANCH   1  16
ATOM     16  N   UNL     1       3.016   5.514  20.073  0.00  0.00    +0.000 N 
ATOM     17  H   UNL     1       3.428   5.474  21.001  0.00  0.00    +0.000 HD
BRANCH  16  18
ATOM     18  S   UNL     1       2.963   4.085  19.210  0.00  0.00    +0.000 S 
ATOM     19  O   UNL     1       1.779   4.090  18.371  0.00  0.00    +0.000 OA
ATOM     20  O   UNL     1       3.180   3.027  20.172  0.00  0.00    +0.000 OA
BRANCH  18  25
ATOM     21  C   UNL     1       6.750   4.618  17.905  0.00  0.00    +0.000 A 
ATOM     22  C   UNL     1       6.665   4.264  16.557  0.00  0.00    +0.000 A 
ATOM     23  C   UNL     1       5.436   3.884  16.003  0.00  0.00    +0.000 A 
ATOM     24  C   UNL     1       4.289   3.835  16.800  0.00  0.00    +0.000 A 
ATOM     25  C   UNL     1       4.386   4.159  18.157  0.00  0.00    +0.000 A 
ATOM     26  C   UNL     1       5.603   4.583  18.696  0.00  0.00    +0.000 A 
BRANCH  21  28
ATOM     27  C   UNL     1       8.020   6.391  18.849  0.00  0.00    +0.000 C 
ATOM     28  O   UNL     1       7.880   5.005  18.570  0.00  0.00    +0.000 OA
ENDBRANCH  21  28
ENDBRANCH  18  25
ENDBRANCH  16  18
ENDBRANCH   1  16
TORSDOF 5
ENDMDL
MODEL 2
REMARK VINA RESULT:      -8.4      1.014      1.664
REMARK  Name = 
REMARK  6 active torsions:
REMARK  status: ('A' for Active; 'I' for Inactive)
REMARK    1  A    between atoms: C_1  and  O_2
REMARK    2  A    between atoms: O_2  and  C_3
REMARK    3  A    between atoms: C_7  and  S_8
REMARK    4  A    between atoms: S_8  and  N_11
REMARK    5  A    between atoms: N_11  and  C_12
REMARK    6  A    between atoms: C_16  and  C_17
REMARK                            x       y       z     vdW  Elec       q    Type
REMARK                         _______ _______ _______ _____ _____    ______ ____
ROOT
ATOM      1  C   UNL     1       2.782   6.746  19.516  0.00  0.00    +0.000 A 
ATOM      2  C   UNL     1       3.071   6.993  18.176  0.00  0.00    +0.000 A 
ATOM      3  C   UNL     1       2.560   8.134  17.555  0.00  0.00    +0.000 A 
ATOM      4  C   UNL     1       1.744   9.018  18.268  0.00  0.00    +0.000 A 
ATOM      5  C   UNL     1       1.428   8.762  19.609  0.00  0.00    +0.000 A 
ATOM      6  C   UNL     1       1.965   7.623  20.229  0.00  0.00    +0.000 A 
ENDROOT
BRANCH   5   7
ATOM      7  C   UNL     1       0.497   9.596  20.348  0.00  0.00    +0.000 A 
ATOM      8  C   UNL     1       0.272   9.589  21.707  0.00  0.00    +0.000 A 
ATOM      9  N   UNL     1      -0.659  10.571  21.921  0.00  0.00    +0.000 N 
ATOM     10  C   UNL     1      -1.253  10.994  23.102  0.00  0.00    +0.000 A 
ATOM     11  C   UNL     1      -2.154  11.986  23.061  0.00  0.00    +0.000 A 
ATOM     12  C   UNL     1      -2.416  12.543  21.703  0.00  0.00    +0.000 A 
ATOM     13  N   UNL     1      -1.870  12.160  20.591  0.00  0.00    +0.000 NA
ATOM     14  C   UNL     1      -0.966  11.141  20.688  0.00  0.00    +0.000 A 
ATOM     15  N   UNL     1      -0.281  10.550  19.733  0.00  0.00    +0.000 NA
ENDBRANCH   5   7
BRANCH   1  16
ATOM     16  N   UNL     1       3.202   5.540  20.124  0.00  0.00    +0.000 N 
ATOM     17  H   UNL     1       3.532   5.548  21.086  0.00  0.00    +0.000 HD
BRANCH  16  18
ATOM     18  S   UNL     1       3.382   4.113  19.277  0.00  0.00    +0.000 S 
ATOM     19  O   UNL     1       2.284   3.986  18.336  0.00  0.00    +0.000 OA
ATOM     20  O   UNL     1       3.628   3.087  20.265  0.00  0.00    +0.000 OA
BRANCH  18  25
ATOM     21  C   UNL     1       6.066   4.111  16.256  0.00  0.00    +0.000 A 
ATOM     22  C   UNL     1       7.187   4.705  16.838  0.00  0.00    +0.000 A 
ATOM     23  C   UNL     1       7.162   5.092  18.184  0.00  0.00    +0.000 A 
ATOM     24  C   UNL     1       6.007   4.907  18.949  0.00  0.00    +0.000 A 
ATOM     25  C   UNL     1       4.876   4.342  18.352  0.00  0.00    +0.000 A 
ATOM     26  C   UNL     1       4.919   3.914  17.023  0.00  0.00    +0.000 A 
BRANCH  21  28
ATOM     27  C   UNL     1       6.623   4.459  13.972  0.00  0.00    +0.000 C 
ATOM     28  O   UNL     1       5.955   3.688  14.960  0.00  0.00    +0.000 OA
ENDBRANCH  21  28
ENDBRANCH  18  25
ENDBRANCH  16  18
ENDBRANCH   1  16
TORSDOF 5
ENDMDL
MODEL 3
REMARK VINA RESULT:      -8.4      1.096      2.009
REMARK  Name = 
REMARK  6 active torsions:
REMARK  status: ('A' for Active; 'I' for Inactive)
REMARK    1  A    between atoms: C_1  and  O_2
REMARK    2  A    between atoms: O_2  and  C_3
REMARK    3  A    between atoms: C_7  and  S_8
REMARK    4  A    between atoms: S_8  and  N_11
REMARK    5  A    between atoms: N_11  and  C_12
REMARK    6  A    between atoms: C_16  and  C_17
REMARK                            x       y       z     vdW  Elec       q    Type
REMARK                         _______ _______ _______ _____ _____    ______ ____
ROOT
ATOM      1  C   UNL     1       2.585   6.951  19.568  0.00  0.00    +0.000 A 
ATOM      2  C   UNL     1       2.880   7.173  18.225  0.00  0.00    +0.000 A 
ATOM      3  C   UNL     1       2.403   8.322  17.591  0.00  0.00    +0.000 A 
ATOM      4  C   UNL     1       1.615   9.239  18.294  0.00  0.00    +0.000 A 
ATOM      5  C   UNL     1       1.294   9.008  19.639  0.00  0.00    +0.000 A 
ATOM      6  C   UNL     1       1.796   7.860  20.271  0.00  0.00    +0.000 A 
ENDROOT
BRANCH   5   7
ATOM      7  C   UNL     1       0.389   9.878  20.369  0.00  0.00    +0.000 A 
ATOM      8  C   UNL     1      -0.468  10.819  19.841  0.00  0.00    +0.000 A 
ATOM      9  N   UNL     1      -1.129  11.346  20.920  0.00  0.00    +0.000 N 
ATOM     10  C   UNL     1      -2.101  12.335  20.972  0.00  0.00    +0.000 A 
ATOM     11  C   UNL     1      -2.605  12.692  22.162  0.00  0.00    +0.000 A 
ATOM     12  C   UNL     1      -2.046  11.953  23.331  0.00  0.00    +0.000 A 
ATOM     13  N   UNL     1      -1.139  11.026  23.298  0.00  0.00    +0.000 NA
ATOM     14  C   UNL     1      -0.654  10.707  22.063  0.00  0.00    +0.000 A 
ATOM     15  N   UNL     1       0.271   9.828  21.739  0.00  0.00    +0.000 NA
ENDBRANCH   5   7
BRANCH   1  16
ATOM     16  N   UNL     1       2.968   5.739  20.189  0.00  0.00    +0.000 N 
ATOM     17  H   UNL     1       3.253   5.740  21.165  0.00  0.00    +0.000 HD
BRANCH  16  18
ATOM     18  S   UNL     1       3.178   4.315  19.344  0.00  0.00    +0.000 S 
ATOM     19  O   UNL     1       2.163   4.231  18.310  0.00  0.00    +0.000 OA
ATOM     20  O   UNL     1       3.304   3.272  20.339  0.00  0.00    +0.000 OA
BRANCH  18  25
ATOM     21  C   UNL     1       6.148   4.146  16.610  0.00  0.00    +0.000 A 
ATOM     22  C   UNL     1       7.199   4.800  17.255  0.00  0.00    +0.000 A 
ATOM     23  C   UNL     1       7.037   5.282  18.560  0.00  0.00    +0.000 A 
ATOM     24  C   UNL     1       5.814   5.131  19.219  0.00  0.00    +0.000 A 
ATOM     25  C   UNL     1       4.754   4.504  18.556  0.00  0.00    +0.000 A 
ATOM     26  C   UNL     1       4.932   3.983  17.272  0.00  0.00    +0.000 A 
BRANCH  21  28
ATOM     27  C   UNL     1       5.584   4.418  14.317  0.00  0.00    +0.000 C 
ATOM     28  O   UNL     1       6.171   3.631  15.343  0.00  0.00    +0.000 OA
ENDBRANCH  21  28
ENDBRANCH  18  25
ENDBRANCH  16  18
ENDBRANCH   1  16
TORSDOF 5
ENDMDL
MODEL 4
REMARK VINA RESULT:      -8.3      0.790      1.273
REMARK  Name = 
REMARK  6 active torsions:
REMARK  status: ('A' for Active; 'I' for Inactive)
REMARK    1  A    between atoms: C_1  and  O_2
REMARK    2  A    between atoms: O_2  and  C_3
REMARK    3  A    between atoms: C_7  and  S_8
REMARK    4  A    between atoms: S_8  and  N_11
REMARK    5  A    between atoms: N_11  and  C_12
REMARK    6  A    between atoms: C_16  and  C_17
REMARK                            x       y       z     vdW  Elec       q    Type
REMARK                         _______ _______ _______ _____ _____    ______ ____
ROOT
ATOM      1  C   UNL     1       2.296   7.205  19.648  0.00  0.00    +0.000 A 
ATOM      2  C   UNL     1       2.590   7.373  18.297  0.00  0.00    +0.000 A 
ATOM      3  C   UNL     1       2.143   8.512  17.626  0.00  0.00    +0.000 A 
ATOM      4  C   UNL     1       1.387   9.475  18.301  0.00  0.00    +0.000 A 
ATOM      5  C   UNL     1       1.066   9.301  19.653  0.00  0.00    +0.000 A 
ATOM      6  C   UNL     1       1.538   8.160  20.323  0.00  0.00    +0.000 A 
ENDROOT
BRANCH   5   7
ATOM      7  C   UNL     1       0.191  10.221  20.357  0.00  0.00    +0.000 A 
ATOM      8  C   UNL     1      -0.680  11.131  19.800  0.00  0.00    +0.000 A 
ATOM      9  N   UNL     1      -1.301  11.731  20.865  0.00  0.00    +0.000 N 
ATOM     10  C   UNL     1      -2.267  12.728  20.887  0.00  0.00    +0.000 A 
ATOM     11  C   UNL     1      -2.728  13.163  22.068  0.00  0.00    +0.000 A 
ATOM     12  C   UNL     1      -2.132  12.496  23.262  0.00  0.00    +0.000 A 
ATOM     13  N   UNL     1      -1.230  11.564  23.257  0.00  0.00    +0.000 NA
ATOM     14  C   UNL     1      -0.790  11.164  22.029  0.00  0.00    +0.000 A 
ATOM     15  N   UNL     1       0.119  10.260  21.731  0.00  0.00    +0.000 NA
ENDBRANCH   5   7
BRANCH   1  16
ATOM     16  N   UNL     1       2.648   6.005  20.310  0.00  0.00    +0.000 N 
ATOM     17  H   UNL     1       3.082   6.043  21.228  0.00  0.00    +0.000 HD
BRANCH  16  18
ATOM     18  S   UNL     1       2.575   4.510  19.572  0.00  0.00    +0.000 S 
ATOM     19  O   UNL     1       1.383   4.453  18.745  0.00  0.00    +0.000 OA
ATOM     20  O   UNL     1       2.793   3.534  20.617  0.00  0.00    +0.000 OA
BRANCH  18  25
ATOM     21  C   UNL     1       6.377   4.770  18.228  0.00  0.00    +0.000 A 
ATOM     22  C   UNL     1       6.253   4.425  16.881  0.00  0.00    +0.000 A 
ATOM     23  C   UNL     1       4.994   4.135  16.339  0.00  0.00    +0.000 A 
ATOM     24  C   UNL     1       3.855   4.168  17.148  0.00  0.00    +0.000 A 
ATOM     25  C   UNL     1       3.989   4.482  18.504  0.00  0.00    +0.000 A 
ATOM     26  C   UNL     1       5.239   4.816  19.031  0.00  0.00    +0.000 A 
BRANCH  21  28
ATOM     27  C   UNL     1       8.007   6.411  18.775  0.00  0.00    +0.000 C 
ATOM     28  O   UNL     1       7.539   5.074  18.882  0.00  0.00    +0.000 OA
ENDBRANCH  21  28
ENDBRANCH  18  25
ENDBRANCH  16  18
ENDBRANCH   1  16
TORSDOF 5
ENDMDL
MODEL 5
REMARK VINA RESULT:      -8.3      3.106      4.998
REMARK  Name = 
REMARK  6 active torsions:
REMARK  status: ('A' for Active; 'I' for Inactive)
REMARK    1  A    between atoms: C_1  and  O_2
REMARK    2  A    between atoms: O_2  and  C_3
REMARK    3  A    between atoms: C_7  and  S_8
REMARK    4  A    between atoms: S_8  and  N_11
REMARK    5  A    between atoms: N_11  and  C_12
REMARK    6  A    between atoms: C_16  and  C_17
REMARK                            x       y       z     vdW  Elec       q    Type
REMARK                         _______ _______ _______ _____ _____    ______ ____
ROOT
ATOM      1  C   UNL     1       4.509   4.056  17.647  0.00  0.00    +0.000 A 
ATOM      2  C   UNL     1       4.469   3.113  18.671  0.00  0.00    +0.000 A 
ATOM      3  C   UNL     1       3.720   3.369  19.821  0.00  0.00    +0.000 A 
ATOM      4  C   UNL     1       3.028   4.577  19.956  0.00  0.00    +0.000 A 
ATOM      5  C   UNL     1       3.085   5.540  18.940  0.00  0.00    +0.000 A 
ATOM      6  C   UNL     1       3.824   5.263  17.779  0.00  0.00    +0.000 A 
ENDROOT
BRANCH   5   7
ATOM      7  C   UNL     1       2.471   6.848  19.091  0.00  0.00    +0.000 A 
ATOM      8  C   UNL     1       1.876   7.362  20.222  0.00  0.00    +0.000 A 
ATOM      9  N   UNL     1       1.488   8.631  19.877  0.00  0.00    +0.000 N 
ATOM     10  C   UNL     1       0.836   9.598  20.629  0.00  0.00    +0.000 A 
ATOM     11  C   UNL     1       0.553  10.781  20.066  0.00  0.00    +0.000 A 
ATOM     12  C   UNL     1       0.996  10.927  18.649  0.00  0.00    +0.000 A 
ATOM     13  N   UNL     1       1.607  10.034  17.934  0.00  0.00    +0.000 NA
ATOM     14  C   UNL     1       1.862   8.844  18.553  0.00  0.00    +0.000 A 
ATOM     15  N   UNL     1       2.446   7.768  18.069  0.00  0.00    +0.000 NA
ENDBRANCH   5   7
BRANCH   1  16
ATOM     16  N   UNL     1       5.351   3.856  16.527  0.00  0.00    +0.000 N 
ATOM     17  H   UNL     1       5.273   3.000  15.984  0.00  0.00    +0.000 HD
BRANCH  16  18
ATOM     18  S   UNL     1       6.625   4.870  16.161  0.00  0.00    +0.000 S 
ATOM     19  O   UNL     1       7.820   4.376  16.821  0.00  0.00    +0.000 OA
ATOM     20  O   UNL     1       6.151   6.214  16.403  0.00  0.00    +0.000 OA
BRANCH  18  25
ATOM     21  C   UNL     1       6.214   3.560  12.360  0.00  0.00    +0.000 A 
ATOM     22  C   UNL     1       7.118   4.360  11.658  0.00  0.00    +0.000 A 
ATOM     23  C   UNL     1       7.903   5.301  12.336  0.00  0.00    +0.000 A 
ATOM     24  C   UNL     1       7.773   5.461  13.719  0.00  0.00    +0.000 A 
ATOM     25  C   UNL     1       6.843   4.681  14.412  0.00  0.00    +0.000 A 
ATOM     26  C   UNL     1       6.094   3.711  13.741  0.00  0.00    +0.000 A 
BRANCH  21  28
ATOM     27  C   UNL     1       4.169   3.060  11.257  0.00  0.00    +0.000 C 
ATOM     28  O   UNL     1       5.390   2.609  11.825  0.00  0.00    +0.000 OA
ENDBRANCH  21  28
ENDBRANCH  18  25
ENDBRANCH  16  18
ENDBRANCH   1  16
TORSDOF 5
ENDMDL
MODEL 6
REMARK VINA RESULT:      -8.3      2.703      4.224
REMARK  Name = 
REMARK  6 active torsions:
REMARK  status: ('A' for Active; 'I' for Inactive)
REMARK    1  A    between atoms: C_1  and  O_2
REMARK    2  A    between atoms: O_2  and  C_3
REMARK    3  A    between atoms: C_7  and  S_8
REMARK    4  A    between atoms: S_8  and  N_11
REMARK    5  A    between atoms: N_11  and  C_12
REMARK    6  A    between atoms: C_16  and  C_17
REMARK                            x       y       z     vdW  Elec       q    Type
REMARK                         _______ _______ _______ _____ _____    ______ ____
ROOT
ATOM      1  C   UNL     1       4.148   4.144  17.466  0.00  0.00    +0.000 A 
ATOM      2  C   UNL     1       4.316   3.283  18.547  0.00  0.00    +0.000 A 
ATOM      3  C   UNL     1       3.819   3.639  19.802  0.00  0.00    +0.000 A 
ATOM      4  C   UNL     1       3.171   4.865  19.980  0.00  0.00    +0.000 A 
ATOM      5  C   UNL     1       3.021   5.748  18.902  0.00  0.00    +0.000 A 
ATOM      6  C   UNL     1       3.507   5.370  17.640  0.00  0.00    +0.000 A 
ENDROOT
BRANCH   5   7
ATOM      7  C   UNL     1       2.454   7.074  19.072  0.00  0.00    +0.000 A 
ATOM      8  C   UNL     1       2.334   8.057  18.114  0.00  0.00    +0.000 A 
ATOM      9  N   UNL     1       1.707   9.098  18.747  0.00  0.00    +0.000 N 
ATOM     10  C   UNL     1       1.341  10.345  18.259  0.00  0.00    +0.000 A 
ATOM     11  C   UNL     1       0.732  11.213  19.080  0.00  0.00    +0.000 A 
ATOM     12  C   UNL     1       0.506  10.716  20.468  0.00  0.00    +0.000 A 
ATOM     13  N   UNL     1       0.841   9.554  20.938  0.00  0.00    +0.000 NA
ATOM     14  C   UNL     1       1.465   8.713  20.063  0.00  0.00    +0.000 A 
ATOM     15  N   UNL     1       1.923   7.496  20.269  0.00  0.00    +0.000 NA
ENDBRANCH   5   7
BRANCH   1  16
ATOM     16  N   UNL     1       4.743   3.844  16.218  0.00  0.00    +0.000 N 
ATOM     17  H   UNL     1       4.608   2.927  15.801  0.00  0.00    +0.000 HD
BRANCH  16  18
ATOM     18  S   UNL     1       5.840   4.858  15.471  0.00  0.00    +0.000 S 
ATOM     19  O   UNL     1       5.114   5.921  14.801  0.00  0.00    +0.000 OA
ATOM     20  O   UNL     1       6.740   4.000  14.732  0.00  0.00    +0.000 OA
BRANCH  18  25
ATOM     21  C   UNL     1       7.601   7.558  17.907  0.00  0.00    +0.000 A 
ATOM     22  C   UNL     1       8.151   6.757  18.909  0.00  0.00    +0.000 A 
ATOM     23  C   UNL     1       8.026   5.364  18.848  0.00  0.00    +0.000 A 
ATOM     24  C   UNL     1       7.331   4.765  17.795  0.00  0.00    +0.000 A 
ATOM     25  C   UNL     1       6.753   5.573  16.810  0.00  0.00    +0.000 A 
ATOM     26  C   UNL     1       6.919   6.960  16.849  0.00  0.00    +0.000 A 
BRANCH  21  28
ATOM     27  C   UNL     1       8.755   9.559  18.466  0.00  0.00    +0.000 C 
ATOM     28  O   UNL     1       7.648   8.923  17.844  0.00  0.00    +0.000 OA
ENDBRANCH  21  28
ENDBRANCH  18  25
ENDBRANCH  16  18
ENDBRANCH   1  16
TORSDOF 5
ENDMDL
MODEL 7
REMARK VINA RESULT:      -8.3      2.872      4.111
REMARK  Name = 
REMARK  6 active torsions:
REMARK  status: ('A' for Active; 'I' for Inactive)
REMARK    1  A    between atoms: C_1  and  O_2
REMARK    2  A    between atoms: O_2  and  C_3
REMARK    3  A    between atoms: C_7  and  S_8
REMARK    4  A    between atoms: S_8  and  N_11
REMARK    5  A    between atoms: N_11  and  C_12
REMARK    6  A    between atoms: C_16  and  C_17
REMARK                            x       y       z     vdW  Elec       q    Type
REMARK                         _______ _______ _______ _____ _____    ______ ____
ROOT
ATOM      1  C   UNL     1       4.169   4.322  17.409  0.00  0.00    +0.000 A 
ATOM      2  C   UNL     1       4.404   3.464  18.481  0.00  0.00    +0.000 A 
ATOM      3  C   UNL     1       3.930   3.795  19.751  0.00  0.00    +0.000 A 
ATOM      4  C   UNL     1       3.237   4.993  19.954  0.00  0.00    +0.000 A 
ATOM      5  C   UNL     1       3.020   5.873  18.886  0.00  0.00    +0.000 A 
ATOM      6  C   UNL     1       3.484   5.520  17.608  0.00  0.00    +0.000 A 
ENDROOT
BRANCH   5   7
ATOM      7  C   UNL     1       2.404   7.173  19.079  0.00  0.00    +0.000 A 
ATOM      8  C   UNL     1       1.745   7.624  20.202  0.00  0.00    +0.000 A 
ATOM      9  N   UNL     1       1.383   8.913  19.911  0.00  0.00    +0.000 N 
ATOM     10  C   UNL     1       0.691   9.839  20.681  0.00  0.00    +0.000 A 
ATOM     11  C   UNL     1       0.448  11.056  20.174  0.00  0.00    +0.000 A 
ATOM     12  C   UNL     1       0.975  11.283  18.798  0.00  0.00    +0.000 A 
ATOM     13  N   UNL     1       1.623  10.429  18.067  0.00  0.00    +0.000 NA
ATOM     14  C   UNL     1       1.837   9.203  18.627  0.00  0.00    +0.000 A 
ATOM     15  N   UNL     1       2.444   8.154  18.114  0.00  0.00    +0.000 NA
ENDBRANCH   5   7
BRANCH   1  16
ATOM     16  N   UNL     1       4.739   4.053  16.143  0.00  0.00    +0.000 N 
ATOM     17  H   UNL     1       4.562   3.160  15.689  0.00  0.00    +0.000 HD
BRANCH  16  18
ATOM     18  S   UNL     1       5.871   5.050  15.428  0.00  0.00    +0.000 S 
ATOM     19  O   UNL     1       5.182   6.150  14.779  0.00  0.00    +0.000 OA
ATOM     20  O   UNL     1       6.751   4.184  14.674  0.00  0.00    +0.000 OA
BRANCH  18  25
ATOM     21  C   UNL     1       7.690   7.638  17.943  0.00  0.00    +0.000 A 
ATOM     22  C   UNL     1       8.212   6.797  18.927  0.00  0.00    +0.000 A 
ATOM     23  C   UNL     1       8.050   5.409  18.829  0.00  0.00    +0.000 A 
ATOM     24  C   UNL     1       7.345   4.857  17.757  0.00  0.00    +0.000 A 
ATOM     25  C   UNL     1       6.796   5.706  16.791  0.00  0.00    +0.000 A 
ATOM     26  C   UNL     1       6.999   7.086  16.866  0.00  0.00    +0.000 A 
BRANCH  21  28
ATOM     27  C   UNL     1       8.838   9.597  18.646  0.00  0.00    +0.000 C 
ATOM     28  O   UNL     1       7.775   9.003  17.915  0.00  0.00    +0.000 OA
ENDBRANCH  21  28
ENDBRANCH  18  25
ENDBRANCH  16  18
ENDBRANCH   1  16
TORSDOF 5
ENDMDL
MODEL 8
REMARK VINA RESULT:      -8.2      2.625      4.215
REMARK  Name = 
REMARK  6 active torsions:
REMARK  status: ('A' for Active; 'I' for Inactive)
REMARK    1  A    between atoms: C_1  and  O_2
REMARK    2  A    between atoms: O_2  and  C_3
REMARK    3  A    between atoms: C_7  and  S_8
REMARK    4  A    between atoms: S_8  and  N_11
REMARK    5  A    between atoms: N_11  and  C_12
REMARK    6  A    between atoms: C_16  and  C_17
REMARK                            x       y       z     vdW  Elec       q    Type
REMARK                         _______ _______ _______ _____ _____    ______ ____
ROOT
ATOM      1  C   UNL     1       4.877   4.357  18.984  0.00  0.00    +0.000 A 
ATOM      2  C   UNL     1       4.115   3.266  18.574  0.00  0.00    +0.000 A 
ATOM      3  C   UNL     1       2.729   3.387  18.467  0.00  0.00    +0.000 A 
ATOM      4  C   UNL     1       2.101   4.595  18.788  0.00  0.00    +0.000 A 
ATOM      5  C   UNL     1       2.859   5.689  19.227  0.00  0.00    +0.000 A 
ATOM      6  C   UNL     1       4.254   5.561  19.311  0.00  0.00    +0.000 A 
ENDROOT
BRANCH   5   7
ATOM      7  C   UNL     1       2.234   6.921  19.675  0.00  0.00    +0.000 A 
ATOM      8  C   UNL     1       2.045   8.073  18.942  0.00  0.00    +0.000 A 
ATOM      9  N   UNL     1       1.385   8.929  19.785  0.00  0.00    +0.000 N 
ATOM     10  C   UNL     1       0.949  10.229  19.571  0.00  0.00    +0.000 A 
ATOM     11  C   UNL     1       0.321  10.877  20.562  0.00  0.00    +0.000 A 
ATOM     12  C   UNL     1       0.152  10.094  21.820  0.00  0.00    +0.000 A 
ATOM     13  N   UNL     1       0.553   8.880  22.035  0.00  0.00    +0.000 NA
ATOM     14  C   UNL     1       1.194   8.269  20.997  0.00  0.00    +0.000 A 
ATOM     15  N   UNL     1       1.714   7.061  20.941  0.00  0.00    +0.000 NA
ENDBRANCH   5   7
BRANCH   1  16
ATOM     16  N   UNL     1       6.267   4.214  19.203  0.00  0.00    +0.000 N 
ATOM     17  H   UNL     1       6.601   3.724  20.029  0.00  0.00    +0.000 HD
BRANCH  16  18
ATOM     18  S   UNL     1       7.414   4.992  18.272  0.00  0.00    +0.000 S 
ATOM     19  O   UNL     1       8.543   4.100  18.079  0.00  0.00    +0.000 OA
ATOM     20  O   UNL     1       7.599   6.296  18.870  0.00  0.00    +0.000 OA
BRANCH  18  25
ATOM     21  C   UNL     1       6.160   4.394  14.478  0.00  0.00    +0.000 A 
ATOM     22  C   UNL     1       5.369   5.518  14.233  0.00  0.00    +0.000 A 
ATOM     23  C   UNL     1       5.226   6.508  15.214  0.00  0.00    +0.000 A 
ATOM     24  C   UNL     1       5.855   6.367  16.453  0.00  0.00    +0.000 A 
ATOM     25  C   UNL     1       6.620   5.224  16.705  0.00  0.00    +0.000 A 
ATOM     26  C   UNL     1       6.800   4.261  15.709  0.00  0.00    +0.000 A 
BRANCH  21  28
ATOM     27  C   UNL     1       6.377   3.662  12.227  0.00  0.00    +0.000 C 
ATOM     28  O   UNL     1       6.384   3.358  13.614  0.00  0.00    +0.000 OA
ENDBRANCH  21  28
ENDBRANCH  18  25
ENDBRANCH  16  18
ENDBRANCH   1  16
TORSDOF 5
ENDMDL
MODEL 9
REMARK VINA RESULT:      -8.2      3.041      4.758
REMARK  Name = 
REMARK  6 active torsions:
REMARK  status: ('A' for Active; 'I' for Inactive)
REMARK    1  A    between atoms: C_1  and  O_2
REMARK    2  A    between atoms: O_2  and  C_3
REMARK    3  A    between atoms: C_7  and  S_8
REMARK    4  A    between atoms: S_8  and  N_11
REMARK    5  A    between atoms: N_11  and  C_12
REMARK    6  A    between atoms: C_16  and  C_17
REMARK                            x       y       z     vdW  Elec       q    Type
REMARK                         _______ _______ _______ _____ _____    ______ ____
ROOT
ATOM      1  C   UNL     1       4.070   4.713  17.550  0.00  0.00    +0.000 A 
ATOM      2  C   UNL     1       4.169   3.739  18.540  0.00  0.00    +0.000 A 
ATOM      3  C   UNL     1       3.564   3.945  19.780  0.00  0.00    +0.000 A 
ATOM      4  C   UNL     1       2.876   5.135  20.039  0.00  0.00    +0.000 A 
ATOM      5  C   UNL     1       2.795   6.131  19.056  0.00  0.00    +0.000 A 
ATOM      6  C   UNL     1       3.389   5.903  17.805  0.00  0.00    +0.000 A 
ENDROOT
BRANCH   5   7
ATOM      7  C   UNL     1       2.186   7.422  19.324  0.00  0.00    +0.000 A 
ATOM      8  C   UNL     1       1.995   8.453  18.431  0.00  0.00    +0.000 A 
ATOM      9  N   UNL     1       1.354   9.431  19.146  0.00  0.00    +0.000 N 
ATOM     10  C   UNL     1       0.924  10.689  18.747  0.00  0.00    +0.000 A 
ATOM     11  C   UNL     1       0.315  11.484  19.638  0.00  0.00    +0.000 A 
ATOM     12  C   UNL     1       0.159  10.898  21.001  0.00  0.00    +0.000 A 
ATOM     13  N   UNL     1       0.554   9.725  21.389  0.00  0.00    +0.000 NA
ATOM     14  C   UNL     1       1.175   8.961  20.445  0.00  0.00    +0.000 A 
ATOM     15  N   UNL     1       1.685   7.753  20.562  0.00  0.00    +0.000 NA
ENDBRANCH   5   7
BRANCH   1  16
ATOM     16  N   UNL     1       4.771   4.564  16.330  0.00  0.00    +0.000 N 
ATOM     17  H   UNL     1       4.385   3.976  15.595  0.00  0.00    +0.000 HD
BRANCH  16  18
ATOM     18  S   UNL     1       6.319   5.143  16.099  0.00  0.00    +0.000 S 
ATOM     19  O   UNL     1       7.234   4.377  16.926  0.00  0.00    +0.000 OA
ATOM     20  O   UNL     1       6.235   6.580  16.231  0.00  0.00    +0.000 OA
BRANCH  18  25
ATOM     21  C   UNL     1       6.190   3.460  12.427  0.00  0.00    +0.000 A 
ATOM     22  C   UNL     1       7.161   4.176  11.725  0.00  0.00    +0.000 A 
ATOM     23  C   UNL     1       7.906   5.172  12.367  0.00  0.00    +0.000 A 
ATOM     24  C   UNL     1       7.669   5.473  13.711  0.00  0.00    +0.000 A 
ATOM     25  C   UNL     1       6.672   4.776  14.401  0.00  0.00    +0.000 A 
ATOM     26  C   UNL     1       5.962   3.751  13.771  0.00  0.00    +0.000 A 
BRANCH  21  28
ATOM     27  C   UNL     1       6.040   1.419  11.218  0.00  0.00    +0.000 C 
ATOM     28  O   UNL     1       5.394   2.468  11.925  0.00  0.00    +0.000 OA
ENDBRANCH  21  28
ENDBRANCH  18  25
ENDBRANCH  16  18
ENDBRANCH   1  16
TORSDOF 5
ENDMDL
