MODEL 1
REMARK VINA RESULT:      -8.3      0.000      0.000
REMARK  Name = 
REMARK  2 active torsions:
REMARK  status: ('A' for Active; 'I' for Inactive)
REMARK    1  A    between atoms: C_5  and  C_7
REMARK    2  A    between atoms: C_10  and  N_11
REMARK                            x       y       z     vdW  Elec       q    Type
REMARK                         _______ _______ _______ _____ _____    ______ ____
ROOT
ATOM      1  O   UNL     1      -2.046  11.544  17.101  0.00  0.00    +0.000 OA
ATOM      2  C   UNL     1      -1.778  11.630  18.299  0.00  0.00    +0.000 C 
ATOM      3  C   UNL     1      -1.225  10.463  19.093  0.00  0.00    +0.000 C 
ATOM      4  N   UNL     1      -0.530  10.801  20.348  0.00  0.00    +0.000 N 
ATOM      5  C   UNL     1       0.677  10.205  20.768  0.00  0.00    +0.000 C 
ATOM      6  O   UNL     1       1.372  10.627  21.694  0.00  0.00    +0.000 OA
ATOM      7  C   UNL     1      -1.125  11.888  21.079  0.00  0.00    +0.000 A 
ATOM      8  C   UNL     1      -0.940  12.057  22.456  0.00  0.00    +0.000 A 
ATOM      9  C   UNL     1      -1.531  13.130  23.132  0.00  0.00    +0.000 A 
ATOM     10  C   UNL     1      -2.300  14.061  22.439  0.00  0.00    +0.000 A 
ATOM     11  C   UNL     1      -2.493  13.914  21.069  0.00  0.00    +0.000 A 
ATOM     12  C   UNL     1      -1.927  12.828  20.399  0.00  0.00    +0.000 A 
ATOM     13  N   UNL     1      -2.149  12.722  19.022  0.00  0.00    +0.000 N 
ATOM     14  H   UNL     1      -2.622  13.458  18.515  0.00  0.00    +0.000 HD
ENDROOT
BRANCH   5  15
ATOM     15  C   UNL     1       1.234   9.028  20.038  0.00  0.00    +0.000 A 
ATOM     16  C   UNL     1       1.406   7.820  20.726  0.00  0.00    +0.000 A 
ATOM     17  C   UNL     1       1.985   6.711  20.093  0.00  0.00    +0.000 A 
ATOM     18  C   UNL     1       2.443   6.793  18.771  0.00  0.00    +0.000 A 
ATOM     19  C   UNL     1       2.218   7.995  18.084  0.00  0.00    +0.000 A 
ATOM     20  C   UNL     1       1.568   9.074  18.688  0.00  0.00    +0.000 A 
BRANCH  18  21
ATOM     21  N   UNL     1       3.118   5.718  18.128  0.00  0.00    +0.000 N 
ATOM     22  C   UNL     1       4.559   5.621  18.097  0.00  0.00    +0.000 C 
ATOM     23  C   UNL     1       4.848   4.544  17.078  0.00  0.00    +0.000 C 
ATOM     24  C   UNL     1       3.645   3.630  17.171  0.00  0.00    +0.000 C 
ATOM     25  C   UNL     1       2.535   4.548  17.619  0.00  0.00    +0.000 C 
ATOM     26  O   UNL     1       1.349   4.245  17.545  0.00  0.00    +0.000 OA
ENDBRANCH  18  21
ENDBRANCH   5  15
TORSDOF 2
ENDMDL
MODEL 2
REMARK VINA RESULT:      -8.2      0.449      1.058
REMARK  Name = 
REMARK  2 active torsions:
REMARK  status: ('A' for Active; 'I' for Inactive)
REMARK    1  A    between atoms: C_5  and  C_7
REMARK    2  A    between atoms: C_10  and  N_11
REMARK                            x       y       z     vdW  Elec       q    Type
REMARK                         _______ _______ _______ _____ _____    ______ ____
ROOT
ATOM      1  O   UNL     1      -2.109  11.002  16.782  0.00  0.00    +0.000 OA
ATOM      2  C   UNL     1      -1.916  11.178  17.984  0.00  0.00    +0.000 C 
ATOM      3  C   UNL     1      -1.272  10.126  18.866  0.00  0.00    +0.000 C 
ATOM      4  N   UNL     1      -0.688  10.605  20.131  0.00  0.00    +0.000 N 
ATOM      5  C   UNL     1       0.557  10.179  20.638  0.00  0.00    +0.000 C 
ATOM      6  O   UNL     1       1.149  10.725  21.571  0.00  0.00    +0.000 OA
ATOM      7  C   UNL     1      -1.444  11.647  20.774  0.00  0.00    +0.000 A 
ATOM      8  C   UNL     1      -1.351  11.904  22.146  0.00  0.00    +0.000 A 
ATOM      9  C   UNL     1      -2.098  12.930  22.735  0.00  0.00    +0.000 A 
ATOM     10  C   UNL     1      -2.934  13.727  21.957  0.00  0.00    +0.000 A 
ATOM     11  C   UNL     1      -3.037  13.492  20.590  0.00  0.00    +0.000 A 
ATOM     12  C   UNL     1      -2.313  12.450  20.007  0.00  0.00    +0.000 A 
ATOM     13  N   UNL     1      -2.449  12.252  18.630  0.00  0.00    +0.000 N 
ATOM     14  H   UNL     1      -2.978  12.900  18.062  0.00  0.00    +0.000 HD
ENDROOT
BRANCH   5  15
ATOM     15  C   UNL     1       1.286   9.043  19.999  0.00  0.00    +0.000 A 
ATOM     16  C   UNL     1       1.683   9.158  18.661  0.00  0.00    +0.000 A 
ATOM     17  C   UNL     1       2.313   8.089  18.006  0.00  0.00    +0.000 A 
ATOM     18  C   UNL     1       2.526   6.868  18.661  0.00  0.00    +0.000 A 
ATOM     19  C   UNL     1       2.166   6.790  20.014  0.00  0.00    +0.000 A 
ATOM     20  C   UNL     1       1.612   7.880  20.689  0.00  0.00    +0.000 A 
BRANCH  18  21
ATOM     21  N   UNL     1       3.077   5.734  18.001  0.00  0.00    +0.000 N 
ATOM     22  C   UNL     1       4.502   5.540  17.863  0.00  0.00    +0.000 C 
ATOM     23  C   UNL     1       4.640   4.420  16.859  0.00  0.00    +0.000 C 
ATOM     24  C   UNL     1       3.392   3.591  17.072  0.00  0.00    +0.000 C 
ATOM     25  C   UNL     1       2.382   4.593  17.575  0.00  0.00    +0.000 C 
ATOM     26  O   UNL     1       1.177   4.368  17.601  0.00  0.00    +0.000 OA
ENDBRANCH  18  21
ENDBRANCH   5  15
TORSDOF 2
ENDMDL
MODEL 3
REMARK VINA RESULT:      -8.1      1.040      1.284
REMARK  Name = 
REMARK  2 active torsions:
REMARK  status: ('A' for Active; 'I' for Inactive)
REMARK    1  A    between atoms: C_5  and  C_7
REMARK    2  A    between atoms: C_10  and  N_11
REMARK                            x       y       z     vdW  Elec       q    Type
REMARK                         _______ _______ _______ _____ _____    ______ ____
ROOT
ATOM      1  O   UNL     1      -2.479  11.257  17.097  0.00  0.00    +0.000 OA
ATOM      2  C   UNL     1      -2.134  11.421  18.267  0.00  0.00    +0.000 C 
ATOM      3  C   UNL     1      -1.412  10.348  19.059  0.00  0.00    +0.000 C 
ATOM      4  N   UNL     1      -0.665  10.805  20.244  0.00  0.00    +0.000 N 
ATOM      5  C   UNL     1       0.622  10.347  20.592  0.00  0.00    +0.000 C 
ATOM      6  O   UNL     1       1.338  10.873  21.446  0.00  0.00    +0.000 OA
ATOM      7  C   UNL     1      -1.310  11.861  20.979  0.00  0.00    +0.000 A 
ATOM      8  C   UNL     1      -1.043  12.107  22.330  0.00  0.00    +0.000 A 
ATOM      9  C   UNL     1      -1.686  13.147  23.010  0.00  0.00    +0.000 A 
ATOM     10  C   UNL     1      -2.592  13.969  22.344  0.00  0.00    +0.000 A 
ATOM     11  C   UNL     1      -2.868  13.745  20.999  0.00  0.00    +0.000 A 
ATOM     12  C   UNL     1      -2.248  12.689  20.328  0.00  0.00    +0.000 A 
ATOM     13  N   UNL     1      -2.558  12.503  18.977  0.00  0.00    +0.000 N 
ATOM     14  H   UNL     1      -3.137  13.167  18.481  0.00  0.00    +0.000 HD
ENDROOT
BRANCH   5  15
ATOM     15  C   UNL     1       1.239   9.198  19.864  0.00  0.00    +0.000 A 
ATOM     16  C   UNL     1       1.534   8.025  20.572  0.00  0.00    +0.000 A 
ATOM     17  C   UNL     1       2.171   6.948  19.939  0.00  0.00    +0.000 A 
ATOM     18  C   UNL     1       2.564   7.031  18.596  0.00  0.00    +0.000 A 
ATOM     19  C   UNL     1       2.215   8.193  17.892  0.00  0.00    +0.000 A 
ATOM     20  C   UNL     1       1.509   9.234  18.500  0.00  0.00    +0.000 A 
BRANCH  18  21
ATOM     21  N   UNL     1       3.293   5.995  17.948  0.00  0.00    +0.000 N 
ATOM     22  C   UNL     1       2.725   4.689  17.703  0.00  0.00    +0.000 C 
ATOM     23  C   UNL     1       3.901   3.830  17.300  0.00  0.00    +0.000 C 
ATOM     24  C   UNL     1       4.846   4.806  16.632  0.00  0.00    +0.000 C 
ATOM     25  C   UNL     1       4.534   6.120  17.306  0.00  0.00    +0.000 C 
ATOM     26  O   UNL     1       5.274   7.095  17.239  0.00  0.00    +0.000 OA
ENDBRANCH  18  21
ENDBRANCH   5  15
TORSDOF 2
ENDMDL
MODEL 4
REMARK VINA RESULT:      -8.1      0.959      1.559
REMARK  Name = 
REMARK  2 active torsions:
REMARK  status: ('A' for Active; 'I' for Inactive)
REMARK    1  A    between atoms: C_5  and  C_7
REMARK    2  A    between atoms: C_10  and  N_11
REMARK                            x       y       z     vdW  Elec       q    Type
REMARK                         _______ _______ _______ _____ _____    ______ ____
ROOT
ATOM      1  O   UNL     1      -2.203  11.057  16.912  0.00  0.00    +0.000 OA
ATOM      2  C   UNL     1      -1.964  11.256  18.102  0.00  0.00    +0.000 C 
ATOM      3  C   UNL     1      -1.319  10.208  18.987  0.00  0.00    +0.000 C 
ATOM      4  N   UNL     1      -0.679  10.700  20.219  0.00  0.00    +0.000 N 
ATOM      5  C   UNL     1       0.571  10.252  20.695  0.00  0.00    +0.000 C 
ATOM      6  O   UNL     1       1.209  10.804  21.593  0.00  0.00    +0.000 OA
ATOM      7  C   UNL     1      -1.384  11.778  20.862  0.00  0.00    +0.000 A 
ATOM      8  C   UNL     1      -1.237  12.066  22.223  0.00  0.00    +0.000 A 
ATOM      9  C   UNL     1      -1.935  13.126  22.811  0.00  0.00    +0.000 A 
ATOM     10  C   UNL     1      -2.776  13.927  22.043  0.00  0.00    +0.000 A 
ATOM     11  C   UNL     1      -2.932  13.663  20.686  0.00  0.00    +0.000 A 
ATOM     12  C   UNL     1      -2.257  12.587  20.105  0.00  0.00    +0.000 A 
ATOM     13  N   UNL     1      -2.446  12.360  18.738  0.00  0.00    +0.000 N 
ATOM     14  H   UNL     1      -2.977  13.009  18.173  0.00  0.00    +0.000 HD
ENDROOT
BRANCH   5  15
ATOM     15  C   UNL     1       1.246   9.082  20.060  0.00  0.00    +0.000 A 
ATOM     16  C   UNL     1       1.638   9.169  18.718  0.00  0.00    +0.000 A 
ATOM     17  C   UNL     1       2.217   8.070  18.068  0.00  0.00    +0.000 A 
ATOM     18  C   UNL     1       2.382   6.845  18.730  0.00  0.00    +0.000 A 
ATOM     19  C   UNL     1       2.029   6.793  20.087  0.00  0.00    +0.000 A 
ATOM     20  C   UNL     1       1.527   7.911  20.757  0.00  0.00    +0.000 A 
BRANCH  18  21
ATOM     21  N   UNL     1       2.880   5.684  18.077  0.00  0.00    +0.000 N 
ATOM     22  C   UNL     1       2.032   4.563  17.743  0.00  0.00    +0.000 C 
ATOM     23  C   UNL     1       2.989   3.458  17.365  0.00  0.00    +0.000 C 
ATOM     24  C   UNL     1       4.182   4.195  16.794  0.00  0.00    +0.000 C 
ATOM     25  C   UNL     1       4.153   5.524  17.509  0.00  0.00    +0.000 C 
ATOM     26  O   UNL     1       5.108   6.292  17.525  0.00  0.00    +0.000 OA
ENDBRANCH  18  21
ENDBRANCH   5  15
TORSDOF 2
ENDMDL
MODEL 5
REMARK VINA RESULT:      -7.6      2.061      8.802
REMARK  Name = 
REMARK  2 active torsions:
REMARK  status: ('A' for Active; 'I' for Inactive)
REMARK    1  A    between atoms: C_5  and  C_7
REMARK    2  A    between atoms: C_10  and  N_11
REMARK                            x       y       z     vdW  Elec       q    Type
REMARK                         _______ _______ _______ _____ _____    ______ ____
ROOT
ATOM      1  O   UNL     1       1.988   3.016  19.446  0.00  0.00    +0.000 OA
ATOM      2  C   UNL     1       2.646   3.682  18.648  0.00  0.00    +0.000 C 
ATOM      3  C   UNL     1       2.238   5.079  18.225  0.00  0.00    +0.000 C 
ATOM      4  N   UNL     1       3.302   5.924  17.655  0.00  0.00    +0.000 N 
ATOM      5  C   UNL     1       3.484   7.287  17.969  0.00  0.00    +0.000 C 
ATOM      6  O   UNL     1       4.486   7.939  17.672  0.00  0.00    +0.000 OA
ATOM      7  C   UNL     1       4.235   5.216  16.818  0.00  0.00    +0.000 A 
ATOM      8  C   UNL     1       4.999   5.856  15.836  0.00  0.00    +0.000 A 
ATOM      9  C   UNL     1       5.900   5.134  15.046  0.00  0.00    +0.000 A 
ATOM     10  C   UNL     1       6.066   3.765  15.239  0.00  0.00    +0.000 A 
ATOM     11  C   UNL     1       5.320   3.110  16.214  0.00  0.00    +0.000 A 
ATOM     12  C   UNL     1       4.400   3.825  16.983  0.00  0.00    +0.000 A 
ATOM     13  N   UNL     1       3.674   3.123  17.950  0.00  0.00    +0.000 N 
ATOM     14  H   UNL     1       3.877   2.153  18.150  0.00  0.00    +0.000 HD
ENDROOT
BRANCH   5  15
ATOM     15  C   UNL     1       2.462   8.020  18.774  0.00  0.00    +0.000 A 
ATOM     16  C   UNL     1       1.818   9.128  18.207  0.00  0.00    +0.000 A 
ATOM     17  C   UNL     1       0.899   9.881  18.952  0.00  0.00    +0.000 A 
ATOM     18  C   UNL     1       0.631   9.570  20.293  0.00  0.00    +0.000 A 
ATOM     19  C   UNL     1       1.248   8.429  20.826  0.00  0.00    +0.000 A 
ATOM     20  C   UNL     1       2.102   7.631  20.060  0.00  0.00    +0.000 A 
BRANCH  18  21
ATOM     21  N   UNL     1      -0.224  10.366  21.105  0.00  0.00    +0.000 N 
ATOM     22  C   UNL     1      -1.305  11.149  20.551  0.00  0.00    +0.000 C 
ATOM     23  C   UNL     1      -1.737  12.056  21.679  0.00  0.00    +0.000 C 
ATOM     24  C   UNL     1      -1.434  11.250  22.924  0.00  0.00    +0.000 C 
ATOM     25  C   UNL     1      -0.280  10.371  22.507  0.00  0.00    +0.000 C 
ATOM     26  O   UNL     1       0.427   9.775  23.311  0.00  0.00    +0.000 OA
ENDBRANCH  18  21
ENDBRANCH   5  15
TORSDOF 2
ENDMDL
MODEL 6
REMARK VINA RESULT:      -7.5      2.179      2.629
REMARK  Name = 
REMARK  2 active torsions:
REMARK  status: ('A' for Active; 'I' for Inactive)
REMARK    1  A    between atoms: C_5  and  C_7
REMARK    2  A    between atoms: C_10  and  N_11
REMARK                            x       y       z     vdW  Elec       q    Type
REMARK                         _______ _______ _______ _____ _____    ______ ____
ROOT
ATOM      1  O   UNL     1       2.104  12.554  18.076  0.00  0.00    +0.000 OA
ATOM      2  C   UNL     1       1.524  11.949  18.977  0.00  0.00    +0.000 C 
ATOM      3  C   UNL     1       1.224  10.465  18.897  0.00  0.00    +0.000 C 
ATOM      4  N   UNL     1       0.960   9.785  20.177  0.00  0.00    +0.000 N 
ATOM      5  C   UNL     1       1.477   8.519  20.522  0.00  0.00    +0.000 C 
ATOM      6  O   UNL     1       1.443   8.042  21.657  0.00  0.00    +0.000 OA
ATOM      7  C   UNL     1       0.209  10.571  21.120  0.00  0.00    +0.000 A 
ATOM      8  C   UNL     1      -0.536   9.993  22.154  0.00  0.00    +0.000 A 
ATOM      9  C   UNL     1      -1.249  10.791  23.056  0.00  0.00    +0.000 A 
ATOM     10  C   UNL     1      -1.212  12.179  22.950  0.00  0.00    +0.000 A 
ATOM     11  C   UNL     1      -0.473  12.774  21.932  0.00  0.00    +0.000 A 
ATOM     12  C   UNL     1       0.215  11.977  21.015  0.00  0.00    +0.000 A 
ATOM     13  N   UNL     1       0.944  12.621  20.010  0.00  0.00    +0.000 N 
ATOM     14  H   UNL     1       1.046  13.627  20.006  0.00  0.00    +0.000 HD
ENDROOT
BRANCH   5  15
ATOM     15  C   UNL     1       2.185   7.688  19.503  0.00  0.00    +0.000 A 
ATOM     16  C   UNL     1       2.473   6.349  19.798  0.00  0.00    +0.000 A 
ATOM     17  C   UNL     1       3.192   5.555  18.894  0.00  0.00    +0.000 A 
ATOM     18  C   UNL     1       3.675   6.089  17.691  0.00  0.00    +0.000 A 
ATOM     19  C   UNL     1       3.334   7.416  17.392  0.00  0.00    +0.000 A 
ATOM     20  C   UNL     1       2.549   8.184  18.255  0.00  0.00    +0.000 A 
BRANCH  18  21
ATOM     21  N   UNL     1       4.486   5.339  16.794  0.00  0.00    +0.000 N 
ATOM     22  C   UNL     1       4.509   3.894  16.800  0.00  0.00    +0.000 C 
ATOM     23  C   UNL     1       5.697   3.528  15.941  0.00  0.00    +0.000 C 
ATOM     24  C   UNL     1       5.786   4.666  14.947  0.00  0.00    +0.000 C 
ATOM     25  C   UNL     1       5.202   5.839  15.696  0.00  0.00    +0.000 C 
ATOM     26  O   UNL     1       5.348   7.000  15.333  0.00  0.00    +0.000 OA
ENDBRANCH  18  21
ENDBRANCH   5  15
TORSDOF 2
ENDMDL
MODEL 7
REMARK VINA RESULT:      -7.5      1.944      2.219
REMARK  Name = 
REMARK  2 active torsions:
REMARK  status: ('A' for Active; 'I' for Inactive)
REMARK    1  A    between atoms: C_5  and  C_7
REMARK    2  A    between atoms: C_10  and  N_11
REMARK                            x       y       z     vdW  Elec       q    Type
REMARK                         _______ _______ _______ _____ _____    ______ ____
ROOT
ATOM      1  O   UNL     1       2.206  12.863  18.329  0.00  0.00    +0.000 OA
ATOM      2  C   UNL     1       1.559  12.272  19.193  0.00  0.00    +0.000 C 
ATOM      3  C   UNL     1       1.190  10.807  19.070  0.00  0.00    +0.000 C 
ATOM      4  N   UNL     1       0.838  10.118  20.324  0.00  0.00    +0.000 N 
ATOM      5  C   UNL     1       1.276   8.821  20.663  0.00  0.00    +0.000 C 
ATOM      6  O   UNL     1       1.170   8.325  21.786  0.00  0.00    +0.000 OA
ATOM      7  C   UNL     1       0.088  10.923  21.251  0.00  0.00    +0.000 A 
ATOM      8  C   UNL     1      -0.728  10.365  22.241  0.00  0.00    +0.000 A 
ATOM      9  C   UNL     1      -1.438  11.182  23.129  0.00  0.00    +0.000 A 
ATOM     10  C   UNL     1      -1.328  12.567  23.053  0.00  0.00    +0.000 A 
ATOM     11  C   UNL     1      -0.517  13.143  22.079  0.00  0.00    +0.000 A 
ATOM     12  C   UNL     1       0.169  12.329  21.175  0.00  0.00    +0.000 A 
ATOM     13  N   UNL     1       0.971  12.953  20.215  0.00  0.00    +0.000 N 
ATOM     14  H   UNL     1       1.122  13.953  20.235  0.00  0.00    +0.000 HD
ENDROOT
BRANCH   5  15
ATOM     15  C   UNL     1       1.984   7.975  19.658  0.00  0.00    +0.000 A 
ATOM     16  C   UNL     1       2.406   6.691  20.027  0.00  0.00    +0.000 A 
ATOM     17  C   UNL     1       3.130   5.890  19.132  0.00  0.00    +0.000 A 
ATOM     18  C   UNL     1       3.484   6.366  17.862  0.00  0.00    +0.000 A 
ATOM     19  C   UNL     1       3.010   7.634  17.494  0.00  0.00    +0.000 A 
ATOM     20  C   UNL     1       2.220   8.400  18.354  0.00  0.00    +0.000 A 
BRANCH  18  21
ATOM     21  N   UNL     1       4.295   5.618  16.964  0.00  0.00    +0.000 N 
ATOM     22  C   UNL     1       5.351   6.228  16.188  0.00  0.00    +0.000 C 
ATOM     23  C   UNL     1       5.731   5.178  15.170  0.00  0.00    +0.000 C 
ATOM     24  C   UNL     1       5.445   3.871  15.877  0.00  0.00    +0.000 C 
ATOM     25  C   UNL     1       4.333   4.222  16.836  0.00  0.00    +0.000 C 
ATOM     26  O   UNL     1       3.640   3.376  17.389  0.00  0.00    +0.000 OA
ENDBRANCH  18  21
ENDBRANCH   5  15
TORSDOF 2
ENDMDL
MODEL 8
REMARK VINA RESULT:      -7.3      1.775      8.821
REMARK  Name = 
REMARK  2 active torsions:
REMARK  status: ('A' for Active; 'I' for Inactive)
REMARK    1  A    between atoms: C_5  and  C_7
REMARK    2  A    between atoms: C_10  and  N_11
REMARK                            x       y       z     vdW  Elec       q    Type
REMARK                         _______ _______ _______ _____ _____    ______ ____
ROOT
ATOM      1  O   UNL     1       1.961   2.940  19.097  0.00  0.00    +0.000 OA
ATOM      2  C   UNL     1       2.661   3.629  18.355  0.00  0.00    +0.000 C 
ATOM      3  C   UNL     1       2.294   5.052  17.983  0.00  0.00    +0.000 C 
ATOM      4  N   UNL     1       3.394   5.900  17.492  0.00  0.00    +0.000 N 
ATOM      5  C   UNL     1       3.590   7.243  17.876  0.00  0.00    +0.000 C 
ATOM      6  O   UNL     1       4.614   7.888  17.646  0.00  0.00    +0.000 OA
ATOM      7  C   UNL     1       4.344   5.213  16.658  0.00  0.00    +0.000 A 
ATOM      8  C   UNL     1       5.156   5.881  15.734  0.00  0.00    +0.000 A 
ATOM      9  C   UNL     1       6.072   5.178  14.944  0.00  0.00    +0.000 A 
ATOM     10  C   UNL     1       6.205   3.799  15.079  0.00  0.00    +0.000 A 
ATOM     11  C   UNL     1       5.412   3.115  15.995  0.00  0.00    +0.000 A 
ATOM     12  C   UNL     1       4.477   3.812  16.763  0.00  0.00    +0.000 A 
ATOM     13  N   UNL     1       3.703   3.082  17.669  0.00  0.00    +0.000 N 
ATOM     14  H   UNL     1       3.880   2.099  17.830  0.00  0.00    +0.000 HD
ENDROOT
BRANCH   5  15
ATOM     15  C   UNL     1       2.553   7.959  18.677  0.00  0.00    +0.000 A 
ATOM     16  C   UNL     1       1.910   9.071  18.116  0.00  0.00    +0.000 A 
ATOM     17  C   UNL     1       0.976   9.808  18.859  0.00  0.00    +0.000 A 
ATOM     18  C   UNL     1       0.692   9.477  20.192  0.00  0.00    +0.000 A 
ATOM     19  C   UNL     1       1.309   8.333  20.718  0.00  0.00    +0.000 A 
ATOM     20  C   UNL     1       2.177   7.550  19.952  0.00  0.00    +0.000 A 
BRANCH  18  21
ATOM     21  N   UNL     1      -0.178  10.257  21.003  0.00  0.00    +0.000 N 
ATOM     22  C   UNL     1      -0.065  10.290  22.444  0.00  0.00    +0.000 C 
ATOM     23  C   UNL     1      -1.336  10.961  22.911  0.00  0.00    +0.000 C 
ATOM     24  C   UNL     1      -1.690  11.894  21.773  0.00  0.00    +0.000 C 
ATOM     25  C   UNL     1      -1.105  11.212  20.560  0.00  0.00    +0.000 C 
ATOM     26  O   UNL     1      -1.416  11.512  19.412  0.00  0.00    +0.000 OA
ENDBRANCH  18  21
ENDBRANCH   5  15
TORSDOF 2
ENDMDL
MODEL 9
REMARK VINA RESULT:      -7.3      1.920      2.225
REMARK  Name = 
REMARK  2 active torsions:
REMARK  status: ('A' for Active; 'I' for Inactive)
REMARK    1  A    between atoms: C_5  and  C_7
REMARK    2  A    between atoms: C_10  and  N_11
REMARK                            x       y       z     vdW  Elec       q    Type
REMARK                         _______ _______ _______ _____ _____    ______ ____
ROOT
ATOM      1  O   UNL     1       2.915  13.706  20.106  0.00  0.00    +0.000 OA
ATOM      2  C   UNL     1       1.880  13.263  20.603  0.00  0.00    +0.000 C 
ATOM      3  C   UNL     1       1.198  12.014  20.080  0.00  0.00    +0.000 C 
ATOM      4  N   UNL     1       0.270  11.343  21.007  0.00  0.00    +0.000 N 
ATOM      5  C   UNL     1       0.204   9.946  21.186  0.00  0.00    +0.000 C 
ATOM      6  O   UNL     1      -0.406   9.392  22.102  0.00  0.00    +0.000 OA
ATOM      7  C   UNL     1      -0.507  12.241  21.819  0.00  0.00    +0.000 A 
ATOM      8  C   UNL     1      -1.729  11.870  22.391  0.00  0.00    +0.000 A 
ATOM      9  C   UNL     1      -2.454  12.769  23.181  0.00  0.00    +0.000 A 
ATOM     10  C   UNL     1      -1.959  14.047  23.426  0.00  0.00    +0.000 A 
ATOM     11  C   UNL     1      -0.743  14.435  22.872  0.00  0.00    +0.000 A 
ATOM     12  C   UNL     1      -0.034  13.547  22.061  0.00  0.00    +0.000 A 
ATOM     13  N   UNL     1       1.183  13.983  21.526  0.00  0.00    +0.000 N 
ATOM     14  H   UNL     1       1.579  14.873  21.794  0.00  0.00    +0.000 HD
ENDROOT
BRANCH   5  15
ATOM     15  C   UNL     1       0.959   9.031  20.279  0.00  0.00    +0.000 A 
ATOM     16  C   UNL     1       1.517   7.859  20.808  0.00  0.00    +0.000 A 
ATOM     17  C   UNL     1       2.287   7.006  20.004  0.00  0.00    +0.000 A 
ATOM     18  C   UNL     1       2.552   7.323  18.664  0.00  0.00    +0.000 A 
ATOM     19  C   UNL     1       1.944   8.474  18.141  0.00  0.00    +0.000 A 
ATOM     20  C   UNL     1       1.111   9.281  18.919  0.00  0.00    +0.000 A 
BRANCH  18  21
ATOM     21  N   UNL     1       3.403   6.530  17.846  0.00  0.00    +0.000 N 
ATOM     22  C   UNL     1       4.634   7.044  17.288  0.00  0.00    +0.000 C 
ATOM     23  C   UNL     1       5.047   6.014  16.262  0.00  0.00    +0.000 C 
ATOM     24  C   UNL     1       4.501   4.716  16.816  0.00  0.00    +0.000 C 
ATOM     25  C   UNL     1       3.298   5.150  17.618  0.00  0.00    +0.000 C 
ATOM     26  O   UNL     1       2.431   4.369  17.994  0.00  0.00    +0.000 OA
ENDBRANCH  18  21
ENDBRANCH   5  15
TORSDOF 2
ENDMDL
