MODEL 1
REMARK VINA RESULT:      -9.1      0.000      0.000
REMARK  Name = 
REMARK  7 active torsions:
REMARK  status: ('A' for Active; 'I' for Inactive)
REMARK    1  A    between atoms: C_1  and  C_2
REMARK    2  A    between atoms: C_5  and  C_6
REMARK    3  A    between atoms: C_7  and  S_8
REMARK    4  A    between atoms: S_8  and  N_11
REMARK    5  A    between atoms: N_11  and  C_12
REMARK    6  A    between atoms: C_17  and  O_18
REMARK    7  A    between atoms: O_18  and  C_19
REMARK                            x       y       z     vdW  Elec       q    Type
REMARK                         _______ _______ _______ _____ _____    ______ ____
ROOT
ATOM      1  C   UNL     1       2.616   4.385  18.490  0.00  0.00    +0.000 A 
ATOM      2  C   UNL     1       2.013   3.148  18.251  0.00  0.00    +0.000 A 
ATOM      3  C   UNL     1       1.077   2.638  19.154  0.00  0.00    +0.000 A 
ATOM      4  C   UNL     1       0.693   3.391  20.260  0.00  0.00    +0.000 A 
ATOM      5  C   UNL     1       1.242   4.656  20.463  0.00  0.00    +0.000 A 
ATOM      6  C   UNL     1       2.247   5.139  19.612  0.00  0.00    +0.000 A 
ENDROOT
BRANCH   1   7
ATOM      7  N   UNL     1       3.625   4.850  17.588  0.00  0.00    +0.000 N 
ATOM      8  H   UNL     1       3.275   5.039  16.649  0.00  0.00    +0.000 HD
BRANCH   7   9
ATOM      9  S   UNL     1       5.074   3.977  17.502  0.00  0.00    +0.000 S 
ATOM     10  O   UNL     1       4.871   2.739  16.790  0.00  0.00    +0.000 OA
ATOM     11  O   UNL     1       5.648   3.998  18.835  0.00  0.00    +0.000 OA
BRANCH   9  18
ATOM     12  C   UNL     1       5.827   3.811  14.186  0.00  0.00    +0.000 C 
ATOM     13  C   UNL     1       6.448   4.721  15.177  0.00  0.00    +0.000 A 
ATOM     14  N   UNL     1       7.413   5.565  14.786  0.00  0.00    +0.000 NA
ATOM     15  O   UNL     1       7.783   6.271  15.916  0.00  0.00    +0.000 OA
ATOM     16  C   UNL     1       7.052   5.847  16.983  0.00  0.00    +0.000 A 
ATOM     17  C   UNL     1       7.347   6.499  18.273  0.00  0.00    +0.000 C 
ATOM     18  C   UNL     1       6.192   4.864  16.560  0.00  0.00    +0.000 A 
ENDBRANCH   9  18
ENDBRANCH   7   9
ENDBRANCH   1   7
BRANCH   6  19
ATOM     19  O   UNL     1       2.899   6.344  19.820  0.00  0.00    +0.000 OA
BRANCH  19  20
ATOM     20  C   UNL     1       2.228   7.503  19.488  0.00  0.00    +0.000 A 
ATOM     21  C   UNL     1       2.227   8.025  18.187  0.00  0.00    +0.000 A 
ATOM     22  C   UNL     1       1.632   9.260  17.928  0.00  0.00    +0.000 A 
ATOM     23  C   UNL     1       0.981   9.940  18.953  0.00  0.00    +0.000 A 
ATOM     24  C   UNL     1       0.917   9.372  20.224  0.00  0.00    +0.000 A 
ATOM     25  F   UNL     1       0.268  10.022  21.198  0.00  0.00    +0.000 F 
ATOM     26  C   UNL     1       1.533   8.156  20.503  0.00  0.00    +0.000 A 
ENDBRANCH  19  20
ENDBRANCH   6  19
TORSDOF 5
ENDMDL
MODEL 2
REMARK VINA RESULT:      -9.1      0.877      1.302
REMARK  Name = 
REMARK  7 active torsions:
REMARK  status: ('A' for Active; 'I' for Inactive)
REMARK    1  A    between atoms: C_1  and  C_2
REMARK    2  A    between atoms: C_5  and  C_6
REMARK    3  A    between atoms: C_7  and  S_8
REMARK    4  A    between atoms: S_8  and  N_11
REMARK    5  A    between atoms: N_11  and  C_12
REMARK    6  A    between atoms: C_17  and  O_18
REMARK    7  A    between atoms: O_18  and  C_19
REMARK                            x       y       z     vdW  Elec       q    Type
REMARK                         _______ _______ _______ _____ _____    ______ ____
ROOT
ATOM      1  C   UNL     1       2.542   4.270  18.418  0.00  0.00    +0.000 A 
ATOM      2  C   UNL     1       1.885   3.090  18.061  0.00  0.00    +0.000 A 
ATOM      3  C   UNL     1       0.922   2.539  18.909  0.00  0.00    +0.000 A 
ATOM      4  C   UNL     1       0.566   3.199  20.081  0.00  0.00    +0.000 A 
ATOM      5  C   UNL     1       1.170   4.413  20.405  0.00  0.00    +0.000 A 
ATOM      6  C   UNL     1       2.201   4.930  19.606  0.00  0.00    +0.000 A 
ENDROOT
BRANCH   1   7
ATOM      7  N   UNL     1       3.576   4.773  17.565  0.00  0.00    +0.000 N 
ATOM      8  H   UNL     1       3.263   4.957  16.612  0.00  0.00    +0.000 HD
BRANCH   7   9
ATOM      9  S   UNL     1       5.055   3.948  17.542  0.00  0.00    +0.000 S 
ATOM     10  O   UNL     1       4.909   2.680  16.870  0.00  0.00    +0.000 OA
ATOM     11  O   UNL     1       5.597   4.035  18.885  0.00  0.00    +0.000 OA
BRANCH   9  18
ATOM     12  C   UNL     1       5.679   3.896  14.195  0.00  0.00    +0.000 C 
ATOM     13  C   UNL     1       6.364   4.746  15.198  0.00  0.00    +0.000 A 
ATOM     14  N   UNL     1       7.339   5.577  14.804  0.00  0.00    +0.000 NA
ATOM     15  O   UNL     1       7.773   6.225  15.946  0.00  0.00    +0.000 OA
ATOM     16  C   UNL     1       7.068   5.779  17.023  0.00  0.00    +0.000 A 
ATOM     17  C   UNL     1       7.431   6.369  18.325  0.00  0.00    +0.000 C 
ATOM     18  C   UNL     1       6.163   4.840  16.594  0.00  0.00    +0.000 A 
ENDBRANCH   9  18
ENDBRANCH   7   9
ENDBRANCH   1   7
BRANCH   6  19
ATOM     19  O   UNL     1       2.905   6.078  19.929  0.00  0.00    +0.000 OA
BRANCH  19  20
ATOM     20  C   UNL     1       2.238   7.283  19.853  0.00  0.00    +0.000 A 
ATOM     21  C   UNL     1       1.527   7.818  20.937  0.00  0.00    +0.000 A 
ATOM     22  C   UNL     1       0.773   8.981  20.775  0.00  0.00    +0.000 A 
ATOM     23  C   UNL     1       0.783   9.644  19.551  0.00  0.00    +0.000 A 
ATOM     24  C   UNL     1       1.559   9.147  18.506  0.00  0.00    +0.000 A 
ATOM     25  F   UNL     1       1.580   9.805  17.339  0.00  0.00    +0.000 F 
ATOM     26  C   UNL     1       2.290   7.973  18.644  0.00  0.00    +0.000 A 
ENDBRANCH  19  20
ENDBRANCH   6  19
TORSDOF 5
ENDMDL
MODEL 3
REMARK VINA RESULT:      -9.0      0.417      1.628
REMARK  Name = 
REMARK  7 active torsions:
REMARK  status: ('A' for Active; 'I' for Inactive)
REMARK    1  A    between atoms: C_1  and  C_2
REMARK    2  A    between atoms: C_5  and  C_6
REMARK    3  A    between atoms: C_7  and  S_8
REMARK    4  A    between atoms: S_8  and  N_11
REMARK    5  A    between atoms: N_11  and  C_12
REMARK    6  A    between atoms: C_17  and  O_18
REMARK    7  A    between atoms: O_18  and  C_19
REMARK                            x       y       z     vdW  Elec       q    Type
REMARK                         _______ _______ _______ _____ _____    ______ ____
ROOT
ATOM      1  C   UNL     1       2.552   4.356  18.505  0.00  0.00    +0.000 A 
ATOM      2  C   UNL     1       1.919   3.124  18.323  0.00  0.00    +0.000 A 
ATOM      3  C   UNL     1       1.008   2.657  19.272  0.00  0.00    +0.000 A 
ATOM      4  C   UNL     1       0.677   3.446  20.369  0.00  0.00    +0.000 A 
ATOM      5  C   UNL     1       1.255   4.707  20.516  0.00  0.00    +0.000 A 
ATOM      6  C   UNL     1       2.236   5.148  19.617  0.00  0.00    +0.000 A 
ENDROOT
BRANCH   1   7
ATOM      7  N   UNL     1       3.535   4.778  17.554  0.00  0.00    +0.000 N 
ATOM      8  H   UNL     1       3.161   4.913  16.616  0.00  0.00    +0.000 HD
BRANCH   7   9
ATOM      9  S   UNL     1       4.988   3.910  17.480  0.00  0.00    +0.000 S 
ATOM     10  O   UNL     1       4.811   2.704  16.709  0.00  0.00    +0.000 OA
ATOM     11  O   UNL     1       5.516   3.874  18.831  0.00  0.00    +0.000 OA
BRANCH   9  18
ATOM     12  C   UNL     1       7.175   6.300  18.529  0.00  0.00    +0.000 C 
ATOM     13  C   UNL     1       7.004   5.824  17.135  0.00  0.00    +0.000 A 
ATOM     14  N   UNL     1       7.743   6.366  16.156  0.00  0.00    +0.000 NA
ATOM     15  O   UNL     1       7.363   5.723  14.993  0.00  0.00    +0.000 OA
ATOM     16  C   UNL     1       6.395   4.807  15.268  0.00  0.00    +0.000 A 
ATOM     17  C   UNL     1       5.873   4.048  14.116  0.00  0.00    +0.000 C 
ATOM     18  C   UNL     1       6.135   4.838  16.616  0.00  0.00    +0.000 A 
ENDBRANCH   9  18
ENDBRANCH   7   9
ENDBRANCH   1   7
BRANCH   6  19
ATOM     19  O   UNL     1       2.915   6.346  19.767  0.00  0.00    +0.000 OA
BRANCH  19  20
ATOM     20  C   UNL     1       2.242   7.509  19.457  0.00  0.00    +0.000 A 
ATOM     21  C   UNL     1       2.234   8.051  18.164  0.00  0.00    +0.000 A 
ATOM     22  C   UNL     1       1.636   9.290  17.928  0.00  0.00    +0.000 A 
ATOM     23  C   UNL     1       0.991   9.954  18.967  0.00  0.00    +0.000 A 
ATOM     24  C   UNL     1       0.934   9.366  20.229  0.00  0.00    +0.000 A 
ATOM     25  F   UNL     1       0.291  10.001  21.217  0.00  0.00    +0.000 F 
ATOM     26  C   UNL     1       1.552   8.147  20.486  0.00  0.00    +0.000 A 
ENDBRANCH  19  20
ENDBRANCH   6  19
TORSDOF 5
ENDMDL
MODEL 4
REMARK VINA RESULT:      -8.9      0.971      2.084
REMARK  Name = 
REMARK  7 active torsions:
REMARK  status: ('A' for Active; 'I' for Inactive)
REMARK    1  A    between atoms: C_1  and  C_2
REMARK    2  A    between atoms: C_5  and  C_6
REMARK    3  A    between atoms: C_7  and  S_8
REMARK    4  A    between atoms: S_8  and  N_11
REMARK    5  A    between atoms: N_11  and  C_12
REMARK    6  A    between atoms: C_17  and  O_18
REMARK    7  A    between atoms: O_18  and  C_19
REMARK                            x       y       z     vdW  Elec       q    Type
REMARK                         _______ _______ _______ _____ _____    ______ ____
ROOT
ATOM      1  C   UNL     1       2.494   4.252  18.472  0.00  0.00    +0.000 A 
ATOM      2  C   UNL     1       1.826   3.072  18.138  0.00  0.00    +0.000 A 
ATOM      3  C   UNL     1       0.876   2.534  19.007  0.00  0.00    +0.000 A 
ATOM      4  C   UNL     1       0.542   3.207  20.179  0.00  0.00    +0.000 A 
ATOM      5  C   UNL     1       1.156   4.421  20.480  0.00  0.00    +0.000 A 
ATOM      6  C   UNL     1       2.176   4.926  19.659  0.00  0.00    +0.000 A 
ENDROOT
BRANCH   1   7
ATOM      7  N   UNL     1       3.516   4.743  17.598  0.00  0.00    +0.000 N 
ATOM      8  H   UNL     1       3.191   4.909  16.646  0.00  0.00    +0.000 HD
BRANCH   7   9
ATOM      9  S   UNL     1       4.997   3.920  17.571  0.00  0.00    +0.000 S 
ATOM     10  O   UNL     1       4.862   2.672  16.860  0.00  0.00    +0.000 OA
ATOM     11  O   UNL     1       5.520   3.969  18.923  0.00  0.00    +0.000 OA
BRANCH   9  18
ATOM     12  C   UNL     1       7.292   6.239  18.545  0.00  0.00    +0.000 C 
ATOM     13  C   UNL     1       7.034   5.796  17.154  0.00  0.00    +0.000 A 
ATOM     14  N   UNL     1       7.731   6.342  16.146  0.00  0.00    +0.000 NA
ATOM     15  O   UNL     1       7.274   5.733  14.993  0.00  0.00    +0.000 OA
ATOM     16  C   UNL     1       6.301   4.833  15.302  0.00  0.00    +0.000 A 
ATOM     17  C   UNL     1       5.699   4.111  14.166  0.00  0.00    +0.000 C 
ATOM     18  C   UNL     1       6.116   4.841  16.663  0.00  0.00    +0.000 A 
ENDBRANCH   9  18
ENDBRANCH   7   9
ENDBRANCH   1   7
BRANCH   6  19
ATOM     19  O   UNL     1       2.889   6.074  19.959  0.00  0.00    +0.000 OA
BRANCH  19  20
ATOM     20  C   UNL     1       2.229   7.282  19.872  0.00  0.00    +0.000 A 
ATOM     21  C   UNL     1       1.508   7.823  20.946  0.00  0.00    +0.000 A 
ATOM     22  C   UNL     1       0.761   8.989  20.771  0.00  0.00    +0.000 A 
ATOM     23  C   UNL     1       0.789   9.649  19.546  0.00  0.00    +0.000 A 
ATOM     24  C   UNL     1       1.575   9.146  18.511  0.00  0.00    +0.000 A 
ATOM     25  F   UNL     1       1.614   9.800  17.343  0.00  0.00    +0.000 F 
ATOM     26  C   UNL     1       2.299   7.968  18.662  0.00  0.00    +0.000 A 
ENDBRANCH  19  20
ENDBRANCH   6  19
TORSDOF 5
ENDMDL
MODEL 5
REMARK VINA RESULT:      -8.9      1.222      1.284
REMARK  Name = 
REMARK  7 active torsions:
REMARK  status: ('A' for Active; 'I' for Inactive)
REMARK    1  A    between atoms: C_1  and  C_2
REMARK    2  A    between atoms: C_5  and  C_6
REMARK    3  A    between atoms: C_7  and  S_8
REMARK    4  A    between atoms: S_8  and  N_11
REMARK    5  A    between atoms: N_11  and  C_12
REMARK    6  A    between atoms: C_17  and  O_18
REMARK    7  A    between atoms: O_18  and  C_19
REMARK                            x       y       z     vdW  Elec       q    Type
REMARK                         _______ _______ _______ _____ _____    ______ ____
ROOT
ATOM      1  C   UNL     1       2.635   4.263  18.512  0.00  0.00    +0.000 A 
ATOM      2  C   UNL     1       2.029   3.015  18.348  0.00  0.00    +0.000 A 
ATOM      3  C   UNL     1       1.166   2.520  19.327  0.00  0.00    +0.000 A 
ATOM      4  C   UNL     1       0.855   3.297  20.439  0.00  0.00    +0.000 A 
ATOM      5  C   UNL     1       1.404   4.572  20.571  0.00  0.00    +0.000 A 
ATOM      6  C   UNL     1       2.340   5.042  19.639  0.00  0.00    +0.000 A 
ENDROOT
BRANCH   1   7
ATOM      7  N   UNL     1       3.572   4.714  17.528  0.00  0.00    +0.000 N 
ATOM      8  H   UNL     1       3.271   4.538  16.570  0.00  0.00    +0.000 HD
BRANCH   7   9
ATOM      9  S   UNL     1       5.195   4.269  17.717  0.00  0.00    +0.000 S 
ATOM     10  O   UNL     1       5.618   3.439  16.615  0.00  0.00    +0.000 OA
ATOM     11  O   UNL     1       5.346   3.834  19.093  0.00  0.00    +0.000 OA
BRANCH   9  18
ATOM     12  C   UNL     1       5.126   6.885  15.539  0.00  0.00    +0.000 C 
ATOM     13  C   UNL     1       6.069   6.715  16.671  0.00  0.00    +0.000 A 
ATOM     14  N   UNL     1       7.013   7.642  16.889  0.00  0.00    +0.000 NA
ATOM     15  O   UNL     1       7.721   7.212  17.996  0.00  0.00    +0.000 OA
ATOM     16  C   UNL     1       7.212   6.028  18.435  0.00  0.00    +0.000 A 
ATOM     17  C   UNL     1       7.878   5.430  19.607  0.00  0.00    +0.000 C 
ATOM     18  C   UNL     1       6.162   5.675  17.623  0.00  0.00    +0.000 A 
ENDBRANCH   9  18
ENDBRANCH   7   9
ENDBRANCH   1   7
BRANCH   6  19
ATOM     19  O   UNL     1       2.993   6.257  19.769  0.00  0.00    +0.000 OA
BRANCH  19  20
ATOM     20  C   UNL     1       2.292   7.400  19.443  0.00  0.00    +0.000 A 
ATOM     21  C   UNL     1       2.277   7.928  18.145  0.00  0.00    +0.000 A 
ATOM     22  C   UNL     1       1.651   9.150  17.892  0.00  0.00    +0.000 A 
ATOM     23  C   UNL     1       0.984   9.808  18.921  0.00  0.00    +0.000 A 
ATOM     24  C   UNL     1       0.936   9.233  20.189  0.00  0.00    +0.000 A 
ATOM     25  F   UNL     1       0.272   9.862  21.167  0.00  0.00    +0.000 F 
ATOM     26  C   UNL     1       1.582   8.032  20.462  0.00  0.00    +0.000 A 
ENDBRANCH  19  20
ENDBRANCH   6  19
TORSDOF 5
ENDMDL
MODEL 6
REMARK VINA RESULT:      -8.8      1.493      1.817
REMARK  Name = 
REMARK  7 active torsions:
REMARK  status: ('A' for Active; 'I' for Inactive)
REMARK    1  A    between atoms: C_1  and  C_2
REMARK    2  A    between atoms: C_5  and  C_6
REMARK    3  A    between atoms: C_7  and  S_8
REMARK    4  A    between atoms: S_8  and  N_11
REMARK    5  A    between atoms: N_11  and  C_12
REMARK    6  A    between atoms: C_17  and  O_18
REMARK    7  A    between atoms: O_18  and  C_19
REMARK                            x       y       z     vdW  Elec       q    Type
REMARK                         _______ _______ _______ _____ _____    ______ ____
ROOT
ATOM      1  C   UNL     1       2.533   4.245  18.473  0.00  0.00    +0.000 A 
ATOM      2  C   UNL     1       1.885   3.049  18.153  0.00  0.00    +0.000 A 
ATOM      3  C   UNL     1       0.987   2.475  19.055  0.00  0.00    +0.000 A 
ATOM      4  C   UNL     1       0.682   3.127  20.246  0.00  0.00    +0.000 A 
ATOM      5  C   UNL     1       1.273   4.356  20.535  0.00  0.00    +0.000 A 
ATOM      6  C   UNL     1       2.243   4.897  19.679  0.00  0.00    +0.000 A 
ENDROOT
BRANCH   1   7
ATOM      7  N   UNL     1       3.503   4.773  17.563  0.00  0.00    +0.000 N 
ATOM      8  H   UNL     1       3.227   4.697  16.585  0.00  0.00    +0.000 HD
BRANCH   7   9
ATOM      9  S   UNL     1       5.114   4.282  17.751  0.00  0.00    +0.000 S 
ATOM     10  O   UNL     1       5.505   3.425  16.658  0.00  0.00    +0.000 OA
ATOM     11  O   UNL     1       5.259   3.862  19.132  0.00  0.00    +0.000 OA
BRANCH   9  18
ATOM     12  C   UNL     1       5.100   6.877  15.547  0.00  0.00    +0.000 C 
ATOM     13  C   UNL     1       6.049   6.691  16.670  0.00  0.00    +0.000 A 
ATOM     14  N   UNL     1       7.023   7.590  16.869  0.00  0.00    +0.000 NA
ATOM     15  O   UNL     1       7.730   7.150  17.973  0.00  0.00    +0.000 OA
ATOM     16  C   UNL     1       7.190   5.986  18.429  0.00  0.00    +0.000 A 
ATOM     17  C   UNL     1       7.851   5.380  19.600  0.00  0.00    +0.000 C 
ATOM     18  C   UNL     1       6.122   5.658  17.632  0.00  0.00    +0.000 A 
ENDBRANCH   9  18
ENDBRANCH   7   9
ENDBRANCH   1   7
BRANCH   6  19
ATOM     19  O   UNL     1       2.936   6.063  19.962  0.00  0.00    +0.000 OA
BRANCH  19  20
ATOM     20  C   UNL     1       2.249   7.256  19.872  0.00  0.00    +0.000 A 
ATOM     21  C   UNL     1       1.505   7.777  20.940  0.00  0.00    +0.000 A 
ATOM     22  C   UNL     1       0.734   8.926  20.762  0.00  0.00    +0.000 A 
ATOM     23  C   UNL     1       0.759   9.590  19.539  0.00  0.00    +0.000 A 
ATOM     24  C   UNL     1       1.567   9.109  18.511  0.00  0.00    +0.000 A 
ATOM     25  F   UNL     1       1.603   9.768  17.346  0.00  0.00    +0.000 F 
ATOM     26  C   UNL     1       2.316   7.948  18.665  0.00  0.00    +0.000 A 
ENDBRANCH  19  20
ENDBRANCH   6  19
TORSDOF 5
ENDMDL
MODEL 7
REMARK VINA RESULT:      -8.8      1.252      1.813
REMARK  Name = 
REMARK  7 active torsions:
REMARK  status: ('A' for Active; 'I' for Inactive)
REMARK    1  A    between atoms: C_1  and  C_2
REMARK    2  A    between atoms: C_5  and  C_6
REMARK    3  A    between atoms: C_7  and  S_8
REMARK    4  A    between atoms: S_8  and  N_11
REMARK    5  A    between atoms: N_11  and  C_12
REMARK    6  A    between atoms: C_17  and  O_18
REMARK    7  A    between atoms: O_18  and  C_19
REMARK                            x       y       z     vdW  Elec       q    Type
REMARK                         _______ _______ _______ _____ _____    ______ ____
ROOT
ATOM      1  C   UNL     1       2.622   4.253  18.519  0.00  0.00    +0.000 A 
ATOM      2  C   UNL     1       2.014   3.007  18.347  0.00  0.00    +0.000 A 
ATOM      3  C   UNL     1       1.158   2.502  19.328  0.00  0.00    +0.000 A 
ATOM      4  C   UNL     1       0.855   3.268  20.449  0.00  0.00    +0.000 A 
ATOM      5  C   UNL     1       1.405   4.542  20.590  0.00  0.00    +0.000 A 
ATOM      6  C   UNL     1       2.334   5.021  19.655  0.00  0.00    +0.000 A 
ENDROOT
BRANCH   1   7
ATOM      7  N   UNL     1       3.551   4.713  17.533  0.00  0.00    +0.000 N 
ATOM      8  H   UNL     1       3.253   4.529  16.576  0.00  0.00    +0.000 HD
BRANCH   7   9
ATOM      9  S   UNL     1       5.181   4.292  17.723  0.00  0.00    +0.000 S 
ATOM     10  O   UNL     1       5.595   3.403  16.664  0.00  0.00    +0.000 OA
ATOM     11  O   UNL     1       5.355   3.938  19.119  0.00  0.00    +0.000 OA
BRANCH   9  18
ATOM     12  C   UNL     1       7.859   5.429  19.491  0.00  0.00    +0.000 C 
ATOM     13  C   UNL     1       7.233   6.100  18.327  0.00  0.00    +0.000 A 
ATOM     14  N   UNL     1       7.718   7.275  17.902  0.00  0.00    +0.000 NA
ATOM     15  O   UNL     1       6.939   7.639  16.819  0.00  0.00    +0.000 OA
ATOM     16  C   UNL     1       5.986   6.693  16.600  0.00  0.00    +0.000 A 
ATOM     17  C   UNL     1       5.061   6.951  15.480  0.00  0.00    +0.000 C 
ATOM     18  C   UNL     1       6.135   5.698  17.534  0.00  0.00    +0.000 A 
ENDBRANCH   9  18
ENDBRANCH   7   9
ENDBRANCH   1   7
BRANCH   6  19
ATOM     19  O   UNL     1       2.988   6.234  19.793  0.00  0.00    +0.000 OA
BRANCH  19  20
ATOM     20  C   UNL     1       2.298   7.378  19.448  0.00  0.00    +0.000 A 
ATOM     21  C   UNL     1       2.299   7.892  18.143  0.00  0.00    +0.000 A 
ATOM     22  C   UNL     1       1.682   9.114  17.872  0.00  0.00    +0.000 A 
ATOM     23  C   UNL     1       1.009   9.788  18.887  0.00  0.00    +0.000 A 
ATOM     24  C   UNL     1       0.945   9.227  20.160  0.00  0.00    +0.000 A 
ATOM     25  F   UNL     1       0.275   9.871  21.125  0.00  0.00    +0.000 F 
ATOM     26  C   UNL     1       1.581   8.025  20.453  0.00  0.00    +0.000 A 
ENDBRANCH  19  20
ENDBRANCH   6  19
TORSDOF 5
ENDMDL
MODEL 8
REMARK VINA RESULT:      -8.7      2.563      4.824
REMARK  Name = 
REMARK  7 active torsions:
REMARK  status: ('A' for Active; 'I' for Inactive)
REMARK    1  A    between atoms: C_1  and  C_2
REMARK    2  A    between atoms: C_5  and  C_6
REMARK    3  A    between atoms: C_7  and  S_8
REMARK    4  A    between atoms: S_8  and  N_11
REMARK    5  A    between atoms: N_11  and  C_12
REMARK    6  A    between atoms: C_17  and  O_18
REMARK    7  A    between atoms: O_18  and  C_19
REMARK                            x       y       z     vdW  Elec       q    Type
REMARK                         _______ _______ _______ _____ _____    ______ ____
ROOT
ATOM      1  C   UNL     1       3.082   6.996  18.180  0.00  0.00    +0.000 A 
ATOM      2  C   UNL     1       2.560   8.164  17.620  0.00  0.00    +0.000 A 
ATOM      3  C   UNL     1       1.704   8.978  18.365  0.00  0.00    +0.000 A 
ATOM      4  C   UNL     1       1.422   8.663  19.691  0.00  0.00    +0.000 A 
ATOM      5  C   UNL     1       1.997   7.535  20.274  0.00  0.00    +0.000 A 
ATOM      6  C   UNL     1       2.786   6.663  19.509  0.00  0.00    +0.000 A 
ENDROOT
BRANCH   1   7
ATOM      7  N   UNL     1       3.897   6.143  17.370  0.00  0.00    +0.000 N 
ATOM      8  H   UNL     1       4.069   5.229  17.787  0.00  0.00    +0.000 HD
BRANCH   7   9
ATOM      9  S   UNL     1       5.340   6.780  16.753  0.00  0.00    +0.000 S 
ATOM     10  O   UNL     1       5.806   7.861  17.587  0.00  0.00    +0.000 OA
ATOM     11  O   UNL     1       5.137   6.957  15.327  0.00  0.00    +0.000 OA
BRANCH   9  18
ATOM     12  C   UNL     1       7.212   5.699  19.383  0.00  0.00    +0.000 C 
ATOM     13  C   UNL     1       7.292   5.198  17.991  0.00  0.00    +0.000 A 
ATOM     14  N   UNL     1       8.180   4.242  17.682  0.00  0.00    +0.000 NA
ATOM     15  O   UNL     1       8.014   3.988  16.333  0.00  0.00    +0.000 OA
ATOM     16  C   UNL     1       7.038   4.793  15.831  0.00  0.00    +0.000 A 
ATOM     17  C   UNL     1       6.756   4.651  14.390  0.00  0.00    +0.000 C 
ATOM     18  C   UNL     1       6.553   5.578  16.848  0.00  0.00    +0.000 A 
ENDBRANCH   9  18
ENDBRANCH   7   9
ENDBRANCH   1   7
BRANCH   6  19
ATOM     19  O   UNL     1       3.303   5.478  20.005  0.00  0.00    +0.000 OA
BRANCH  19  20
ATOM     20  C   UNL     1       2.670   4.304  19.653  0.00  0.00    +0.000 A 
ATOM     21  C   UNL     1       1.288   4.122  19.801  0.00  0.00    +0.000 A 
ATOM     22  C   UNL     1       0.714   2.877  19.541  0.00  0.00    +0.000 A 
ATOM     23  C   UNL     1       1.509   1.836  19.069  0.00  0.00    +0.000 A 
ATOM     24  C   UNL     1       2.867   2.054  18.847  0.00  0.00    +0.000 A 
ATOM     25  F   UNL     1       3.619   1.053  18.371  0.00  0.00    +0.000 F 
ATOM     26  C   UNL     1       3.458   3.280  19.132  0.00  0.00    +0.000 A 
ENDBRANCH  19  20
ENDBRANCH   6  19
TORSDOF 5
ENDMDL
MODEL 9
REMARK VINA RESULT:      -8.6      2.290      4.642
REMARK  Name = 
REMARK  7 active torsions:
REMARK  status: ('A' for Active; 'I' for Inactive)
REMARK    1  A    between atoms: C_1  and  C_2
REMARK    2  A    between atoms: C_5  and  C_6
REMARK    3  A    between atoms: C_7  and  S_8
REMARK    4  A    between atoms: S_8  and  N_11
REMARK    5  A    between atoms: N_11  and  C_12
REMARK    6  A    between atoms: C_17  and  O_18
REMARK    7  A    between atoms: O_18  and  C_19
REMARK                            x       y       z     vdW  Elec       q    Type
REMARK                         _______ _______ _______ _____ _____    ______ ____
ROOT
ATOM      1  C   UNL     1       3.061   7.062  18.058  0.00  0.00    +0.000 A 
ATOM      2  C   UNL     1       2.485   8.193  17.475  0.00  0.00    +0.000 A 
ATOM      3  C   UNL     1       1.627   9.006  18.218  0.00  0.00    +0.000 A 
ATOM      4  C   UNL     1       1.397   8.731  19.563  0.00  0.00    +0.000 A 
ATOM      5  C   UNL     1       2.027   7.644  20.166  0.00  0.00    +0.000 A 
ATOM      6  C   UNL     1       2.818   6.769  19.407  0.00  0.00    +0.000 A 
ENDROOT
BRANCH   1   7
ATOM      7  N   UNL     1       3.877   6.206  17.253  0.00  0.00    +0.000 N 
ATOM      8  H   UNL     1       4.019   5.281  17.658  0.00  0.00    +0.000 HD
BRANCH   7   9
ATOM      9  S   UNL     1       5.348   6.822  16.682  0.00  0.00    +0.000 S 
ATOM     10  O   UNL     1       5.811   7.886  17.539  0.00  0.00    +0.000 OA
ATOM     11  O   UNL     1       5.187   7.017  15.253  0.00  0.00    +0.000 OA
BRANCH   9  18
ATOM     12  C   UNL     1       7.161   5.713  19.342  0.00  0.00    +0.000 C 
ATOM     13  C   UNL     1       7.251   5.206  17.952  0.00  0.00    +0.000 A 
ATOM     14  N   UNL     1       8.124   4.232  17.659  0.00  0.00    +0.000 NA
ATOM     15  O   UNL     1       7.972   3.977  16.309  0.00  0.00    +0.000 OA
ATOM     16  C   UNL     1       7.020   4.800  15.790  0.00  0.00    +0.000 A 
ATOM     17  C   UNL     1       6.756   4.658  14.346  0.00  0.00    +0.000 C 
ATOM     18  C   UNL     1       6.535   5.597  16.798  0.00  0.00    +0.000 A 
ENDBRANCH   9  18
ENDBRANCH   7   9
ENDBRANCH   1   7
BRANCH   6  19
ATOM     19  O   UNL     1       3.388   5.620  19.928  0.00  0.00    +0.000 OA
BRANCH  19  20
ATOM     20  C   UNL     1       2.550   4.565  20.226  0.00  0.00    +0.000 A 
ATOM     21  C   UNL     1       2.428   4.044  21.521  0.00  0.00    +0.000 A 
ATOM     22  C   UNL     1       1.657   2.903  21.748  0.00  0.00    +0.000 A 
ATOM     23  C   UNL     1       0.954   2.326  20.695  0.00  0.00    +0.000 A 
ATOM     24  C   UNL     1       1.017   2.902  19.428  0.00  0.00    +0.000 A 
ATOM     25  F   UNL     1       0.319   2.352  18.425  0.00  0.00    +0.000 F 
ATOM     26  C   UNL     1       1.807   4.020  19.181  0.00  0.00    +0.000 A 
ENDBRANCH  19  20
ENDBRANCH   6  19
TORSDOF 5
ENDMDL
