MODEL 1
REMARK VINA RESULT:      -8.1      0.000      0.000
REMARK  Name = 
REMARK  4 active torsions:
REMARK  status: ('A' for Active; 'I' for Inactive)
REMARK    1  A    between atoms: C_1  and  N_2
REMARK    2  A    between atoms: C_7  and  C_8
REMARK    3  A    between atoms: N_10  and  C_11
REMARK    4  A    between atoms: C_16  and  N_17
REMARK                            x       y       z     vdW  Elec       q    Type
REMARK                         _______ _______ _______ _____ _____    ______ ____
ROOT
ATOM      1  C   UNL     1       3.862   2.828  18.402  0.00  0.00    +0.000 C 
ATOM      2  C   UNL     1       2.506   3.525  18.146  0.00  0.00    +0.000 C 
ATOM      3  C   UNL     1       2.542   3.867  19.592  0.00  0.00    +0.000 C 
ATOM      4  C   UNL     1       3.469   2.749  19.896  0.00  0.00    +0.000 C 
ATOM      5  C   UNL     1       1.405   4.349  20.425  0.00  0.00    +0.000 C 
ATOM      6  C   UNL     1       2.600   5.239  20.195  0.00  0.00    +0.000 C 
ENDROOT
BRANCH   6   7
ATOM      7  N   UNL     1       2.500   6.431  19.356  0.00  0.00    +0.000 N 
ATOM      8  C   UNL     1       1.915   7.502  19.912  0.00  0.00    +0.000 A 
ATOM      9  N   UNL     1       1.494   7.679  21.150  0.00  0.00    +0.000 NA
ATOM     10  C   UNL     1       0.900   8.912  21.114  0.00  0.00    +0.000 A 
ATOM     11  C   UNL     1       0.206   9.622  22.100  0.00  0.00    +0.000 A 
ATOM     12  C   UNL     1      -0.254  10.908  21.785  0.00  0.00    +0.000 A 
ATOM     13  C   UNL     1      -0.026  11.469  20.521  0.00  0.00    +0.000 A 
ATOM     14  C   UNL     1       0.643  10.758  19.516  0.00  0.00    +0.000 A 
ATOM     15  C   UNL     1       1.068   9.484  19.864  0.00  0.00    +0.000 A 
ATOM     16  O   UNL     1       1.707   8.568  19.079  0.00  0.00    +0.000 OA
ATOM     17  H   UNL     1       2.424   6.341  18.350  0.00  0.00    +0.000 HD
ENDBRANCH   6   7
BRANCH   1  20
ATOM     18  C   UNL     1       5.528   3.859  16.845  0.00  0.00    +0.000 C 
ATOM     19  O   UNL     1       5.063   3.257  15.878  0.00  0.00    +0.000 OA
ATOM     20  N   UNL     1       5.050   3.682  18.130  0.00  0.00    +0.000 N 
ATOM     21  H   UNL     1       5.392   4.302  18.860  0.00  0.00    +0.000 HD
BRANCH  18  28
ATOM     22  C   UNL     1       5.400   6.664  15.539  0.00  0.00    +0.000 C 
ATOM     23  N   UNL     1       6.263   6.220  16.610  0.00  0.00    +0.000 N 
ATOM     24  C   UNL     1       6.871   7.075  17.507  0.00  0.00    +0.000 C 
ATOM     25  O   UNL     1       6.726   8.282  17.575  0.00  0.00    +0.000 OA
ATOM     26  C   UNL     1       7.822   6.277  18.355  0.00  0.00    +0.000 C 
ATOM     27  C   UNL     1       7.532   4.821  18.011  0.00  0.00    +0.000 C 
ATOM     28  C   UNL     1       6.707   4.843  16.728  0.00  0.00    +0.000 C 
ENDBRANCH  18  28
ENDBRANCH   1  20
TORSDOF 3
ENDMDL
MODEL 2
REMARK VINA RESULT:      -8.0      6.120      9.082
REMARK  Name = 
REMARK  4 active torsions:
REMARK  status: ('A' for Active; 'I' for Inactive)
REMARK    1  A    between atoms: C_1  and  N_2
REMARK    2  A    between atoms: C_7  and  C_8
REMARK    3  A    between atoms: N_10  and  C_11
REMARK    4  A    between atoms: C_16  and  N_17
REMARK                            x       y       z     vdW  Elec       q    Type
REMARK                         _______ _______ _______ _____ _____    ______ ____
ROOT
ATOM      1  C   UNL     1      -1.572  10.263  17.584  0.00  0.00    +0.000 C 
ATOM      2  C   UNL     1      -2.217  11.609  17.180  0.00  0.00    +0.000 C 
ATOM      3  C   UNL     1      -3.503  10.975  17.570  0.00  0.00    +0.000 C 
ATOM      4  C   UNL     1      -2.958   9.609  17.379  0.00  0.00    +0.000 C 
ATOM      5  C   UNL     1      -4.874  11.455  17.237  0.00  0.00    +0.000 C 
ATOM      6  C   UNL     1      -4.423  11.403  18.675  0.00  0.00    +0.000 C 
ENDROOT
BRANCH   6   7
ATOM      7  N   UNL     1      -4.169  12.628  19.429  0.00  0.00    +0.000 N 
ATOM      8  C   UNL     1      -4.935  12.828  20.513  0.00  0.00    +0.000 A 
ATOM      9  N   UNL     1      -5.830  12.033  21.064  0.00  0.00    +0.000 NA
ATOM     10  C   UNL     1      -6.359  12.795  22.071  0.00  0.00    +0.000 A 
ATOM     11  C   UNL     1      -7.401  12.530  22.968  0.00  0.00    +0.000 A 
ATOM     12  C   UNL     1      -7.692  13.495  23.942  0.00  0.00    +0.000 A 
ATOM     13  C   UNL     1      -6.962  14.690  24.019  0.00  0.00    +0.000 A 
ATOM     14  C   UNL     1      -5.936  14.979  23.110  0.00  0.00    +0.000 A 
ATOM     15  C   UNL     1      -5.690  14.004  22.153  0.00  0.00    +0.000 A 
ATOM     16  O   UNL     1      -4.781  14.037  21.135  0.00  0.00    +0.000 OA
ATOM     17  H   UNL     1      -3.821  13.454  18.957  0.00  0.00    +0.000 HD
ENDBRANCH   6   7
BRANCH   1  20
ATOM     18  C   UNL     1       0.263  10.040  19.270  0.00  0.00    +0.000 C 
ATOM     19  O   UNL     1       1.101   9.822  18.396  0.00  0.00    +0.000 OA
ATOM     20  N   UNL     1      -1.079  10.217  18.987  0.00  0.00    +0.000 N 
ATOM     21  H   UNL     1      -1.694  10.518  19.738  0.00  0.00    +0.000 HD
BRANCH  18  28
ATOM     22  C   UNL     1       0.507  12.634  20.944  0.00  0.00    +0.000 C 
ATOM     23  N   UNL     1       0.121  11.317  21.397  0.00  0.00    +0.000 N 
ATOM     24  C   UNL     1      -0.603  11.085  22.547  0.00  0.00    +0.000 C 
ATOM     25  O   UNL     1      -1.071  11.925  23.296  0.00  0.00    +0.000 OA
ATOM     26  C   UNL     1      -0.659   9.602  22.784  0.00  0.00    +0.000 C 
ATOM     27  C   UNL     1      -0.085   8.978  21.518  0.00  0.00    +0.000 C 
ATOM     28  C   UNL     1       0.617  10.106  20.768  0.00  0.00    +0.000 C 
ENDBRANCH  18  28
ENDBRANCH   1  20
TORSDOF 3
ENDMDL
MODEL 3
REMARK VINA RESULT:      -7.9      1.136      1.274
REMARK  Name = 
REMARK  4 active torsions:
REMARK  status: ('A' for Active; 'I' for Inactive)
REMARK    1  A    between atoms: C_1  and  N_2
REMARK    2  A    between atoms: C_7  and  C_8
REMARK    3  A    between atoms: N_10  and  C_11
REMARK    4  A    between atoms: C_16  and  N_17
REMARK                            x       y       z     vdW  Elec       q    Type
REMARK                         _______ _______ _______ _____ _____    ______ ____
ROOT
ATOM      1  C   UNL     1       3.611   2.209  19.364  0.00  0.00    +0.000 C 
ATOM      2  C   UNL     1       2.455   3.017  18.729  0.00  0.00    +0.000 C 
ATOM      3  C   UNL     1       2.303   3.632  20.073  0.00  0.00    +0.000 C 
ATOM      4  C   UNL     1       2.962   2.483  20.741  0.00  0.00    +0.000 C 
ATOM      5  C   UNL     1       1.139   4.419  20.570  0.00  0.00    +0.000 C 
ATOM      6  C   UNL     1       2.489   5.076  20.432  0.00  0.00    +0.000 C 
ENDROOT
BRANCH   6   7
ATOM      7  N   UNL     1       2.736   6.080  19.399  0.00  0.00    +0.000 N 
ATOM      8  C   UNL     1       2.186   7.287  19.599  0.00  0.00    +0.000 A 
ATOM      9  N   UNL     1       1.527   7.744  20.646  0.00  0.00    +0.000 NA
ATOM     10  C   UNL     1       1.123   8.991  20.251  0.00  0.00    +0.000 A 
ATOM     11  C   UNL     1       0.325   9.941  20.899  0.00  0.00    +0.000 A 
ATOM     12  C   UNL     1       0.119  11.172  20.261  0.00  0.00    +0.000 A 
ATOM     13  C   UNL     1       0.695  11.446  19.012  0.00  0.00    +0.000 A 
ATOM     14  C   UNL     1       1.472  10.493  18.341  0.00  0.00    +0.000 A 
ATOM     15  C   UNL     1       1.639   9.283  19.000  0.00  0.00    +0.000 A 
ATOM     16  O   UNL     1       2.311   8.177  18.567  0.00  0.00    +0.000 OA
ATOM     17  H   UNL     1       2.875   5.796  18.437  0.00  0.00    +0.000 HD
ENDBRANCH   6   7
BRANCH   1  20
ATOM     18  C   UNL     1       5.187   3.777  18.216  0.00  0.00    +0.000 C 
ATOM     19  O   UNL     1       4.335   4.100  17.389  0.00  0.00    +0.000 OA
ATOM     20  N   UNL     1       4.954   2.825  19.191  0.00  0.00    +0.000 N 
ATOM     21  H   UNL     1       5.655   2.698  19.917  0.00  0.00    +0.000 HD
BRANCH  18  28
ATOM     22  C   UNL     1       6.856   4.490  15.707  0.00  0.00    +0.000 C 
ATOM     23  N   UNL     1       6.903   5.110  17.012  0.00  0.00    +0.000 N 
ATOM     24  C   UNL     1       7.387   6.382  17.237  0.00  0.00    +0.000 C 
ATOM     25  O   UNL     1       7.771   7.175  16.397  0.00  0.00    +0.000 OA
ATOM     26  C   UNL     1       7.442   6.614  18.722  0.00  0.00    +0.000 C 
ATOM     27  C   UNL     1       6.718   5.421  19.336  0.00  0.00    +0.000 C 
ATOM     28  C   UNL     1       6.606   4.377  18.229  0.00  0.00    +0.000 C 
ENDBRANCH  18  28
ENDBRANCH   1  20
TORSDOF 3
ENDMDL
MODEL 4
REMARK VINA RESULT:      -7.8      1.828      6.147
REMARK  Name = 
REMARK  4 active torsions:
REMARK  status: ('A' for Active; 'I' for Inactive)
REMARK    1  A    between atoms: C_1  and  N_2
REMARK    2  A    between atoms: C_7  and  C_8
REMARK    3  A    between atoms: N_10  and  C_11
REMARK    4  A    between atoms: C_16  and  N_17
REMARK                            x       y       z     vdW  Elec       q    Type
REMARK                         _______ _______ _______ _____ _____    ______ ____
ROOT
ATOM      1  C   UNL     1       1.428   3.868  20.824  0.00  0.00    +0.000 C 
ATOM      2  C   UNL     1       2.504   2.801  21.131  0.00  0.00    +0.000 C 
ATOM      3  C   UNL     1       2.539   2.582  19.662  0.00  0.00    +0.000 C 
ATOM      4  C   UNL     1       1.174   3.136  19.485  0.00  0.00    +0.000 C 
ATOM      5  C   UNL     1       3.144   1.425  18.945  0.00  0.00    +0.000 C 
ATOM      6  C   UNL     1       3.702   2.811  18.742  0.00  0.00    +0.000 C 
ENDROOT
BRANCH   6   7
ATOM      7  N   UNL     1       5.013   3.179  19.269  0.00  0.00    +0.000 N 
ATOM      8  C   UNL     1       5.502   4.364  18.873  0.00  0.00    +0.000 A 
ATOM      9  N   UNL     1       4.932   5.304  18.145  0.00  0.00    +0.000 NA
ATOM     10  C   UNL     1       5.928   6.229  17.979  0.00  0.00    +0.000 A 
ATOM     11  C   UNL     1       5.958   7.418  17.241  0.00  0.00    +0.000 A 
ATOM     12  C   UNL     1       7.119   8.201  17.302  0.00  0.00    +0.000 A 
ATOM     13  C   UNL     1       8.218   7.808  18.079  0.00  0.00    +0.000 A 
ATOM     14  C   UNL     1       8.211   6.607  18.800  0.00  0.00    +0.000 A 
ATOM     15  C   UNL     1       7.049   5.855  18.701  0.00  0.00    +0.000 A 
ATOM     16  O   UNL     1       6.784   4.640  19.264  0.00  0.00    +0.000 OA
ATOM     17  H   UNL     1       5.689   2.460  19.500  0.00  0.00    +0.000 HD
ENDBRANCH   6   7
BRANCH   1  20
ATOM     18  C   UNL     1       1.125   6.348  20.697  0.00  0.00    +0.000 C 
ATOM     19  O   UNL     1      -0.100   6.247  20.755  0.00  0.00    +0.000 OA
ATOM     20  N   UNL     1       1.961   5.248  20.671  0.00  0.00    +0.000 N 
ATOM     21  H   UNL     1       2.963   5.404  20.750  0.00  0.00    +0.000 HD
BRANCH  18  28
ATOM     22  C   UNL     1       2.275   7.615  18.116  0.00  0.00    +0.000 C 
ATOM     23  N   UNL     1       1.767   8.291  19.289  0.00  0.00    +0.000 N 
ATOM     24  C   UNL     1       1.320   9.596  19.286  0.00  0.00    +0.000 C 
ATOM     25  O   UNL     1       1.225  10.332  18.319  0.00  0.00    +0.000 OA
ATOM     26  C   UNL     1       1.039  10.006  20.704  0.00  0.00    +0.000 C 
ATOM     27  C   UNL     1       1.148   8.721  21.516  0.00  0.00    +0.000 C 
ATOM     28  C   UNL     1       1.846   7.707  20.615  0.00  0.00    +0.000 C 
ENDBRANCH  18  28
ENDBRANCH   1  20
TORSDOF 3
ENDMDL
MODEL 5
REMARK VINA RESULT:      -7.8      1.077      1.087
REMARK  Name = 
REMARK  4 active torsions:
REMARK  status: ('A' for Active; 'I' for Inactive)
REMARK    1  A    between atoms: C_1  and  N_2
REMARK    2  A    between atoms: C_7  and  C_8
REMARK    3  A    between atoms: N_10  and  C_11
REMARK    4  A    between atoms: C_16  and  N_17
REMARK                            x       y       z     vdW  Elec       q    Type
REMARK                         _______ _______ _______ _____ _____    ______ ____
ROOT
ATOM      1  C   UNL     1       3.071   2.192  18.058  0.00  0.00    +0.000 C 
ATOM      2  C   UNL     1       1.999   3.278  17.803  0.00  0.00    +0.000 C 
ATOM      3  C   UNL     1       1.881   3.341  19.283  0.00  0.00    +0.000 C 
ATOM      4  C   UNL     1       2.428   1.971  19.447  0.00  0.00    +0.000 C 
ATOM      5  C   UNL     1       0.783   3.974  20.066  0.00  0.00    +0.000 C 
ATOM      6  C   UNL     1       2.186   4.515  20.164  0.00  0.00    +0.000 C 
ENDROOT
BRANCH   6   7
ATOM      7  N   UNL     1       2.535   5.812  19.591  0.00  0.00    +0.000 N 
ATOM      8  C   UNL     1       1.917   6.881  20.117  0.00  0.00    +0.000 A 
ATOM      9  N   UNL     1       1.102   6.952  21.151  0.00  0.00    +0.000 NA
ATOM     10  C   UNL     1       0.709   8.263  21.159  0.00  0.00    +0.000 A 
ATOM     11  C   UNL     1      -0.207   8.938  21.975  0.00  0.00    +0.000 A 
ATOM     12  C   UNL     1      -0.369  10.317  21.781  0.00  0.00    +0.000 A 
ATOM     13  C   UNL     1       0.363  11.002  20.801  0.00  0.00    +0.000 A 
ATOM     14  C   UNL     1       1.262  10.333  19.960  0.00  0.00    +0.000 A 
ATOM     15  C   UNL     1       1.382   8.968  20.175  0.00  0.00    +0.000 A 
ATOM     16  O   UNL     1       2.149   8.073  19.487  0.00  0.00    +0.000 OA
ATOM     17  H   UNL     1       2.817   5.880  18.620  0.00  0.00    +0.000 HD
ENDBRANCH   6   7
BRANCH   1  20
ATOM     18  C   UNL     1       4.806   3.913  17.521  0.00  0.00    +0.000 C 
ATOM     19  O   UNL     1       4.010   4.573  16.854  0.00  0.00    +0.000 OA
ATOM     20  N   UNL     1       4.465   2.709  18.107  0.00  0.00    +0.000 N 
ATOM     21  H   UNL     1       5.130   2.280  18.746  0.00  0.00    +0.000 HD
BRANCH  18  28
ATOM     22  C   UNL     1       6.712   4.974  15.323  0.00  0.00    +0.000 C 
ATOM     23  N   UNL     1       6.719   5.288  16.734  0.00  0.00    +0.000 N 
ATOM     24  C   UNL     1       7.298   6.424  17.262  0.00  0.00    +0.000 C 
ATOM     25  O   UNL     1       7.813   7.336  16.640  0.00  0.00    +0.000 OA
ATOM     26  C   UNL     1       7.265   6.321  18.761  0.00  0.00    +0.000 C 
ATOM     27  C   UNL     1       6.393   5.107  19.056  0.00  0.00    +0.000 C 
ATOM     28  C   UNL     1       6.268   4.344  17.740  0.00  0.00    +0.000 C 
ENDBRANCH  18  28
ENDBRANCH   1  20
TORSDOF 3
ENDMDL
MODEL 6
REMARK VINA RESULT:      -7.6      6.050      8.570
REMARK  Name = 
REMARK  4 active torsions:
REMARK  status: ('A' for Active; 'I' for Inactive)
REMARK    1  A    between atoms: C_1  and  N_2
REMARK    2  A    between atoms: C_7  and  C_8
REMARK    3  A    between atoms: N_10  and  C_11
REMARK    4  A    between atoms: C_16  and  N_17
REMARK                            x       y       z     vdW  Elec       q    Type
REMARK                         _______ _______ _______ _____ _____    ______ ____
ROOT
ATOM      1  C   UNL     1      -1.870   9.989  17.673  0.00  0.00    +0.000 C 
ATOM      2  C   UNL     1      -2.247  11.408  17.186  0.00  0.00    +0.000 C 
ATOM      3  C   UNL     1      -3.576  11.135  17.794  0.00  0.00    +0.000 C 
ATOM      4  C   UNL     1      -3.382   9.667  17.708  0.00  0.00    +0.000 C 
ATOM      5  C   UNL     1      -4.837  11.894  17.564  0.00  0.00    +0.000 C 
ATOM      6  C   UNL     1      -4.214  11.867  18.937  0.00  0.00    +0.000 C 
ENDROOT
BRANCH   6   7
ATOM      7  N   UNL     1      -3.590  13.060  19.505  0.00  0.00    +0.000 N 
ATOM      8  C   UNL     1      -3.588  13.150  20.843  0.00  0.00    +0.000 A 
ATOM      9  N   UNL     1      -3.982  12.270  21.743  0.00  0.00    +0.000 NA
ATOM     10  C   UNL     1      -3.841  12.938  22.929  0.00  0.00    +0.000 A 
ATOM     11  C   UNL     1      -4.163  12.558  24.237  0.00  0.00    +0.000 A 
ATOM     12  C   UNL     1      -3.851  13.446  25.276  0.00  0.00    +0.000 A 
ATOM     13  C   UNL     1      -3.234  14.677  25.015  0.00  0.00    +0.000 A 
ATOM     14  C   UNL     1      -2.931  15.082  23.709  0.00  0.00    +0.000 A 
ATOM     15  C   UNL     1      -3.270  14.181  22.709  0.00  0.00    +0.000 A 
ATOM     16  O   UNL     1      -3.123  14.328  21.360  0.00  0.00    +0.000 OA
ATOM     17  H   UNL     1      -3.596  13.932  18.989  0.00  0.00    +0.000 HD
ENDBRANCH   6   7
BRANCH   1  20
ATOM     18  C   UNL     1       0.161  10.090  19.131  0.00  0.00    +0.000 C 
ATOM     19  O   UNL     1       0.912  10.152  18.158  0.00  0.00    +0.000 OA
ATOM     20  N   UNL     1      -1.209   9.955  19.005  0.00  0.00    +0.000 N 
ATOM     21  H   UNL     1      -1.779  10.037  19.843  0.00  0.00    +0.000 HD
BRANCH  18  28
ATOM     22  C   UNL     1       0.156  12.574  20.980  0.00  0.00    +0.000 C 
ATOM     23  N   UNL     1       0.057  11.182  21.359  0.00  0.00    +0.000 N 
ATOM     24  C   UNL     1      -0.477  10.752  22.556  0.00  0.00    +0.000 C 
ATOM     25  O   UNL     1      -0.989  11.445  23.417  0.00  0.00    +0.000 OA
ATOM     26  C   UNL     1      -0.251   9.270  22.673  0.00  0.00    +0.000 C 
ATOM     27  C   UNL     1       0.268   8.841  21.306  0.00  0.00    +0.000 C 
ATOM     28  C   UNL     1       0.674  10.122  20.583  0.00  0.00    +0.000 C 
ENDBRANCH  18  28
ENDBRANCH   1  20
TORSDOF 3
ENDMDL
MODEL 7
REMARK VINA RESULT:      -7.5      8.254     10.257
REMARK  Name = 
REMARK  4 active torsions:
REMARK  status: ('A' for Active; 'I' for Inactive)
REMARK    1  A    between atoms: C_1  and  N_2
REMARK    2  A    between atoms: C_7  and  C_8
REMARK    3  A    between atoms: N_10  and  C_11
REMARK    4  A    between atoms: C_16  and  N_17
REMARK                            x       y       z     vdW  Elec       q    Type
REMARK                         _______ _______ _______ _____ _____    ______ ____
ROOT
ATOM      1  C   UNL     1       9.233  13.024  17.661  0.00  0.00    +0.000 C 
ATOM      2  C   UNL     1       9.642  11.579  18.029  0.00  0.00    +0.000 C 
ATOM      3  C   UNL     1      10.743  12.213  18.801  0.00  0.00    +0.000 C 
ATOM      4  C   UNL     1      10.684  13.451  17.986  0.00  0.00    +0.000 C 
ATOM      5  C   UNL     1      11.961  11.542  19.336  0.00  0.00    +0.000 C 
ATOM      6  C   UNL     1      10.959  12.151  20.284  0.00  0.00    +0.000 C 
ENDROOT
BRANCH   6   7
ATOM      7  N   UNL     1      10.115  11.311  21.129  0.00  0.00    +0.000 N 
ATOM      8  C   UNL     1       9.097  11.925  21.751  0.00  0.00    +0.000 A 
ATOM      9  N   UNL     1       8.676  13.170  21.640  0.00  0.00    +0.000 NA
ATOM     10  C   UNL     1       7.680  13.256  22.575  0.00  0.00    +0.000 A 
ATOM     11  C   UNL     1       6.899  14.344  22.981  0.00  0.00    +0.000 A 
ATOM     12  C   UNL     1       5.902  14.118  23.940  0.00  0.00    +0.000 A 
ATOM     13  C   UNL     1       5.690  12.840  24.476  0.00  0.00    +0.000 A 
ATOM     14  C   UNL     1       6.483  11.748  24.098  0.00  0.00    +0.000 A 
ATOM     15  C   UNL     1       7.467  12.019  23.158  0.00  0.00    +0.000 A 
ATOM     16  O   UNL     1       8.394  11.160  22.642  0.00  0.00    +0.000 OA
ATOM     17  H   UNL     1      10.505  10.496  21.589  0.00  0.00    +0.000 HD
ENDBRANCH   6   7
BRANCH   1  20
ATOM     18  C   UNL     1       7.671  14.867  18.311  0.00  0.00    +0.000 C 
ATOM     19  O   UNL     1       8.069  15.588  17.397  0.00  0.00    +0.000 OA
ATOM     20  N   UNL     1       8.208  13.618  18.560  0.00  0.00    +0.000 N 
ATOM     21  H   UNL     1       7.749  13.025  19.248  0.00  0.00    +0.000 HD
BRANCH  18  28
ATOM     22  C   UNL     1       7.977  16.960  20.572  0.00  0.00    +0.000 C 
ATOM     23  N   UNL     1       6.784  16.623  19.828  0.00  0.00    +0.000 N 
ATOM     24  C   UNL     1       5.696  17.462  19.707  0.00  0.00    +0.000 C 
ATOM     25  O   UNL     1       5.600  18.598  20.134  0.00  0.00    +0.000 OA
ATOM     26  C   UNL     1       4.590  16.710  19.020  0.00  0.00    +0.000 C 
ATOM     27  C   UNL     1       5.231  15.412  18.543  0.00  0.00    +0.000 C 
ATOM     28  C   UNL     1       6.558  15.295  19.287  0.00  0.00    +0.000 C 
ENDBRANCH  18  28
ENDBRANCH   1  20
TORSDOF 3
ENDMDL
MODEL 8
REMARK VINA RESULT:      -7.4      2.026      4.548
REMARK  Name = 
REMARK  4 active torsions:
REMARK  status: ('A' for Active; 'I' for Inactive)
REMARK    1  A    between atoms: C_1  and  N_2
REMARK    2  A    between atoms: C_7  and  C_8
REMARK    3  A    between atoms: N_10  and  C_11
REMARK    4  A    between atoms: C_16  and  N_17
REMARK                            x       y       z     vdW  Elec       q    Type
REMARK                         _______ _______ _______ _____ _____    ______ ____
ROOT
ATOM      1  C   UNL     1       5.893   4.080  16.937  0.00  0.00    +0.000 C 
ATOM      2  C   UNL     1       6.144   5.289  17.869  0.00  0.00    +0.000 C 
ATOM      3  C   UNL     1       5.288   6.048  16.920  0.00  0.00    +0.000 C 
ATOM      4  C   UNL     1       5.558   5.093  15.818  0.00  0.00    +0.000 C 
ATOM      5  C   UNL     1       5.160   7.529  16.821  0.00  0.00    +0.000 C 
ATOM      6  C   UNL     1       3.967   6.694  17.214  0.00  0.00    +0.000 C 
ENDROOT
BRANCH   6   7
ATOM      7  N   UNL     1       3.437   6.732  18.575  0.00  0.00    +0.000 N 
ATOM      8  C   UNL     1       2.500   7.660  18.823  0.00  0.00    +0.000 A 
ATOM      9  N   UNL     1       1.906   8.493  17.991  0.00  0.00    +0.000 NA
ATOM     10  C   UNL     1       1.126   9.263  18.811  0.00  0.00    +0.000 A 
ATOM     11  C   UNL     1       0.312  10.366  18.529  0.00  0.00    +0.000 A 
ATOM     12  C   UNL     1      -0.423  10.928  19.581  0.00  0.00    +0.000 A 
ATOM     13  C   UNL     1      -0.349  10.403  20.879  0.00  0.00    +0.000 A 
ATOM     14  C   UNL     1       0.483   9.316  21.180  0.00  0.00    +0.000 A 
ATOM     15  C   UNL     1       1.204   8.799  20.114  0.00  0.00    +0.000 A 
ATOM     16  O   UNL     1       2.107   7.775  20.128  0.00  0.00    +0.000 OA
ATOM     17  H   UNL     1       4.018   6.450  19.356  0.00  0.00    +0.000 HD
ENDBRANCH   6   7
BRANCH   1  20
ATOM     18  C   UNL     1       4.547   2.872  18.666  0.00  0.00    +0.000 C 
ATOM     19  O   UNL     1       5.341   3.170  19.558  0.00  0.00    +0.000 OA
ATOM     20  N   UNL     1       4.748   3.221  17.344  0.00  0.00    +0.000 N 
ATOM     21  H   UNL     1       3.994   3.055  16.682  0.00  0.00    +0.000 HD
BRANCH  18  28
ATOM     22  C   UNL     1       3.211   2.467  21.430  0.00  0.00    +0.000 C 
ATOM     23  N   UNL     1       2.578   2.484  20.130  0.00  0.00    +0.000 N 
ATOM     24  C   UNL     1       1.238   2.743  19.935  0.00  0.00    +0.000 C 
ATOM     25  O   UNL     1       0.424   3.053  20.787  0.00  0.00    +0.000 OA
ATOM     26  C   UNL     1       0.912   2.500  18.488  0.00  0.00    +0.000 C 
ATOM     27  C   UNL     1       2.260   2.295  17.808  0.00  0.00    +0.000 C 
ATOM     28  C   UNL     1       3.268   2.054  18.927  0.00  0.00    +0.000 C 
ENDBRANCH  18  28
ENDBRANCH   1  20
TORSDOF 3
ENDMDL
MODEL 9
REMARK VINA RESULT:      -7.4      1.112      1.147
REMARK  Name = 
REMARK  4 active torsions:
REMARK  status: ('A' for Active; 'I' for Inactive)
REMARK    1  A    between atoms: C_1  and  N_2
REMARK    2  A    between atoms: C_7  and  C_8
REMARK    3  A    between atoms: N_10  and  C_11
REMARK    4  A    between atoms: C_16  and  N_17
REMARK                            x       y       z     vdW  Elec       q    Type
REMARK                         _______ _______ _______ _____ _____    ______ ____
ROOT
ATOM      1  C   UNL     1       3.886   2.786  17.571  0.00  0.00    +0.000 C 
ATOM      2  C   UNL     1       2.491   3.401  17.309  0.00  0.00    +0.000 C 
ATOM      3  C   UNL     1       2.526   3.794  18.742  0.00  0.00    +0.000 C 
ATOM      4  C   UNL     1       3.514   2.738  19.071  0.00  0.00    +0.000 C 
ATOM      5  C   UNL     1       1.375   4.244  19.573  0.00  0.00    +0.000 C 
ATOM      6  C   UNL     1       2.518   5.188  19.296  0.00  0.00    +0.000 C 
ENDROOT
BRANCH   6   7
ATOM      7  N   UNL     1       2.346   6.343  18.419  0.00  0.00    +0.000 N 
ATOM      8  C   UNL     1       1.967   7.487  19.010  0.00  0.00    +0.000 A 
ATOM      9  N   UNL     1       1.817   7.758  20.291  0.00  0.00    +0.000 NA
ATOM     10  C   UNL     1       1.324   9.035  20.293  0.00  0.00    +0.000 A 
ATOM     11  C   UNL     1       0.898   9.849  21.348  0.00  0.00    +0.000 A 
ATOM     12  C   UNL     1       0.485  11.155  21.047  0.00  0.00    +0.000 A 
ATOM     13  C   UNL     1       0.499  11.633  19.730  0.00  0.00    +0.000 A 
ATOM     14  C   UNL     1       0.897  10.819  18.661  0.00  0.00    +0.000 A 
ATOM     15  C   UNL     1       1.284   9.531  19.001  0.00  0.00    +0.000 A 
ATOM     16  O   UNL     1       1.681   8.526  18.166  0.00  0.00    +0.000 OA
ATOM     17  H   UNL     1       2.064   6.212  17.455  0.00  0.00    +0.000 HD
ENDBRANCH   6   7
BRANCH   1  20
ATOM     18  C   UNL     1       5.906   4.105  18.234  0.00  0.00    +0.000 C 
ATOM     19  O   UNL     1       5.751   3.829  19.423  0.00  0.00    +0.000 OA
ATOM     20  N   UNL     1       5.023   3.691  17.254  0.00  0.00    +0.000 N 
ATOM     21  H   UNL     1       5.277   3.846  16.281  0.00  0.00    +0.000 HD
BRANCH  18  28
ATOM     22  C   UNL     1       5.741   6.174  15.936  0.00  0.00    +0.000 C 
ATOM     23  N   UNL     1       6.621   6.187  17.082  0.00  0.00    +0.000 N 
ATOM     24  C   UNL     1       7.233   7.325  17.564  0.00  0.00    +0.000 C 
ATOM     25  O   UNL     1       7.081   8.463  17.156  0.00  0.00    +0.000 OA
ATOM     26  C   UNL     1       8.201   6.925  18.642  0.00  0.00    +0.000 C 
ATOM     27  C   UNL     1       7.918   5.450  18.900  0.00  0.00    +0.000 C 
ATOM     28  C   UNL     1       7.076   4.966  17.723  0.00  0.00    +0.000 C 
ENDBRANCH  18  28
ENDBRANCH   1  20
TORSDOF 3
ENDMDL
