MODEL 1
REMARK VINA RESULT:      -8.7      0.000      0.000
REMARK  Name = 
REMARK  3 active torsions:
REMARK  status: ('A' for Active; 'I' for Inactive)
REMARK    1  A    between atoms: C_6  and  N_7
REMARK    2  A    between atoms: N_7  and  C_8
REMARK    3  A    between atoms: N_12  and  C_13
REMARK                            x       y       z     vdW  Elec       q    Type
REMARK                         _______ _______ _______ _____ _____    ______ ____
ROOT
ATOM      1  C   UNL     1       5.004   6.559  17.461  0.00  0.00    +0.000 C 
ATOM      2  C   UNL     1       5.898   5.913  18.526  0.00  0.00    +0.000 C 
ATOM      3  C   UNL     1       6.273   4.483  18.183  0.00  0.00    +0.000 C 
ATOM      4  C   UNL     1       6.976   4.454  16.838  0.00  0.00    +0.000 C 
ATOM      5  N   UNL     1       6.191   5.074  15.780  0.00  0.00    +0.000 N 
ATOM      6  C   UNL     1       5.436   6.231  15.999  0.00  0.00    +0.000 C 
ATOM      7  O   UNL     1       5.094   6.974  15.072  0.00  0.00    +0.000 OA
ENDROOT
BRANCH   5   8
ATOM      8  C   UNL     1       6.482   4.686  14.436  0.00  0.00    +0.000 A 
ATOM      9  C   UNL     1       7.553   5.291  13.760  0.00  0.00    +0.000 A 
ATOM     10  C   UNL     1       7.817   4.984  12.422  0.00  0.00    +0.000 A 
ATOM     11  C   UNL     1       7.036   4.040  11.761  0.00  0.00    +0.000 A 
ATOM     12  C   UNL     1       5.998   3.417  12.442  0.00  0.00    +0.000 A 
ATOM     13  F   UNL     1       5.268   2.483  11.817  0.00  0.00    +0.000 F 
ATOM     14  C   UNL     1       5.701   3.743  13.762  0.00  0.00    +0.000 A 
ENDBRANCH   5   8
BRANCH   1  15
ATOM     15  N   UNL     1       3.585   6.194  17.688  0.00  0.00    +0.000 N 
ATOM     16  H   UNL     1       3.420   5.207  17.853  0.00  0.00    +0.000 HD
BRANCH  15  22
ATOM     17  O   UNL     1      -0.206  11.894  20.033  0.00  0.00    +0.000 OA
ATOM     18  C   UNL     1       0.367  10.848  19.778  0.00  0.00    +0.000 C 
ATOM     19  C   UNL     1       1.016  10.460  18.442  0.00  0.00    +0.000 C 
ATOM     20  C   UNL     1       1.573   9.096  18.745  0.00  0.00    +0.000 A 
ATOM     21  C   UNL     1       2.318   8.235  17.950  0.00  0.00    +0.000 A 
ATOM     22  C   UNL     1       2.739   6.995  18.476  0.00  0.00    +0.000 A 
ATOM     23  C   UNL     1       2.392   6.696  19.813  0.00  0.00    +0.000 A 
ATOM     24  C   UNL     1       1.644   7.571  20.615  0.00  0.00    +0.000 A 
ATOM     25  C   UNL     1       1.253   8.759  20.053  0.00  0.00    +0.000 A 
ATOM     26  N   UNL     1       0.546   9.786  20.653  0.00  0.00    +0.000 N 
ATOM     27  H   UNL     1       0.218   9.798  21.609  0.00  0.00    +0.000 HD
ENDBRANCH  15  22
ENDBRANCH   1  15
TORSDOF 3
ENDMDL
MODEL 2
REMARK VINA RESULT:      -8.6      3.482      7.558
REMARK  Name = 
REMARK  3 active torsions:
REMARK  status: ('A' for Active; 'I' for Inactive)
REMARK    1  A    between atoms: C_6  and  N_7
REMARK    2  A    between atoms: N_7  and  C_8
REMARK    3  A    between atoms: N_12  and  C_13
REMARK                            x       y       z     vdW  Elec       q    Type
REMARK                         _______ _______ _______ _____ _____    ______ ____
ROOT
ATOM      1  C   UNL     1       1.891   2.827  19.141  0.00  0.00    +0.000 C 
ATOM      2  C   UNL     1       1.787   2.574  20.650  0.00  0.00    +0.000 C 
ATOM      3  C   UNL     1       2.498   3.635  21.470  0.00  0.00    +0.000 C 
ATOM      4  C   UNL     1       1.923   4.999  21.139  0.00  0.00    +0.000 C 
ATOM      5  N   UNL     1       1.969   5.298  19.714  0.00  0.00    +0.000 N 
ATOM      6  C   UNL     1       1.709   4.324  18.744  0.00  0.00    +0.000 C 
ATOM      7  O   UNL     1       1.365   4.621  17.594  0.00  0.00    +0.000 OA
ENDROOT
BRANCH   5   8
ATOM      8  C   UNL     1       1.938   6.675  19.333  0.00  0.00    +0.000 A 
ATOM      9  C   UNL     1       2.532   7.069  18.124  0.00  0.00    +0.000 A 
ATOM     10  C   UNL     1       2.580   8.417  17.759  0.00  0.00    +0.000 A 
ATOM     11  C   UNL     1       2.001   9.379  18.582  0.00  0.00    +0.000 A 
ATOM     12  C   UNL     1       1.384   8.983  19.763  0.00  0.00    +0.000 A 
ATOM     13  F   UNL     1       0.797   9.904  20.538  0.00  0.00    +0.000 F 
ATOM     14  C   UNL     1       1.364   7.649  20.156  0.00  0.00    +0.000 A 
ENDBRANCH   5   8
BRANCH   1  15
ATOM     15  N   UNL     1       3.170   2.292  18.617  0.00  0.00    +0.000 N 
ATOM     16  H   UNL     1       3.083   1.453  18.053  0.00  0.00    +0.000 HD
BRANCH  15  22
ATOM     17  O   UNL     1       7.817   5.456  14.061  0.00  0.00    +0.000 OA
ATOM     18  C   UNL     1       7.098   5.034  14.950  0.00  0.00    +0.000 C 
ATOM     19  C   UNL     1       5.840   4.170  14.781  0.00  0.00    +0.000 C 
ATOM     20  C   UNL     1       5.413   3.949  16.206  0.00  0.00    +0.000 A 
ATOM     21  C   UNL     1       4.361   3.203  16.722  0.00  0.00    +0.000 A 
ATOM     22  C   UNL     1       4.174   3.143  18.119  0.00  0.00    +0.000 A 
ATOM     23  C   UNL     1       5.091   3.840  18.937  0.00  0.00    +0.000 A 
ATOM     24  C   UNL     1       6.156   4.587  18.413  0.00  0.00    +0.000 A 
ATOM     25  C   UNL     1       6.290   4.620  17.049  0.00  0.00    +0.000 A 
ATOM     26  N   UNL     1       7.273   5.255  16.310  0.00  0.00    +0.000 N 
ATOM     27  H   UNL     1       8.043   5.789  16.687  0.00  0.00    +0.000 HD
ENDBRANCH  15  22
ENDBRANCH   1  15
TORSDOF 3
ENDMDL
MODEL 3
REMARK VINA RESULT:      -8.6      0.896      1.514
REMARK  Name = 
REMARK  3 active torsions:
REMARK  status: ('A' for Active; 'I' for Inactive)
REMARK    1  A    between atoms: C_6  and  N_7
REMARK    2  A    between atoms: N_7  and  C_8
REMARK    3  A    between atoms: N_12  and  C_13
REMARK                            x       y       z     vdW  Elec       q    Type
REMARK                         _______ _______ _______ _____ _____    ______ ____
ROOT
ATOM      1  C   UNL     1       5.001   6.620  17.530  0.00  0.00    +0.000 C 
ATOM      2  C   UNL     1       5.764   5.832  18.601  0.00  0.00    +0.000 C 
ATOM      3  C   UNL     1       5.948   4.372  18.232  0.00  0.00    +0.000 C 
ATOM      4  C   UNL     1       6.680   4.274  16.907  0.00  0.00    +0.000 C 
ATOM      5  N   UNL     1       6.021   5.020  15.844  0.00  0.00    +0.000 N 
ATOM      6  C   UNL     1       5.428   6.266  16.072  0.00  0.00    +0.000 C 
ATOM      7  O   UNL     1       5.220   7.069  15.155  0.00  0.00    +0.000 OA
ENDROOT
BRANCH   5   8
ATOM      8  C   UNL     1       6.296   4.623  14.499  0.00  0.00    +0.000 A 
ATOM      9  C   UNL     1       7.448   5.107  13.860  0.00  0.00    +0.000 A 
ATOM     10  C   UNL     1       7.706   4.794  12.522  0.00  0.00    +0.000 A 
ATOM     11  C   UNL     1       6.833   3.964  11.824  0.00  0.00    +0.000 A 
ATOM     12  C   UNL     1       5.711   3.459  12.469  0.00  0.00    +0.000 A 
ATOM     13  F   UNL     1       4.889   2.633  11.808  0.00  0.00    +0.000 F 
ATOM     14  C   UNL     1       5.423   3.795  13.788  0.00  0.00    +0.000 A 
ENDBRANCH   5   8
BRANCH   1  15
ATOM     15  N   UNL     1       3.540   6.451  17.710  0.00  0.00    +0.000 N 
ATOM     16  H   UNL     1       3.250   5.526  18.008  0.00  0.00    +0.000 HD
BRANCH  15  22
ATOM     17  O   UNL     1      -0.670   9.914  22.468  0.00  0.00    +0.000 OA
ATOM     18  C   UNL     1       0.029   9.478  21.570  0.00  0.00    +0.000 C 
ATOM     19  C   UNL     1       0.949   8.251  21.636  0.00  0.00    +0.000 C 
ATOM     20  C   UNL     1       1.511   8.201  20.242  0.00  0.00    +0.000 A 
ATOM     21  C   UNL     1       2.376   7.285  19.657  0.00  0.00    +0.000 A 
ATOM     22  C   UNL     1       2.754   7.453  18.308  0.00  0.00    +0.000 A 
ATOM     23  C   UNL     1       2.209   8.551  17.604  0.00  0.00    +0.000 A 
ATOM     24  C   UNL     1       1.332   9.470  18.197  0.00  0.00    +0.000 A 
ATOM     25  C   UNL     1       1.003   9.267  19.512  0.00  0.00    +0.000 A 
ATOM     26  N   UNL     1       0.137  10.013  20.293  0.00  0.00    +0.000 N 
ATOM     27  H   UNL     1      -0.382  10.824  19.990  0.00  0.00    +0.000 HD
ENDBRANCH  15  22
ENDBRANCH   1  15
TORSDOF 3
ENDMDL
MODEL 4
REMARK VINA RESULT:      -8.5      2.963      3.998
REMARK  Name = 
REMARK  3 active torsions:
REMARK  status: ('A' for Active; 'I' for Inactive)
REMARK    1  A    between atoms: C_6  and  N_7
REMARK    2  A    between atoms: N_7  and  C_8
REMARK    3  A    between atoms: N_12  and  C_13
REMARK                            x       y       z     vdW  Elec       q    Type
REMARK                         _______ _______ _______ _____ _____    ______ ____
ROOT
ATOM      1  C   UNL     1       4.929   6.730  17.291  0.00  0.00    +0.000 C 
ATOM      2  C   UNL     1       5.651   5.971  18.411  0.00  0.00    +0.000 C 
ATOM      3  C   UNL     1       5.818   4.494  18.100  0.00  0.00    +0.000 C 
ATOM      4  C   UNL     1       6.582   4.335  16.799  0.00  0.00    +0.000 C 
ATOM      5  N   UNL     1       5.962   5.052  15.693  0.00  0.00    +0.000 N 
ATOM      6  C   UNL     1       5.385   6.316  15.859  0.00  0.00    +0.000 C 
ATOM      7  O   UNL     1       5.214   7.087  14.908  0.00  0.00    +0.000 OA
ENDROOT
BRANCH   5   8
ATOM      8  C   UNL     1       6.264   4.601  14.371  0.00  0.00    +0.000 A 
ATOM      9  C   UNL     1       7.432   5.053  13.738  0.00  0.00    +0.000 A 
ATOM     10  C   UNL     1       7.717   4.687  12.420  0.00  0.00    +0.000 A 
ATOM     11  C   UNL     1       6.855   3.834  11.736  0.00  0.00    +0.000 A 
ATOM     12  C   UNL     1       5.715   3.361  12.376  0.00  0.00    +0.000 A 
ATOM     13  F   UNL     1       4.903   2.513  11.730  0.00  0.00    +0.000 F 
ATOM     14  C   UNL     1       5.401   3.749  13.674  0.00  0.00    +0.000 A 
ENDBRANCH   5   8
BRANCH   1  15
ATOM     15  N   UNL     1       3.460   6.592  17.440  0.00  0.00    +0.000 N 
ATOM     16  H   UNL     1       2.920   6.889  16.634  0.00  0.00    +0.000 HD
BRANCH  15  22
ATOM     17  O   UNL     1       1.289   1.956  22.554  0.00  0.00    +0.000 OA
ATOM     18  C   UNL     1       1.582   2.625  21.578  0.00  0.00    +0.000 C 
ATOM     19  C   UNL     1       2.016   4.097  21.570  0.00  0.00    +0.000 C 
ATOM     20  C   UNL     1       2.265   4.347  20.108  0.00  0.00    +0.000 A 
ATOM     21  C   UNL     1       2.725   5.485  19.458  0.00  0.00    +0.000 A 
ATOM     22  C   UNL     1       2.887   5.465  18.057  0.00  0.00    +0.000 A 
ATOM     23  C   UNL     1       2.588   4.263  17.377  0.00  0.00    +0.000 A 
ATOM     24  C   UNL     1       2.129   3.114  18.037  0.00  0.00    +0.000 A 
ATOM     25  C   UNL     1       1.980   3.188  19.398  0.00  0.00    +0.000 A 
ATOM     26  N   UNL     1       1.579   2.184  20.261  0.00  0.00    +0.000 N 
ATOM     27  H   UNL     1       1.341   1.239  19.997  0.00  0.00    +0.000 HD
ENDBRANCH  15  22
ENDBRANCH   1  15
TORSDOF 3
ENDMDL
MODEL 5
REMARK VINA RESULT:      -8.5      3.051      7.469
REMARK  Name = 
REMARK  3 active torsions:
REMARK  status: ('A' for Active; 'I' for Inactive)
REMARK    1  A    between atoms: C_6  and  N_7
REMARK    2  A    between atoms: N_7  and  C_8
REMARK    3  A    between atoms: N_12  and  C_13
REMARK                            x       y       z     vdW  Elec       q    Type
REMARK                         _______ _______ _______ _____ _____    ______ ____
ROOT
ATOM      1  C   UNL     1       1.880   2.594  19.071  0.00  0.00    +0.000 C 
ATOM      2  C   UNL     1       1.836   2.195  20.551  0.00  0.00    +0.000 C 
ATOM      3  C   UNL     1       2.576   3.176  21.441  0.00  0.00    +0.000 C 
ATOM      4  C   UNL     1       1.985   4.562  21.267  0.00  0.00    +0.000 C 
ATOM      5  N   UNL     1       1.974   4.998  19.877  0.00  0.00    +0.000 N 
ATOM      6  C   UNL     1       1.678   4.121  18.828  0.00  0.00    +0.000 C 
ATOM      7  O   UNL     1       1.288   4.525  17.727  0.00  0.00    +0.000 OA
ENDROOT
BRANCH   5   8
ATOM      8  C   UNL     1       1.925   6.405  19.633  0.00  0.00    +0.000 A 
ATOM      9  C   UNL     1       1.422   7.260  20.625  0.00  0.00    +0.000 A 
ATOM     10  C   UNL     1       1.295   8.631  20.389  0.00  0.00    +0.000 A 
ATOM     11  C   UNL     1       1.706   9.165  19.170  0.00  0.00    +0.000 A 
ATOM     12  C   UNL     1       2.234   8.321  18.201  0.00  0.00    +0.000 A 
ATOM     13  F   UNL     1       2.661   8.839  17.041  0.00  0.00    +0.000 F 
ATOM     14  C   UNL     1       2.330   6.949  18.410  0.00  0.00    +0.000 A 
ENDBRANCH   5   8
BRANCH   1  15
ATOM     15  N   UNL     1       3.138   2.119  18.447  0.00  0.00    +0.000 N 
ATOM     16  H   UNL     1       3.028   1.346  17.800  0.00  0.00    +0.000 HD
BRANCH  15  22
ATOM     17  O   UNL     1       7.824   5.572  14.149  0.00  0.00    +0.000 OA
ATOM     18  C   UNL     1       7.089   5.101  14.999  0.00  0.00    +0.000 C 
ATOM     19  C   UNL     1       5.874   4.194  14.762  0.00  0.00    +0.000 C 
ATOM     20  C   UNL     1       5.403   3.921  16.164  0.00  0.00    +0.000 A 
ATOM     21  C   UNL     1       4.362   3.123  16.621  0.00  0.00    +0.000 A 
ATOM     22  C   UNL     1       4.125   3.021  18.008  0.00  0.00    +0.000 A 
ATOM     23  C   UNL     1       4.984   3.731  18.877  0.00  0.00    +0.000 A 
ATOM     24  C   UNL     1       6.037   4.532  18.412  0.00  0.00    +0.000 A 
ATOM     25  C   UNL     1       6.220   4.604  17.055  0.00  0.00    +0.000 A 
ATOM     26  N   UNL     1       7.204   5.294  16.370  0.00  0.00    +0.000 N 
ATOM     27  H   UNL     1       7.938   5.847  16.788  0.00  0.00    +0.000 HD
ENDBRANCH  15  22
ENDBRANCH   1  15
TORSDOF 3
ENDMDL
MODEL 6
REMARK VINA RESULT:      -8.3      1.607      2.221
REMARK  Name = 
REMARK  3 active torsions:
REMARK  status: ('A' for Active; 'I' for Inactive)
REMARK    1  A    between atoms: C_6  and  N_7
REMARK    2  A    between atoms: N_7  and  C_8
REMARK    3  A    between atoms: N_12  and  C_13
REMARK                            x       y       z     vdW  Elec       q    Type
REMARK                         _______ _______ _______ _____ _____    ______ ____
ROOT
ATOM      1  C   UNL     1       4.311   6.038  17.966  0.00  0.00    +0.000 C 
ATOM      2  C   UNL     1       4.372   4.758  18.806  0.00  0.00    +0.000 C 
ATOM      3  C   UNL     1       4.195   3.503  17.972  0.00  0.00    +0.000 C 
ATOM      4  C   UNL     1       5.262   3.458  16.893  0.00  0.00    +0.000 C 
ATOM      5  N   UNL     1       5.276   4.658  16.068  0.00  0.00    +0.000 N 
ATOM      6  C   UNL     1       5.070   5.932  16.608  0.00  0.00    +0.000 C 
ATOM      7  O   UNL     1       5.453   6.957  16.031  0.00  0.00    +0.000 OA
ENDROOT
BRANCH   5   8
ATOM      8  C   UNL     1       5.850   4.547  14.764  0.00  0.00    +0.000 A 
ATOM      9  C   UNL     1       5.207   3.765  13.792  0.00  0.00    +0.000 A 
ATOM     10  C   UNL     1       5.780   3.580  12.531  0.00  0.00    +0.000 A 
ATOM     11  C   UNL     1       6.983   4.208  12.218  0.00  0.00    +0.000 A 
ATOM     12  C   UNL     1       7.601   5.009  13.170  0.00  0.00    +0.000 A 
ATOM     13  F   UNL     1       8.740   5.641  12.859  0.00  0.00    +0.000 F 
ATOM     14  C   UNL     1       7.060   5.169  14.442  0.00  0.00    +0.000 A 
ENDBRANCH   5   8
BRANCH   1  15
ATOM     15  N   UNL     1       2.902   6.449  17.754  0.00  0.00    +0.000 N 
ATOM     16  H   UNL     1       2.237   5.684  17.709  0.00  0.00    +0.000 HD
BRANCH  15  22
ATOM     17  O   UNL     1      -0.081  10.579  22.892  0.00  0.00    +0.000 OA
ATOM     18  C   UNL     1       0.419  10.029  21.926  0.00  0.00    +0.000 C 
ATOM     19  C   UNL     1       1.154   8.681  21.917  0.00  0.00    +0.000 C 
ATOM     20  C   UNL     1       1.509   8.523  20.464  0.00  0.00    +0.000 A 
ATOM     21  C   UNL     1       2.146   7.480  19.805  0.00  0.00    +0.000 A 
ATOM     22  C   UNL     1       2.357   7.566  18.412  0.00  0.00    +0.000 A 
ATOM     23  C   UNL     1       1.884   8.719  17.745  0.00  0.00    +0.000 A 
ATOM     24  C   UNL     1       1.237   9.768  18.413  0.00  0.00    +0.000 A 
ATOM     25  C   UNL     1       1.064   9.639  19.768  0.00  0.00    +0.000 A 
ATOM     26  N   UNL     1       0.428  10.518  20.627  0.00  0.00    +0.000 N 
ATOM     27  H   UNL     1      -0.006  11.391  20.364  0.00  0.00    +0.000 HD
ENDBRANCH  15  22
ENDBRANCH   1  15
TORSDOF 3
ENDMDL
MODEL 7
REMARK VINA RESULT:      -8.2      3.555      6.995
REMARK  Name = 
REMARK  3 active torsions:
REMARK  status: ('A' for Active; 'I' for Inactive)
REMARK    1  A    between atoms: C_6  and  N_7
REMARK    2  A    between atoms: N_7  and  C_8
REMARK    3  A    between atoms: N_12  and  C_13
REMARK                            x       y       z     vdW  Elec       q    Type
REMARK                         _______ _______ _______ _____ _____    ______ ____
ROOT
ATOM      1  C   UNL     1       3.125   2.543  17.920  0.00  0.00    +0.000 C 
ATOM      2  C   UNL     1       3.414   1.781  19.219  0.00  0.00    +0.000 C 
ATOM      3  C   UNL     1       4.046   2.659  20.282  0.00  0.00    +0.000 C 
ATOM      4  C   UNL     1       3.135   3.837  20.572  0.00  0.00    +0.000 C 
ATOM      5  N   UNL     1       2.800   4.596  19.376  0.00  0.00    +0.000 N 
ATOM      6  C   UNL     1       2.546   3.972  18.149  0.00  0.00    +0.000 C 
ATOM      7  O   UNL     1       1.900   4.529  17.254  0.00  0.00    +0.000 OA
ENDROOT
BRANCH   5   8
ATOM      8  C   UNL     1       2.393   5.954  19.555  0.00  0.00    +0.000 A 
ATOM      9  C   UNL     1       1.675   6.312  20.706  0.00  0.00    +0.000 A 
ATOM     10  C   UNL     1       1.202   7.617  20.875  0.00  0.00    +0.000 A 
ATOM     11  C   UNL     1       1.477   8.583  19.911  0.00  0.00    +0.000 A 
ATOM     12  C   UNL     1       2.217   8.234  18.788  0.00  0.00    +0.000 A 
ATOM     13  F   UNL     1       2.510   9.172  17.877  0.00  0.00    +0.000 F 
ATOM     14  C   UNL     1       2.659   6.930  18.590  0.00  0.00    +0.000 A 
ENDBRANCH   5   8
BRANCH   1  15
ATOM     15  N   UNL     1       4.340   2.594  17.072  0.00  0.00    +0.000 N 
ATOM     16  H   UNL     1       4.283   2.059  16.212  0.00  0.00    +0.000 HD
BRANCH  15  22
ATOM     17  O   UNL     1       8.496   8.359  18.432  0.00  0.00    +0.000 OA
ATOM     18  C   UNL     1       7.787   7.449  18.038  0.00  0.00    +0.000 C 
ATOM     19  C   UNL     1       7.541   6.107  18.741  0.00  0.00    +0.000 C 
ATOM     20  C   UNL     1       6.576   5.432  17.805  0.00  0.00    +0.000 A 
ATOM     21  C   UNL     1       5.939   4.202  17.909  0.00  0.00    +0.000 A 
ATOM     22  C   UNL     1       5.057   3.791  16.887  0.00  0.00    +0.000 A 
ATOM     23  C   UNL     1       4.848   4.672  15.803  0.00  0.00    +0.000 A 
ATOM     24  C   UNL     1       5.490   5.916  15.704  0.00  0.00    +0.000 A 
ATOM     25  C   UNL     1       6.343   6.265  16.719  0.00  0.00    +0.000 A 
ATOM     26  N   UNL     1       7.055   7.443  16.858  0.00  0.00    +0.000 N 
ATOM     27  H   UNL     1       7.037   8.223  16.217  0.00  0.00    +0.000 HD
ENDBRANCH  15  22
ENDBRANCH   1  15
TORSDOF 3
ENDMDL
MODEL 8
REMARK VINA RESULT:      -8.1      3.006      7.882
REMARK  Name = 
REMARK  3 active torsions:
REMARK  status: ('A' for Active; 'I' for Inactive)
REMARK    1  A    between atoms: C_6  and  N_7
REMARK    2  A    between atoms: N_7  and  C_8
REMARK    3  A    between atoms: N_12  and  C_13
REMARK                            x       y       z     vdW  Elec       q    Type
REMARK                         _______ _______ _______ _____ _____    ______ ____
ROOT
ATOM      1  C   UNL     1       3.179   3.459  18.760  0.00  0.00    +0.000 C 
ATOM      2  C   UNL     1       2.634   2.708  19.980  0.00  0.00    +0.000 C 
ATOM      3  C   UNL     1       2.633   3.559  21.236  0.00  0.00    +0.000 C 
ATOM      4  C   UNL     1       1.810   4.812  20.997  0.00  0.00    +0.000 C 
ATOM      5  N   UNL     1       2.260   5.566  19.836  0.00  0.00    +0.000 N 
ATOM      6  C   UNL     1       2.684   4.934  18.661  0.00  0.00    +0.000 C 
ATOM      7  O   UNL     1       2.693   5.518  17.571  0.00  0.00    +0.000 OA
ENDROOT
BRANCH   5   8
ATOM      8  C   UNL     1       1.931   6.955  19.790  0.00  0.00    +0.000 A 
ATOM      9  C   UNL     1       1.355   7.565  20.916  0.00  0.00    +0.000 A 
ATOM     10  C   UNL     1       0.957   8.904  20.877  0.00  0.00    +0.000 A 
ATOM     11  C   UNL     1       1.166   9.655  19.723  0.00  0.00    +0.000 A 
ATOM     12  C   UNL     1       1.766   9.059  18.621  0.00  0.00    +0.000 A 
ATOM     13  F   UNL     1       1.998   9.791  17.523  0.00  0.00    +0.000 F 
ATOM     14  C   UNL     1       2.131   7.717  18.635  0.00  0.00    +0.000 A 
ENDBRANCH   5   8
BRANCH   1  15
ATOM     15  N   UNL     1       4.660   3.394  18.734  0.00  0.00    +0.000 N 
ATOM     16  H   UNL     1       5.051   2.482  18.945  0.00  0.00    +0.000 HD
BRANCH  15  22
ATOM     17  O   UNL     1       7.683   4.955  12.349  0.00  0.00    +0.000 OA
ATOM     18  C   UNL     1       7.251   4.841  13.482  0.00  0.00    +0.000 C 
ATOM     19  C   UNL     1       6.103   3.929  13.938  0.00  0.00    +0.000 C 
ATOM     20  C   UNL     1       6.054   4.197  15.418  0.00  0.00    +0.000 A 
ATOM     21  C   UNL     1       5.251   3.638  16.404  0.00  0.00    +0.000 A 
ATOM     22  C   UNL     1       5.406   4.056  17.743  0.00  0.00    +0.000 A 
ATOM     23  C   UNL     1       6.399   5.023  18.019  0.00  0.00    +0.000 A 
ATOM     24  C   UNL     1       7.212   5.580  17.022  0.00  0.00    +0.000 A 
ATOM     25  C   UNL     1       7.015   5.146  15.736  0.00  0.00    +0.000 A 
ATOM     26  N   UNL     1       7.712   5.522  14.601  0.00  0.00    +0.000 N 
ATOM     27  H   UNL     1       8.479   6.178  14.568  0.00  0.00    +0.000 HD
ENDBRANCH  15  22
ENDBRANCH   1  15
TORSDOF 3
ENDMDL
MODEL 9
REMARK VINA RESULT:      -8.1      3.923      7.115
REMARK  Name = 
REMARK  3 active torsions:
REMARK  status: ('A' for Active; 'I' for Inactive)
REMARK    1  A    between atoms: C_6  and  N_7
REMARK    2  A    between atoms: N_7  and  C_8
REMARK    3  A    between atoms: N_12  and  C_13
REMARK                            x       y       z     vdW  Elec       q    Type
REMARK                         _______ _______ _______ _____ _____    ______ ____
ROOT
ATOM      1  C   UNL     1       3.265   2.638  17.905  0.00  0.00    +0.000 C 
ATOM      2  C   UNL     1       3.642   1.927  19.210  0.00  0.00    +0.000 C 
ATOM      3  C   UNL     1       4.247   2.870  20.233  0.00  0.00    +0.000 C 
ATOM      4  C   UNL     1       3.269   3.993  20.526  0.00  0.00    +0.000 C 
ATOM      5  N   UNL     1       2.849   4.700  19.324  0.00  0.00    +0.000 N 
ATOM      6  C   UNL     1       2.600   4.031  18.120  0.00  0.00    +0.000 C 
ATOM      7  O   UNL     1       1.892   4.523  17.234  0.00  0.00    +0.000 OA
ENDROOT
BRANCH   5   8
ATOM      8  C   UNL     1       2.360   6.032  19.486  0.00  0.00    +0.000 A 
ATOM      9  C   UNL     1       2.576   6.975  18.469  0.00  0.00    +0.000 A 
ATOM     10  C   UNL     1       2.172   8.303  18.629  0.00  0.00    +0.000 A 
ATOM     11  C   UNL     1       1.513   8.691  19.793  0.00  0.00    +0.000 A 
ATOM     12  C   UNL     1       1.271   7.749  20.785  0.00  0.00    +0.000 A 
ATOM     13  F   UNL     1       0.607   8.114  21.890  0.00  0.00    +0.000 F 
ATOM     14  C   UNL     1       1.703   6.433  20.653  0.00  0.00    +0.000 A 
ENDBRANCH   5   8
BRANCH   1  15
ATOM     15  N   UNL     1       4.448   2.747  17.018  0.00  0.00    +0.000 N 
ATOM     16  H   UNL     1       4.361   2.268  16.128  0.00  0.00    +0.000 HD
BRANCH  15  22
ATOM     17  O   UNL     1       8.656   8.422  18.584  0.00  0.00    +0.000 OA
ATOM     18  C   UNL     1       7.931   7.538  18.160  0.00  0.00    +0.000 C 
ATOM     19  C   UNL     1       7.716   6.151  18.781  0.00  0.00    +0.000 C 
ATOM     20  C   UNL     1       6.712   5.537  17.844  0.00  0.00    +0.000 A 
ATOM     21  C   UNL     1       6.080   4.301  17.891  0.00  0.00    +0.000 A 
ATOM     22  C   UNL     1       5.155   3.956  16.883  0.00  0.00    +0.000 A 
ATOM     23  C   UNL     1       4.900   4.908  15.871  0.00  0.00    +0.000 A 
ATOM     24  C   UNL     1       5.536   6.158  15.829  0.00  0.00    +0.000 A 
ATOM     25  C   UNL     1       6.432   6.441  16.828  0.00  0.00    +0.000 A 
ATOM     26  N   UNL     1       7.148   7.609  17.015  0.00  0.00    +0.000 N 
ATOM     27  H   UNL     1       7.103   8.431  16.429  0.00  0.00    +0.000 HD
ENDBRANCH  15  22
ENDBRANCH   1  15
TORSDOF 3
ENDMDL
