MODEL 1
REMARK VINA RESULT:      -8.0      0.000      0.000
REMARK  Name = 
REMARK  5 active torsions:
REMARK  status: ('A' for Active; 'I' for Inactive)
REMARK    1  A    between atoms: N_4  and  C_5
REMARK    2  A    between atoms: C_9  and  C_10
REMARK    3  A    between atoms: C_10  and  C_11
REMARK    4  A    between atoms: C_11  and  C_12
REMARK    5  A    between atoms: N_16  and  C_17
REMARK                            x       y       z     vdW  Elec       q    Type
REMARK                         _______ _______ _______ _____ _____    ______ ____
ROOT
ATOM      1  C   UNL     1       5.931   4.978  15.837  0.00  0.00    +0.000 A 
ATOM      2  C   UNL     1       6.981   4.720  16.717  0.00  0.00    +0.000 A 
ATOM      3  C   UNL     1       6.765   4.769  18.090  0.00  0.00    +0.000 A 
ATOM      4  C   UNL     1       5.507   5.111  18.584  0.00  0.00    +0.000 A 
ATOM      5  C   UNL     1       4.445   5.483  17.734  0.00  0.00    +0.000 A 
ATOM      6  C   UNL     1       4.695   5.392  16.352  0.00  0.00    +0.000 A 
ENDROOT
BRANCH   1  10
ATOM      7  C   UNL     1       7.144   3.244  11.707  0.00  0.00    +0.000 C 
ATOM      8  C   UNL     1       6.637   3.878  12.761  0.00  0.00    +0.000 C 
ATOM      9  C   UNL     1       5.398   3.790  13.623  0.00  0.00    +0.000 C 
ATOM     10  N   UNL     1       6.065   4.767  14.467  0.00  0.00    +0.000 N 
ATOM     11  C   UNL     1       7.136   4.926  13.654  0.00  0.00    +0.000 C 
ATOM     12  O   UNL     1       8.163   5.569  13.704  0.00  0.00    +0.000 OA
ENDBRANCH   1  10
BRANCH   5  13
ATOM     13  C   UNL     1       3.054   6.020  18.317  0.00  0.00    +0.000 C 
ATOM     14  C   UNL     1       2.720   7.503  17.997  0.00  0.00    +0.000 C 
ATOM     15  O   UNL     1       2.199   7.701  19.337  0.00  0.00    +0.000 OA
ATOM     16  C   UNL     1       2.957   6.538  19.781  0.00  0.00    +0.000 C 
BRANCH  13  17
ATOM     17  C   UNL     1       1.903   5.053  17.961  0.00  0.00    +0.000 C 
BRANCH  17  18
ATOM     18  C   UNL     1       1.699   3.993  18.996  0.00  0.00    +0.000 A 
ATOM     19  N   UNL     1       0.969   4.116  20.088  0.00  0.00    +0.000 NA
ATOM     20  N   UNL     1       1.030   2.932  20.782  0.00  0.00    +0.000 NA
ATOM     21  C   UNL     1       1.789   2.110  20.099  0.00  0.00    +0.000 A 
ATOM     22  N   UNL     1       2.242   2.732  18.977  0.00  0.00    +0.000 N 
ATOM     23  C   UNL     1       3.104   2.140  17.993  0.00  0.00    +0.000 C 
ENDBRANCH  17  18
ENDBRANCH  13  17
ENDBRANCH   5  13
TORSDOF 4
ENDMDL
MODEL 2
REMARK VINA RESULT:      -8.0      2.509      6.603
REMARK  Name = 
REMARK  5 active torsions:
REMARK  status: ('A' for Active; 'I' for Inactive)
REMARK    1  A    between atoms: N_4  and  C_5
REMARK    2  A    between atoms: C_9  and  C_10
REMARK    3  A    between atoms: C_10  and  C_11
REMARK    4  A    between atoms: C_11  and  C_12
REMARK    5  A    between atoms: N_16  and  C_17
REMARK                            x       y       z     vdW  Elec       q    Type
REMARK                         _______ _______ _______ _____ _____    ______ ____
ROOT
ATOM      1  C   UNL     1       3.020   5.645  18.526  0.00  0.00    +0.000 A 
ATOM      2  C   UNL     1       2.881   7.029  18.427  0.00  0.00    +0.000 A 
ATOM      3  C   UNL     1       3.562   7.727  17.437  0.00  0.00    +0.000 A 
ATOM      4  C   UNL     1       4.411   7.046  16.565  0.00  0.00    +0.000 A 
ATOM      5  C   UNL     1       4.665   5.665  16.694  0.00  0.00    +0.000 A 
ATOM      6  C   UNL     1       3.934   4.990  17.690  0.00  0.00    +0.000 A 
ENDROOT
BRANCH   1  10
ATOM      7  C   UNL     1       1.534   2.500  21.598  0.00  0.00    +0.000 C 
ATOM      8  C   UNL     1       1.740   3.508  20.753  0.00  0.00    +0.000 C 
ATOM      9  C   UNL     1       2.124   4.967  20.835  0.00  0.00    +0.000 C 
ATOM     10  N   UNL     1       2.222   4.896  19.388  0.00  0.00    +0.000 N 
ATOM     11  C   UNL     1       1.786   3.618  19.294  0.00  0.00    +0.000 C 
ATOM     12  O   UNL     1       1.628   2.830  18.386  0.00  0.00    +0.000 OA
ENDBRANCH   1  10
BRANCH   5  13
ATOM     13  C   UNL     1       5.756   4.925  15.787  0.00  0.00    +0.000 C 
ATOM     14  C   UNL     1       5.389   4.771  14.285  0.00  0.00    +0.000 C 
ATOM     15  O   UNL     1       5.936   3.427  14.263  0.00  0.00    +0.000 OA
ATOM     16  C   UNL     1       5.803   3.370  15.713  0.00  0.00    +0.000 C 
BRANCH  13  17
ATOM     17  C   UNL     1       7.156   5.541  16.005  0.00  0.00    +0.000 C 
BRANCH  17  18
ATOM     18  C   UNL     1       7.526   5.636  17.451  0.00  0.00    +0.000 A 
ATOM     19  N   UNL     1       7.665   4.617  18.277  0.00  0.00    +0.000 NA
ATOM     20  N   UNL     1       8.008   5.108  19.513  0.00  0.00    +0.000 NA
ATOM     21  C   UNL     1       8.077   6.414  19.416  0.00  0.00    +0.000 A 
ATOM     22  N   UNL     1       7.773   6.795  18.146  0.00  0.00    +0.000 N 
ATOM     23  C   UNL     1       7.741   8.150  17.673  0.00  0.00    +0.000 C 
ENDBRANCH  17  18
ENDBRANCH  13  17
ENDBRANCH   5  13
TORSDOF 4
ENDMDL
MODEL 3
REMARK VINA RESULT:      -7.9      3.307      6.965
REMARK  Name = 
REMARK  5 active torsions:
REMARK  status: ('A' for Active; 'I' for Inactive)
REMARK    1  A    between atoms: N_4  and  C_5
REMARK    2  A    between atoms: C_9  and  C_10
REMARK    3  A    between atoms: C_10  and  C_11
REMARK    4  A    between atoms: C_11  and  C_12
REMARK    5  A    between atoms: N_16  and  C_17
REMARK                            x       y       z     vdW  Elec       q    Type
REMARK                         _______ _______ _______ _____ _____    ______ ____
ROOT
ATOM      1  C   UNL     1       1.663   8.182  19.964  0.00  0.00    +0.000 A 
ATOM      2  C   UNL     1       1.611   9.089  18.908  0.00  0.00    +0.000 A 
ATOM      3  C   UNL     1       2.205   8.774  17.691  0.00  0.00    +0.000 A 
ATOM      4  C   UNL     1       2.882   7.565  17.541  0.00  0.00    +0.000 A 
ATOM      5  C   UNL     1       3.052   6.664  18.612  0.00  0.00    +0.000 A 
ATOM      6  C   UNL     1       2.412   7.007  19.818  0.00  0.00    +0.000 A 
ENDROOT
BRANCH   1  10
ATOM      7  C   UNL     1      -0.885  10.110  23.330  0.00  0.00    +0.000 C 
ATOM      8  C   UNL     1      -0.203   9.344  22.481  0.00  0.00    +0.000 C 
ATOM      9  C   UNL     1      -0.507   8.433  21.315  0.00  0.00    +0.000 C 
ATOM     10  N   UNL     1       0.934   8.388  21.133  0.00  0.00    +0.000 N 
ATOM     11  C   UNL     1       1.223   9.124  22.232  0.00  0.00    +0.000 C 
ATOM     12  O   UNL     1       2.240   9.550  22.735  0.00  0.00    +0.000 OA
ENDBRANCH   1  10
BRANCH   5  13
ATOM     13  C   UNL     1       3.960   5.354  18.470  0.00  0.00    +0.000 C 
ATOM     14  C   UNL     1       4.289   4.616  19.797  0.00  0.00    +0.000 C 
ATOM     15  O   UNL     1       5.651   4.379  19.358  0.00  0.00    +0.000 OA
ATOM     16  C   UNL     1       5.511   5.469  18.401  0.00  0.00    +0.000 C 
BRANCH  13  17
ATOM     17  C   UNL     1       3.395   4.414  17.382  0.00  0.00    +0.000 C 
BRANCH  17  18
ATOM     18  C   UNL     1       2.321   3.512  17.900  0.00  0.00    +0.000 A 
ATOM     19  N   UNL     1       1.045   3.827  18.022  0.00  0.00    +0.000 NA
ATOM     20  N   UNL     1       0.379   2.739  18.532  0.00  0.00    +0.000 NA
ATOM     21  C   UNL     1       1.258   1.781  18.705  0.00  0.00    +0.000 A 
ATOM     22  N   UNL     1       2.491   2.220  18.334  0.00  0.00    +0.000 N 
ATOM     23  C   UNL     1       3.697   1.444  18.391  0.00  0.00    +0.000 C 
ENDBRANCH  17  18
ENDBRANCH  13  17
ENDBRANCH   5  13
TORSDOF 4
ENDMDL
MODEL 4
REMARK VINA RESULT:      -7.9      0.650      1.293
REMARK  Name = 
REMARK  5 active torsions:
REMARK  status: ('A' for Active; 'I' for Inactive)
REMARK    1  A    between atoms: N_4  and  C_5
REMARK    2  A    between atoms: C_9  and  C_10
REMARK    3  A    between atoms: C_10  and  C_11
REMARK    4  A    between atoms: C_11  and  C_12
REMARK    5  A    between atoms: N_16  and  C_17
REMARK                            x       y       z     vdW  Elec       q    Type
REMARK                         _______ _______ _______ _____ _____    ______ ____
ROOT
ATOM      1  C   UNL     1       5.958   5.091  15.870  0.00  0.00    +0.000 A 
ATOM      2  C   UNL     1       7.004   4.863  16.762  0.00  0.00    +0.000 A 
ATOM      3  C   UNL     1       6.777   4.935  18.132  0.00  0.00    +0.000 A 
ATOM      4  C   UNL     1       5.510   5.269  18.610  0.00  0.00    +0.000 A 
ATOM      5  C   UNL     1       4.450   5.611  17.745  0.00  0.00    +0.000 A 
ATOM      6  C   UNL     1       4.713   5.499  16.367  0.00  0.00    +0.000 A 
ENDROOT
BRANCH   1  10
ATOM      7  C   UNL     1       7.185   3.269  11.782  0.00  0.00    +0.000 C 
ATOM      8  C   UNL     1       6.679   3.931  12.820  0.00  0.00    +0.000 C 
ATOM      9  C   UNL     1       5.427   3.885  13.665  0.00  0.00    +0.000 C 
ATOM     10  N   UNL     1       6.106   4.857  14.505  0.00  0.00    +0.000 N 
ATOM     11  C   UNL     1       7.191   4.979  13.704  0.00  0.00    +0.000 C 
ATOM     12  O   UNL     1       8.233   5.598  13.760  0.00  0.00    +0.000 OA
ENDBRANCH   1  10
BRANCH   5  13
ATOM     13  C   UNL     1       3.048   6.140  18.307  0.00  0.00    +0.000 C 
ATOM     14  C   UNL     1       2.760   7.650  18.082  0.00  0.00    +0.000 C 
ATOM     15  O   UNL     1       2.187   7.764  19.410  0.00  0.00    +0.000 OA
ATOM     16  C   UNL     1       2.899   6.554  19.800  0.00  0.00    +0.000 C 
BRANCH  13  17
ATOM     17  C   UNL     1       1.892   5.230  17.835  0.00  0.00    +0.000 C 
BRANCH  17  18
ATOM     18  C   UNL     1       2.094   3.797  18.215  0.00  0.00    +0.000 A 
ATOM     19  N   UNL     1       2.699   2.884  17.479  0.00  0.00    +0.000 NA
ATOM     20  N   UNL     1       2.683   1.696  18.168  0.00  0.00    +0.000 NA
ATOM     21  C   UNL     1       2.075   1.907  19.310  0.00  0.00    +0.000 A 
ATOM     22  N   UNL     1       1.677   3.206  19.382  0.00  0.00    +0.000 N 
ATOM     23  C   UNL     1       0.975   3.796  20.487  0.00  0.00    +0.000 C 
ENDBRANCH  17  18
ENDBRANCH  13  17
ENDBRANCH   5  13
TORSDOF 4
ENDMDL
MODEL 5
REMARK VINA RESULT:      -7.8      2.413      6.846
REMARK  Name = 
REMARK  5 active torsions:
REMARK  status: ('A' for Active; 'I' for Inactive)
REMARK    1  A    between atoms: N_4  and  C_5
REMARK    2  A    between atoms: C_9  and  C_10
REMARK    3  A    between atoms: C_10  and  C_11
REMARK    4  A    between atoms: C_11  and  C_12
REMARK    5  A    between atoms: N_16  and  C_17
REMARK                            x       y       z     vdW  Elec       q    Type
REMARK                         _______ _______ _______ _____ _____    ______ ____
ROOT
ATOM      1  C   UNL     1       2.888   5.560  18.767  0.00  0.00    +0.000 A 
ATOM      2  C   UNL     1       2.705   6.922  18.535  0.00  0.00    +0.000 A 
ATOM      3  C   UNL     1       3.395   7.550  17.504  0.00  0.00    +0.000 A 
ATOM      4  C   UNL     1       4.295   6.823  16.725  0.00  0.00    +0.000 A 
ATOM      5  C   UNL     1       4.591   5.470  16.991  0.00  0.00    +0.000 A 
ATOM      6  C   UNL     1       3.852   4.864  18.024  0.00  0.00    +0.000 A 
ENDROOT
BRANCH   1  10
ATOM      7  C   UNL     1       1.291   2.410  21.778  0.00  0.00    +0.000 C 
ATOM      8  C   UNL     1       1.555   3.448  20.987  0.00  0.00    +0.000 C 
ATOM      9  C   UNL     1       2.176   4.820  21.120  0.00  0.00    +0.000 C 
ATOM     10  N   UNL     1       2.088   4.865  19.671  0.00  0.00    +0.000 N 
ATOM     11  C   UNL     1       1.445   3.681  19.546  0.00  0.00    +0.000 C 
ATOM     12  O   UNL     1       1.056   3.011  18.613  0.00  0.00    +0.000 OA
ENDBRANCH   1  10
BRANCH   5  13
ATOM     13  C   UNL     1       5.737   4.690  16.190  0.00  0.00    +0.000 C 
ATOM     14  C   UNL     1       5.939   5.126  14.713  0.00  0.00    +0.000 C 
ATOM     15  O   UNL     1       6.119   3.746  14.304  0.00  0.00    +0.000 OA
ATOM     16  C   UNL     1       5.439   3.317  15.519  0.00  0.00    +0.000 C 
BRANCH  13  17
ATOM     17  C   UNL     1       7.053   4.672  16.999  0.00  0.00    +0.000 C 
BRANCH  17  18
ATOM     18  C   UNL     1       7.497   6.039  17.410  0.00  0.00    +0.000 A 
ATOM     19  N   UNL     1       7.607   7.084  16.612  0.00  0.00    +0.000 NA
ATOM     20  N   UNL     1       8.043   8.152  17.357  0.00  0.00    +0.000 NA
ATOM     21  C   UNL     1       8.184   7.741  18.595  0.00  0.00    +0.000 A 
ATOM     22  N   UNL     1       7.865   6.421  18.677  0.00  0.00    +0.000 N 
ATOM     23  C   UNL     1       7.908   5.633  19.876  0.00  0.00    +0.000 C 
ENDBRANCH  17  18
ENDBRANCH  13  17
ENDBRANCH   5  13
TORSDOF 4
ENDMDL
MODEL 6
REMARK VINA RESULT:      -7.8      2.133      3.397
REMARK  Name = 
REMARK  5 active torsions:
REMARK  status: ('A' for Active; 'I' for Inactive)
REMARK    1  A    between atoms: N_4  and  C_5
REMARK    2  A    between atoms: C_9  and  C_10
REMARK    3  A    between atoms: C_10  and  C_11
REMARK    4  A    between atoms: C_11  and  C_12
REMARK    5  A    between atoms: N_16  and  C_17
REMARK                            x       y       z     vdW  Elec       q    Type
REMARK                         _______ _______ _______ _____ _____    ______ ____
ROOT
ATOM      1  C   UNL     1       5.952   4.810  16.001  0.00  0.00    +0.000 A 
ATOM      2  C   UNL     1       7.096   4.864  16.795  0.00  0.00    +0.000 A 
ATOM      3  C   UNL     1       6.982   4.814  18.180  0.00  0.00    +0.000 A 
ATOM      4  C   UNL     1       5.722   4.746  18.773  0.00  0.00    +0.000 A 
ATOM      5  C   UNL     1       4.535   4.796  18.014  0.00  0.00    +0.000 A 
ATOM      6  C   UNL     1       4.693   4.817  16.615  0.00  0.00    +0.000 A 
ENDROOT
BRANCH   1  10
ATOM      7  C   UNL     1       7.032   3.339  11.733  0.00  0.00    +0.000 C 
ATOM      8  C   UNL     1       6.556   3.903  12.842  0.00  0.00    +0.000 C 
ATOM      9  C   UNL     1       5.353   3.743  13.743  0.00  0.00    +0.000 C 
ATOM     10  N   UNL     1       6.037   4.681  14.616  0.00  0.00    +0.000 N 
ATOM     11  C   UNL     1       7.073   4.906  13.775  0.00  0.00    +0.000 C 
ATOM     12  O   UNL     1       8.091   5.563  13.824  0.00  0.00    +0.000 OA
ENDBRANCH   1  10
BRANCH   5  13
ATOM     13  C   UNL     1       3.096   4.871  18.712  0.00  0.00    +0.000 C 
ATOM     14  C   UNL     1       2.588   3.548  19.349  0.00  0.00    +0.000 C 
ATOM     15  O   UNL     1       1.245   3.800  18.861  0.00  0.00    +0.000 OA
ATOM     16  C   UNL     1       1.797   4.712  17.868  0.00  0.00    +0.000 C 
BRANCH  13  17
ATOM     17  C   UNL     1       3.021   6.073  19.679  0.00  0.00    +0.000 C 
BRANCH  17  18
ATOM     18  C   UNL     1       2.534   7.320  19.013  0.00  0.00    +0.000 A 
ATOM     19  N   UNL     1       2.818   7.695  17.780  0.00  0.00    +0.000 NA
ATOM     20  N   UNL     1       2.188   8.891  17.536  0.00  0.00    +0.000 NA
ATOM     21  C   UNL     1       1.527   9.219  18.621  0.00  0.00    +0.000 A 
ATOM     22  N   UNL     1       1.721   8.272  19.578  0.00  0.00    +0.000 N 
ATOM     23  C   UNL     1       1.157   8.302  20.898  0.00  0.00    +0.000 C 
ENDBRANCH  17  18
ENDBRANCH  13  17
ENDBRANCH   5  13
TORSDOF 4
ENDMDL
MODEL 7
REMARK VINA RESULT:      -7.7      2.158      6.543
REMARK  Name = 
REMARK  5 active torsions:
REMARK  status: ('A' for Active; 'I' for Inactive)
REMARK    1  A    between atoms: N_4  and  C_5
REMARK    2  A    between atoms: C_9  and  C_10
REMARK    3  A    between atoms: C_10  and  C_11
REMARK    4  A    between atoms: C_11  and  C_12
REMARK    5  A    between atoms: N_16  and  C_17
REMARK                            x       y       z     vdW  Elec       q    Type
REMARK                         _______ _______ _______ _____ _____    ______ ____
ROOT
ATOM      1  C   UNL     1       3.003   5.640  18.904  0.00  0.00    +0.000 A 
ATOM      2  C   UNL     1       2.506   6.646  18.078  0.00  0.00    +0.000 A 
ATOM      3  C   UNL     1       3.364   7.332  17.225  0.00  0.00    +0.000 A 
ATOM      4  C   UNL     1       4.727   7.036  17.223  0.00  0.00    +0.000 A 
ATOM      5  C   UNL     1       5.290   6.101  18.117  0.00  0.00    +0.000 A 
ATOM      6  C   UNL     1       4.385   5.408  18.943  0.00  0.00    +0.000 A 
ENDROOT
BRANCH   1  10
ATOM      7  C   UNL     1       1.345   2.439  21.827  0.00  0.00    +0.000 C 
ATOM      8  C   UNL     1       1.585   3.431  20.972  0.00  0.00    +0.000 C 
ATOM      9  C   UNL     1       1.743   4.933  21.027  0.00  0.00    +0.000 C 
ATOM     10  N   UNL     1       2.151   4.818  19.638  0.00  0.00    +0.000 N 
ATOM     11  C   UNL     1       1.922   3.486  19.548  0.00  0.00    +0.000 C 
ATOM     12  O   UNL     1       2.066   2.647  18.685  0.00  0.00    +0.000 OA
ENDBRANCH   1  10
BRANCH   5  13
ATOM     13  C   UNL     1       6.873   5.881  18.211  0.00  0.00    +0.000 C 
ATOM     14  C   UNL     1       7.479   5.962  19.639  0.00  0.00    +0.000 C 
ATOM     15  O   UNL     1       8.627   6.693  19.138  0.00  0.00    +0.000 OA
ATOM     16  C   UNL     1       7.853   7.065  17.961  0.00  0.00    +0.000 C 
BRANCH  13  17
ATOM     17  C   UNL     1       7.293   4.604  17.450  0.00  0.00    +0.000 C 
BRANCH  17  18
ATOM     18  C   UNL     1       6.939   4.655  15.998  0.00  0.00    +0.000 A 
ATOM     19  N   UNL     1       7.632   5.271  15.059  0.00  0.00    +0.000 NA
ATOM     20  N   UNL     1       6.988   5.092  13.860  0.00  0.00    +0.000 NA
ATOM     21  C   UNL     1       5.920   4.366  14.087  0.00  0.00    +0.000 A 
ATOM     22  N   UNL     1       5.839   4.076  15.415  0.00  0.00    +0.000 N 
ATOM     23  C   UNL     1       4.797   3.305  16.031  0.00  0.00    +0.000 C 
ENDBRANCH  17  18
ENDBRANCH  13  17
ENDBRANCH   5  13
TORSDOF 4
ENDMDL
MODEL 8
REMARK VINA RESULT:      -7.7      3.090      7.085
REMARK  Name = 
REMARK  5 active torsions:
REMARK  status: ('A' for Active; 'I' for Inactive)
REMARK    1  A    between atoms: N_4  and  C_5
REMARK    2  A    between atoms: C_9  and  C_10
REMARK    3  A    between atoms: C_10  and  C_11
REMARK    4  A    between atoms: C_11  and  C_12
REMARK    5  A    between atoms: N_16  and  C_17
REMARK                            x       y       z     vdW  Elec       q    Type
REMARK                         _______ _______ _______ _____ _____    ______ ____
ROOT
ATOM      1  C   UNL     1       1.419   8.646  19.898  0.00  0.00    +0.000 A 
ATOM      2  C   UNL     1       1.516   9.647  18.934  0.00  0.00    +0.000 A 
ATOM      3  C   UNL     1       2.132   9.382  17.716  0.00  0.00    +0.000 A 
ATOM      4  C   UNL     1       2.684   8.124  17.475  0.00  0.00    +0.000 A 
ATOM      5  C   UNL     1       2.703   7.115  18.460  0.00  0.00    +0.000 A 
ATOM      6  C   UNL     1       2.044   7.413  19.667  0.00  0.00    +0.000 A 
ENDROOT
BRANCH   1  10
ATOM      7  C   UNL     1      -1.023  10.531  23.365  0.00  0.00    +0.000 C 
ATOM      8  C   UNL     1      -0.408   9.775  22.458  0.00  0.00    +0.000 C 
ATOM      9  C   UNL     1      -0.769   9.059  21.177  0.00  0.00    +0.000 C 
ATOM     10  N   UNL     1       0.658   8.822  21.051  0.00  0.00    +0.000 N 
ATOM     11  C   UNL     1       0.984   9.376  22.243  0.00  0.00    +0.000 C 
ATOM     12  O   UNL     1       2.020   9.586  22.837  0.00  0.00    +0.000 OA
ENDBRANCH   1  10
BRANCH   5  13
ATOM     13  C   UNL     1       3.473   5.731  18.226  0.00  0.00    +0.000 C 
ATOM     14  C   UNL     1       4.452   5.307  19.356  0.00  0.00    +0.000 C 
ATOM     15  O   UNL     1       5.420   4.847  18.378  0.00  0.00    +0.000 OA
ATOM     16  C   UNL     1       4.775   5.683  17.374  0.00  0.00    +0.000 C 
BRANCH  13  17
ATOM     17  C   UNL     1       2.480   4.613  17.838  0.00  0.00    +0.000 C 
BRANCH  17  18
ATOM     18  C   UNL     1       2.058   3.783  19.009  0.00  0.00    +0.000 A 
ATOM     19  N   UNL     1       1.177   4.137  19.925  0.00  0.00    +0.000 NA
ATOM     20  N   UNL     1       1.063   3.112  20.832  0.00  0.00    +0.000 NA
ATOM     21  C   UNL     1       1.870   2.152  20.450  0.00  0.00    +0.000 A 
ATOM     22  N   UNL     1       2.525   2.529  19.319  0.00  0.00    +0.000 N 
ATOM     23  C   UNL     1       3.493   1.733  18.619  0.00  0.00    +0.000 C 
ENDBRANCH  17  18
ENDBRANCH  13  17
ENDBRANCH   5  13
TORSDOF 4
ENDMDL
MODEL 9
REMARK VINA RESULT:      -7.6      2.367      6.787
REMARK  Name = 
REMARK  5 active torsions:
REMARK  status: ('A' for Active; 'I' for Inactive)
REMARK    1  A    between atoms: N_4  and  C_5
REMARK    2  A    between atoms: C_9  and  C_10
REMARK    3  A    between atoms: C_10  and  C_11
REMARK    4  A    between atoms: C_11  and  C_12
REMARK    5  A    between atoms: N_16  and  C_17
REMARK                            x       y       z     vdW  Elec       q    Type
REMARK                         _______ _______ _______ _____ _____    ______ ____
ROOT
ATOM      1  C   UNL     1       2.721   6.047  18.360  0.00  0.00    +0.000 A 
ATOM      2  C   UNL     1       1.895   4.942  18.557  0.00  0.00    +0.000 A 
ATOM      3  C   UNL     1       2.280   3.693  18.082  0.00  0.00    +0.000 A 
ATOM      4  C   UNL     1       3.477   3.556  17.378  0.00  0.00    +0.000 A 
ATOM      5  C   UNL     1       4.291   4.664  17.064  0.00  0.00    +0.000 A 
ATOM      6  C   UNL     1       3.881   5.904  17.587  0.00  0.00    +0.000 A 
ENDROOT
BRANCH   1  10
ATOM      7  C   UNL     1       0.559   9.794  20.043  0.00  0.00    +0.000 C 
ATOM      8  C   UNL     1       1.375   8.804  19.685  0.00  0.00    +0.000 C 
ATOM      9  C   UNL     1       1.915   7.532  20.295  0.00  0.00    +0.000 C 
ATOM     10  N   UNL     1       2.452   7.270  18.971  0.00  0.00    +0.000 N 
ATOM     11  C   UNL     1       2.057   8.450  18.439  0.00  0.00    +0.000 C 
ATOM     12  O   UNL     1       2.116   8.958  17.339  0.00  0.00    +0.000 OA
ENDBRANCH   1  10
BRANCH   5  13
ATOM     13  C   UNL     1       5.581   4.516  16.127  0.00  0.00    +0.000 C 
ATOM     14  C   UNL     1       5.655   5.500  14.927  0.00  0.00    +0.000 C 
ATOM     15  O   UNL     1       6.156   4.448  14.063  0.00  0.00    +0.000 OA
ATOM     16  C   UNL     1       5.612   3.459  14.985  0.00  0.00    +0.000 C 
BRANCH  13  17
ATOM     17  C   UNL     1       6.872   4.500  16.974  0.00  0.00    +0.000 C 
BRANCH  17  18
ATOM     18  C   UNL     1       7.332   5.872  17.352  0.00  0.00    +0.000 A 
ATOM     19  N   UNL     1       7.440   6.900  16.532  0.00  0.00    +0.000 NA
ATOM     20  N   UNL     1       7.893   7.979  17.250  0.00  0.00    +0.000 NA
ATOM     21  C   UNL     1       8.046   7.593  18.494  0.00  0.00    +0.000 A 
ATOM     22  N   UNL     1       7.717   6.277  18.607  0.00  0.00    +0.000 N 
ATOM     23  C   UNL     1       7.768   5.513  19.821  0.00  0.00    +0.000 C 
ENDBRANCH  17  18
ENDBRANCH  13  17
ENDBRANCH   5  13
TORSDOF 4
ENDMDL
