MODEL 1
REMARK VINA RESULT:      -8.6      0.000      0.000
REMARK  Name = 
REMARK  3 active torsions:
REMARK  status: ('A' for Active; 'I' for Inactive)
REMARK    1  A    between atoms: C_2  and  C_4
REMARK    2  A    between atoms: C_4  and  C_5
REMARK    3  A    between atoms: C_8  and  C_9
REMARK                            x       y       z     vdW  Elec       q    Type
REMARK                         _______ _______ _______ _____ _____    ______ ____
ROOT
ATOM      1  C   UNL     1       1.224   9.124  18.760  0.00  0.00    +0.000 C 
ATOM      2  O   UNL     1       1.297   9.765  17.708  0.00  0.00    +0.000 OA
ATOM      3  N   UNL     1       1.702   7.801  18.818  0.00  0.00    +0.000 N 
ATOM      4  C   UNL     1       2.297   7.203  17.596  0.00  0.00    +0.000 C 
ATOM      5  C   UNL     1       3.454   6.265  17.897  0.00  0.00    +0.000 A 
ATOM      6  C   UNL     1       4.385   5.897  16.921  0.00  0.00    +0.000 A 
ATOM      7  C   UNL     1       5.535   5.210  17.295  0.00  0.00    +0.000 A 
ATOM      8  C   UNL     1       5.801   4.963  18.635  0.00  0.00    +0.000 A 
ATOM      9  C   UNL     1       4.775   5.124  19.571  0.00  0.00    +0.000 A 
ATOM     10  C   UNL     1       3.549   5.668  19.169  0.00  0.00    +0.000 A 
ATOM     11  C   UNL     1       2.222   5.546  19.907  0.00  0.00    +0.000 C 
ATOM     12  C   UNL     1       1.316   4.554  19.089  0.00  0.00    +0.000 C 
ATOM     13  C   UNL     1       1.081   3.318  19.952  0.00  0.00    +0.000 C 
ATOM     14  C   UNL     1       2.057   3.428  21.107  0.00  0.00    +0.000 C 
ATOM     15  C   UNL     1       2.217   4.922  21.316  0.00  0.00    +0.000 C 
ATOM     16  C   UNL     1       1.576   6.943  19.987  0.00  0.00    +0.000 C 
ATOM     17  O   UNL     1       7.003   4.501  19.079  0.00  0.00    +0.000 OA
ATOM     18  C   UNL     1       8.060   4.536  18.114  0.00  0.00    +0.000 C 
ATOM     19  C   UNL     1       7.712   4.921  16.675  0.00  0.00    +0.000 C 
ATOM     20  O   UNL     1       6.353   4.747  16.305  0.00  0.00    +0.000 OA
ENDROOT
BRANCH   1  24
ATOM     21  C   UNL     1      -0.564  11.451  22.021  0.00  0.00    +0.000 A 
ATOM     22  C   UNL     1      -0.184  10.126  22.252  0.00  0.00    +0.000 A 
ATOM     23  C   UNL     1       0.389   9.342  21.229  0.00  0.00    +0.000 A 
ATOM     24  C   UNL     1       0.648   9.868  19.955  0.00  0.00    +0.000 A 
ATOM     25  C   UNL     1       0.255  11.203  19.737  0.00  0.00    +0.000 A 
ATOM     26  C   UNL     1      -0.340  11.981  20.745  0.00  0.00    +0.000 A 
BRANCH  21  27
ATOM     27  C   UNL     1      -1.213  12.282  23.108  0.00  0.00    +0.000 C 
BRANCH  27  29
ATOM     28  N   UNL     1      -3.302  13.106  22.061  0.00  0.00    +0.000 N 
ATOM     29  C   UNL     1      -2.729  12.397  23.070  0.00  0.00    +0.000 C 
ATOM     30  O   UNL     1      -3.437  11.853  23.924  0.00  0.00    +0.000 OA
ATOM     31  H   UNL     1      -4.315  13.126  22.012  0.00  0.00    +0.000 HD
ATOM     32  H   UNL     1      -2.773  13.466  21.275  0.00  0.00    +0.000 HD
ENDBRANCH  27  29
ENDBRANCH  21  27
ENDBRANCH   1  24
TORSDOF 3
ENDMDL
MODEL 2
REMARK VINA RESULT:      -8.1      3.151      9.286
REMARK  Name = 
REMARK  3 active torsions:
REMARK  status: ('A' for Active; 'I' for Inactive)
REMARK    1  A    between atoms: C_2  and  C_4
REMARK    2  A    between atoms: C_4  and  C_5
REMARK    3  A    between atoms: C_8  and  C_9
REMARK                            x       y       z     vdW  Elec       q    Type
REMARK                         _______ _______ _______ _____ _____    ______ ____
ROOT
ATOM      1  C   UNL     1       1.109   8.799  20.886  0.00  0.00    +0.000 C 
ATOM      2  O   UNL     1       1.454   8.903  22.067  0.00  0.00    +0.000 OA
ATOM      3  N   UNL     1       0.211   9.727  20.326  0.00  0.00    +0.000 N 
ATOM      4  C   UNL     1      -0.303  10.828  21.179  0.00  0.00    +0.000 C 
ATOM      5  C   UNL     1      -0.502  12.127  20.417  0.00  0.00    +0.000 A 
ATOM      6  C   UNL     1      -0.607  13.361  21.065  0.00  0.00    +0.000 A 
ATOM      7  C   UNL     1      -0.578  14.533  20.318  0.00  0.00    +0.000 A 
ATOM      8  C   UNL     1      -0.362  14.487  18.947  0.00  0.00    +0.000 A 
ATOM      9  C   UNL     1      -0.487  13.264  18.282  0.00  0.00    +0.000 A 
ATOM     10  C   UNL     1      -0.681  12.089  19.020  0.00  0.00    +0.000 A 
ATOM     11  C   UNL     1      -1.233  10.772  18.492  0.00  0.00    +0.000 C 
ATOM     12  C   UNL     1      -2.688  10.606  19.064  0.00  0.00    +0.000 C 
ATOM     13  C   UNL     1      -3.659  10.650  17.890  0.00  0.00    +0.000 C 
ATOM     14  C   UNL     1      -2.852  11.133  16.702  0.00  0.00    +0.000 C 
ATOM     15  C   UNL     1      -1.450  10.619  16.973  0.00  0.00    +0.000 C 
ATOM     16  C   UNL     1      -0.318   9.629  18.973  0.00  0.00    +0.000 C 
ATOM     17  O   UNL     1      -0.100  15.596  18.201  0.00  0.00    +0.000 OA
ATOM     18  C   UNL     1       0.201  16.776  18.952  0.00  0.00    +0.000 C 
ATOM     19  C   UNL     1       0.043  16.723  20.473  0.00  0.00    +0.000 C 
ATOM     20  O   UNL     1      -0.820  15.710  20.966  0.00  0.00    +0.000 OA
ENDROOT
BRANCH   1  24
ATOM     21  C   UNL     1       2.788   5.343  18.769  0.00  0.00    +0.000 A 
ATOM     22  C   UNL     1       2.887   6.614  18.195  0.00  0.00    +0.000 A 
ATOM     23  C   UNL     1       2.355   7.750  18.841  0.00  0.00    +0.000 A 
ATOM     24  C   UNL     1       1.751   7.664  20.103  0.00  0.00    +0.000 A 
ATOM     25  C   UNL     1       1.655   6.376  20.665  0.00  0.00    +0.000 A 
ATOM     26  C   UNL     1       2.160   5.237  20.015  0.00  0.00    +0.000 A 
BRANCH  21  27
ATOM     27  C   UNL     1       3.325   4.118  18.059  0.00  0.00    +0.000 C 
BRANCH  27  29
ATOM     28  N   UNL     1       5.586   3.633  18.949  0.00  0.00    +0.000 N 
ATOM     29  C   UNL     1       4.288   3.240  18.841  0.00  0.00    +0.000 C 
ATOM     30  O   UNL     1       3.912   2.196  19.383  0.00  0.00    +0.000 OA
ATOM     31  H   UNL     1       6.206   3.071  19.523  0.00  0.00    +0.000 HD
ATOM     32  H   UNL     1       5.912   4.537  18.626  0.00  0.00    +0.000 HD
ENDBRANCH  27  29
ENDBRANCH  21  27
ENDBRANCH   1  24
TORSDOF 3
ENDMDL
MODEL 3
REMARK VINA RESULT:      -8.0      3.306      9.268
REMARK  Name = 
REMARK  3 active torsions:
REMARK  status: ('A' for Active; 'I' for Inactive)
REMARK    1  A    between atoms: C_2  and  C_4
REMARK    2  A    between atoms: C_4  and  C_5
REMARK    3  A    between atoms: C_8  and  C_9
REMARK                            x       y       z     vdW  Elec       q    Type
REMARK                         _______ _______ _______ _____ _____    ______ ____
ROOT
ATOM      1  C   UNL     1       1.102   9.002  20.996  0.00  0.00    +0.000 C 
ATOM      2  O   UNL     1       1.466   9.093  22.172  0.00  0.00    +0.000 OA
ATOM      3  N   UNL     1       0.213   9.949  20.453  0.00  0.00    +0.000 N 
ATOM      4  C   UNL     1      -0.267  11.054  21.320  0.00  0.00    +0.000 C 
ATOM      5  C   UNL     1      -0.453  12.361  20.567  0.00  0.00    +0.000 A 
ATOM      6  C   UNL     1      -0.526  13.593  21.223  0.00  0.00    +0.000 A 
ATOM      7  C   UNL     1      -0.485  14.769  20.481  0.00  0.00    +0.000 A 
ATOM      8  C   UNL     1      -0.290  14.726  19.107  0.00  0.00    +0.000 A 
ATOM      9  C   UNL     1      -0.448  13.509  18.438  0.00  0.00    +0.000 A 
ATOM     10  C   UNL     1      -0.653  12.334  19.172  0.00  0.00    +0.000 A 
ATOM     11  C   UNL     1      -1.237  11.031  18.645  0.00  0.00    +0.000 C 
ATOM     12  C   UNL     1      -2.686  10.888  19.238  0.00  0.00    +0.000 C 
ATOM     13  C   UNL     1      -3.674  10.957  18.078  0.00  0.00    +0.000 C 
ATOM     14  C   UNL     1      -2.874  11.431  16.881  0.00  0.00    +0.000 C 
ATOM     15  C   UNL     1      -1.478  10.890  17.129  0.00  0.00    +0.000 C 
ATOM     16  C   UNL     1      -0.337   9.868  19.108  0.00  0.00    +0.000 C 
ATOM     17  O   UNL     1      -0.018  15.834  18.363  0.00  0.00    +0.000 OA
ATOM     18  C   UNL     1       0.316  17.004  19.116  0.00  0.00    +0.000 C 
ATOM     19  C   UNL     1       0.178  16.946  20.639  0.00  0.00    +0.000 C 
ATOM     20  O   UNL     1      -0.696  15.946  21.139  0.00  0.00    +0.000 OA
ENDROOT
BRANCH   1  24
ATOM     21  C   UNL     1       2.691   5.525  18.842  0.00  0.00    +0.000 A 
ATOM     22  C   UNL     1       2.775   6.792  18.258  0.00  0.00    +0.000 A 
ATOM     23  C   UNL     1       2.271   7.934  18.915  0.00  0.00    +0.000 A 
ATOM     24  C   UNL     1       1.712   7.859  20.198  0.00  0.00    +0.000 A 
ATOM     25  C   UNL     1       1.629   6.575  20.770  0.00  0.00    +0.000 A 
ATOM     26  C   UNL     1       2.106   5.429  20.110  0.00  0.00    +0.000 A 
BRANCH  21  27
ATOM     27  C   UNL     1       3.198   4.293  18.122  0.00  0.00    +0.000 C 
BRANCH  27  29
ATOM     28  N   UNL     1       2.562   1.926  17.757  0.00  0.00    +0.000 N 
ATOM     29  C   UNL     1       2.169   3.229  17.777  0.00  0.00    +0.000 C 
ATOM     30  O   UNL     1       0.995   3.524  17.530  0.00  0.00    +0.000 OA
ATOM     31  H   UNL     1       1.855   1.220  17.585  0.00  0.00    +0.000 HD
ATOM     32  H   UNL     1       3.479   1.627  18.069  0.00  0.00    +0.000 HD
ENDBRANCH  27  29
ENDBRANCH  21  27
ENDBRANCH   1  24
TORSDOF 3
ENDMDL
MODEL 4
REMARK VINA RESULT:      -8.0      0.708      1.032
REMARK  Name = 
REMARK  3 active torsions:
REMARK  status: ('A' for Active; 'I' for Inactive)
REMARK    1  A    between atoms: C_2  and  C_4
REMARK    2  A    between atoms: C_4  and  C_5
REMARK    3  A    between atoms: C_8  and  C_9
REMARK                            x       y       z     vdW  Elec       q    Type
REMARK                         _______ _______ _______ _____ _____    ______ ____
ROOT
ATOM      1  C   UNL     1       1.320   9.351  18.488  0.00  0.00    +0.000 C 
ATOM      2  O   UNL     1       1.434   9.945  17.413  0.00  0.00    +0.000 OA
ATOM      3  N   UNL     1       1.766   8.022  18.615  0.00  0.00    +0.000 N 
ATOM      4  C   UNL     1       2.377   7.358  17.435  0.00  0.00    +0.000 C 
ATOM      5  C   UNL     1       3.504   6.409  17.805  0.00  0.00    +0.000 A 
ATOM      6  C   UNL     1       4.450   5.978  16.870  0.00  0.00    +0.000 A 
ATOM      7  C   UNL     1       5.574   5.283  17.303  0.00  0.00    +0.000 A 
ATOM      8  C   UNL     1       5.801   5.088  18.658  0.00  0.00    +0.000 A 
ATOM      9  C   UNL     1       4.757   5.312  19.560  0.00  0.00    +0.000 A 
ATOM     10  C   UNL     1       3.554   5.866  19.104  0.00  0.00    +0.000 A 
ATOM     11  C   UNL     1       2.207   5.805  19.812  0.00  0.00    +0.000 C 
ATOM     12  C   UNL     1       1.299   4.798  19.015  0.00  0.00    +0.000 C 
ATOM     13  C   UNL     1       1.014   3.607  19.923  0.00  0.00    +0.000 C 
ATOM     14  C   UNL     1       1.963   3.745  21.097  0.00  0.00    +0.000 C 
ATOM     15  C   UNL     1       2.153   5.243  21.247  0.00  0.00    +0.000 C 
ATOM     16  C   UNL     1       1.591   7.218  19.816  0.00  0.00    +0.000 C 
ATOM     17  O   UNL     1       6.981   4.620  19.152  0.00  0.00    +0.000 OA
ATOM     18  C   UNL     1       8.062   4.590  18.214  0.00  0.00    +0.000 C 
ATOM     19  C   UNL     1       7.758   4.919  16.751  0.00  0.00    +0.000 C 
ATOM     20  O   UNL     1       6.405   4.759  16.354  0.00  0.00    +0.000 OA
ENDROOT
BRANCH   1  24
ATOM     21  C   UNL     1      -0.431  11.432  21.930  0.00  0.00    +0.000 A 
ATOM     22  C   UNL     1       0.480  12.106  21.112  0.00  0.00    +0.000 A 
ATOM     23  C   UNL     1       1.070  11.470  19.999  0.00  0.00    +0.000 A 
ATOM     24  C   UNL     1       0.733  10.159  19.636  0.00  0.00    +0.000 A 
ATOM     25  C   UNL     1      -0.182   9.493  20.474  0.00  0.00    +0.000 A 
ATOM     26  C   UNL     1      -0.754  10.112  21.598  0.00  0.00    +0.000 A 
BRANCH  21  27
ATOM     27  C   UNL     1      -1.037  12.101  23.147  0.00  0.00    +0.000 C 
BRANCH  27  29
ATOM     28  N   UNL     1      -3.419  11.990  23.821  0.00  0.00    +0.000 N 
ATOM     29  C   UNL     1      -2.478  12.569  23.025  0.00  0.00    +0.000 C 
ATOM     30  O   UNL     1      -2.801  13.462  22.236  0.00  0.00    +0.000 OA
ATOM     31  H   UNL     1      -4.366  12.351  23.775  0.00  0.00    +0.000 HD
ATOM     32  H   UNL     1      -3.183  11.344  24.564  0.00  0.00    +0.000 HD
ENDBRANCH  27  29
ENDBRANCH  21  27
ENDBRANCH   1  24
TORSDOF 3
ENDMDL
MODEL 5
REMARK VINA RESULT:      -7.9      3.080      9.247
REMARK  Name = 
REMARK  3 active torsions:
REMARK  status: ('A' for Active; 'I' for Inactive)
REMARK    1  A    between atoms: C_2  and  C_4
REMARK    2  A    between atoms: C_4  and  C_5
REMARK    3  A    between atoms: C_8  and  C_9
REMARK                            x       y       z     vdW  Elec       q    Type
REMARK                         _______ _______ _______ _____ _____    ______ ____
ROOT
ATOM      1  C   UNL     1       0.902   8.794  21.116  0.00  0.00    +0.000 C 
ATOM      2  O   UNL     1       1.179   8.913  22.312  0.00  0.00    +0.000 OA
ATOM      3  N   UNL     1       0.050   9.723  20.490  0.00  0.00    +0.000 N 
ATOM      4  C   UNL     1      -0.499  10.843  21.295  0.00  0.00    +0.000 C 
ATOM      5  C   UNL     1      -0.637  12.132  20.502  0.00  0.00    +0.000 A 
ATOM      6  C   UNL     1      -0.765  13.377  21.125  0.00  0.00    +0.000 A 
ATOM      7  C   UNL     1      -0.677  14.537  20.362  0.00  0.00    +0.000 A 
ATOM      8  C   UNL     1      -0.383  14.467  19.007  0.00  0.00    +0.000 A 
ATOM      9  C   UNL     1      -0.484  13.235  18.355  0.00  0.00    +0.000 A 
ATOM     10  C   UNL     1      -0.735  12.074  19.098  0.00  0.00    +0.000 A 
ATOM     11  C   UNL     1      -1.272  10.755  18.559  0.00  0.00    +0.000 C 
ATOM     12  C   UNL     1      -2.760  10.615  19.048  0.00  0.00    +0.000 C 
ATOM     13  C   UNL     1      -3.661  10.651  17.819  0.00  0.00    +0.000 C 
ATOM     14  C   UNL     1      -2.779  11.106  16.672  0.00  0.00    +0.000 C 
ATOM     15  C   UNL     1      -1.402  10.581  17.033  0.00  0.00    +0.000 C 
ATOM     16  C   UNL     1      -0.401   9.610  19.110  0.00  0.00    +0.000 C 
ATOM     17  O   UNL     1      -0.064  15.560  18.261  0.00  0.00    +0.000 OA
ATOM     18  C   UNL     1       0.207  16.748  19.011  0.00  0.00    +0.000 C 
ATOM     19  C   UNL     1      -0.040  16.722  20.520  0.00  0.00    +0.000 C 
ATOM     20  O   UNL     1      -0.942  15.727  20.977  0.00  0.00    +0.000 OA
ENDROOT
BRANCH   1  24
ATOM     21  C   UNL     1       3.013   5.657  18.891  0.00  0.00    +0.000 A 
ATOM     22  C   UNL     1       2.344   5.328  20.073  0.00  0.00    +0.000 A 
ATOM     23  C   UNL     1       1.658   6.308  20.821  0.00  0.00    +0.000 A 
ATOM     24  C   UNL     1       1.575   7.639  20.389  0.00  0.00    +0.000 A 
ATOM     25  C   UNL     1       2.259   7.955  19.199  0.00  0.00    +0.000 A 
ATOM     26  C   UNL     1       2.965   6.988  18.463  0.00  0.00    +0.000 A 
BRANCH  21  27
ATOM     27  C   UNL     1       3.781   4.613  18.107  0.00  0.00    +0.000 C 
BRANCH  27  29
ATOM     28  N   UNL     1       4.831   2.692  19.268  0.00  0.00    +0.000 N 
ATOM     29  C   UNL     1       4.966   3.965  18.806  0.00  0.00    +0.000 C 
ATOM     30  O   UNL     1       6.037   4.564  18.947  0.00  0.00    +0.000 OA
ATOM     31  H   UNL     1       5.646   2.248  19.679  0.00  0.00    +0.000 HD
ATOM     32  H   UNL     1       4.018   2.122  19.069  0.00  0.00    +0.000 HD
ENDBRANCH  27  29
ENDBRANCH  21  27
ENDBRANCH   1  24
TORSDOF 3
ENDMDL
MODEL 6
REMARK VINA RESULT:      -7.6      9.558     10.687
REMARK  Name = 
REMARK  3 active torsions:
REMARK  status: ('A' for Active; 'I' for Inactive)
REMARK    1  A    between atoms: C_2  and  C_4
REMARK    2  A    between atoms: C_4  and  C_5
REMARK    3  A    between atoms: C_8  and  C_9
REMARK                            x       y       z     vdW  Elec       q    Type
REMARK                         _______ _______ _______ _____ _____    ______ ____
ROOT
ATOM      1  C   UNL     1       6.614  14.177  22.372  0.00  0.00    +0.000 C 
ATOM      2  O   UNL     1       5.661  14.950  22.242  0.00  0.00    +0.000 OA
ATOM      3  N   UNL     1       7.538  14.008  21.324  0.00  0.00    +0.000 N 
ATOM      4  C   UNL     1       7.344  14.779  20.071  0.00  0.00    +0.000 C 
ATOM      5  C   UNL     1       8.653  15.205  19.427  0.00  0.00    +0.000 A 
ATOM      6  C   UNL     1       8.717  16.232  18.482  0.00  0.00    +0.000 A 
ATOM      7  C   UNL     1       9.956  16.722  18.083  0.00  0.00    +0.000 A 
ATOM      8  C   UNL     1      11.120  16.255  18.677  0.00  0.00    +0.000 A 
ATOM      9  C   UNL     1      11.069  15.086  19.441  0.00  0.00    +0.000 A 
ATOM     10  C   UNL     1       9.832  14.489  19.715  0.00  0.00    +0.000 A 
ATOM     11  C   UNL     1       9.602  13.050  20.156  0.00  0.00    +0.000 C 
ATOM     12  C   UNL     1       8.977  12.277  18.936  0.00  0.00    +0.000 C 
ATOM     13  C   UNL     1       9.980  11.217  18.493  0.00  0.00    +0.000 C 
ATOM     14  C   UNL     1      11.274  11.545  19.210  0.00  0.00    +0.000 C 
ATOM     15  C   UNL     1      10.825  12.183  20.512  0.00  0.00    +0.000 C 
ATOM     16  C   UNL     1       8.637  13.053  21.357  0.00  0.00    +0.000 C 
ATOM     17  O   UNL     1      12.333  16.847  18.496  0.00  0.00    +0.000 OA
ATOM     18  C   UNL     1      12.293  18.132  17.868  0.00  0.00    +0.000 C 
ATOM     19  C   UNL     1      10.952  18.631  17.328  0.00  0.00    +0.000 C 
ATOM     20  O   UNL     1       9.986  17.626  17.060  0.00  0.00    +0.000 OA
ENDROOT
BRANCH   1  24
ATOM     21  C   UNL     1       6.861  11.960  26.150  0.00  0.00    +0.000 A 
ATOM     22  C   UNL     1       7.655  13.095  25.968  0.00  0.00    +0.000 A 
ATOM     23  C   UNL     1       7.610  13.833  24.766  0.00  0.00    +0.000 A 
ATOM     24  C   UNL     1       6.734  13.492  23.725  0.00  0.00    +0.000 A 
ATOM     25  C   UNL     1       5.945  12.343  23.923  0.00  0.00    +0.000 A 
ATOM     26  C   UNL     1       6.004  11.589  25.108  0.00  0.00    +0.000 A 
BRANCH  21  27
ATOM     27  C   UNL     1       6.936  11.146  27.425  0.00  0.00    +0.000 C 
BRANCH  27  29
ATOM     28  N   UNL     1       5.717   9.102  28.112  0.00  0.00    +0.000 N 
ATOM     29  C   UNL     1       5.664  10.438  27.863  0.00  0.00    +0.000 C 
ATOM     30  O   UNL     1       4.602  11.052  28.004  0.00  0.00    +0.000 OA
ATOM     31  H   UNL     1       4.878   8.651  28.461  0.00  0.00    +0.000 HD
ATOM     32  H   UNL     1       6.587   8.582  28.127  0.00  0.00    +0.000 HD
ENDBRANCH  27  29
ENDBRANCH  21  27
ENDBRANCH   1  24
TORSDOF 3
ENDMDL
MODEL 7
REMARK VINA RESULT:      -7.6      3.418     10.114
REMARK  Name = 
REMARK  3 active torsions:
REMARK  status: ('A' for Active; 'I' for Inactive)
REMARK    1  A    between atoms: C_2  and  C_4
REMARK    2  A    between atoms: C_4  and  C_5
REMARK    3  A    between atoms: C_8  and  C_9
REMARK                            x       y       z     vdW  Elec       q    Type
REMARK                         _______ _______ _______ _____ _____    ______ ____
ROOT
ATOM      1  C   UNL     1      -0.137  10.841  19.110  0.00  0.00    +0.000 C 
ATOM      2  O   UNL     1      -1.335  10.571  18.994  0.00  0.00    +0.000 OA
ATOM      3  N   UNL     1       0.270  12.161  19.381  0.00  0.00    +0.000 N 
ATOM      4  C   UNL     1      -0.769  13.211  19.530  0.00  0.00    +0.000 C 
ATOM      5  C   UNL     1      -0.410  14.259  20.570  0.00  0.00    +0.000 A 
ATOM      6  C   UNL     1      -1.370  15.101  21.139  0.00  0.00    +0.000 A 
ATOM      7  C   UNL     1      -1.028  15.892  22.230  0.00  0.00    +0.000 A 
ATOM      8  C   UNL     1       0.231  15.789  22.805  0.00  0.00    +0.000 A 
ATOM      9  C   UNL     1       1.245  15.129  22.105  0.00  0.00    +0.000 A 
ATOM     10  C   UNL     1       0.941  14.461  20.911  0.00  0.00    +0.000 A 
ATOM     11  C   UNL     1       1.931  14.053  19.829  0.00  0.00    +0.000 C 
ATOM     12  C   UNL     1       1.705  15.006  18.598  0.00  0.00    +0.000 C 
ATOM     13  C   UNL     1       2.965  15.845  18.420  0.00  0.00    +0.000 C 
ATOM     14  C   UNL     1       3.789  15.628  19.674  0.00  0.00    +0.000 C 
ATOM     15  C   UNL     1       3.438  14.217  20.108  0.00  0.00    +0.000 C 
ATOM     16  C   UNL     1       1.661  12.585  19.445  0.00  0.00    +0.000 C 
ATOM     17  O   UNL     1       0.550  16.363  23.999  0.00  0.00    +0.000 OA
ATOM     18  C   UNL     1      -0.564  16.856  24.751  0.00  0.00    +0.000 C 
ATOM     19  C   UNL     1      -1.944  16.842  24.091  0.00  0.00    +0.000 C 
ATOM     20  O   UNL     1      -1.946  16.800  22.673  0.00  0.00    +0.000 OA
ENDROOT
BRANCH   1  24
ATOM     21  C   UNL     1       2.503   7.339  19.008  0.00  0.00    +0.000 A 
ATOM     22  C   UNL     1       2.311   8.087  17.843  0.00  0.00    +0.000 A 
ATOM     23  C   UNL     1       1.466   9.217  17.833  0.00  0.00    +0.000 A 
ATOM     24  C   UNL     1       0.824   9.667  18.995  0.00  0.00    +0.000 A 
ATOM     25  C   UNL     1       1.024   8.899  20.158  0.00  0.00    +0.000 A 
ATOM     26  C   UNL     1       1.844   7.758  20.169  0.00  0.00    +0.000 A 
BRANCH  21  27
ATOM     27  C   UNL     1       3.381   6.104  19.011  0.00  0.00    +0.000 C 
BRANCH  27  29
ATOM     28  N   UNL     1       1.845   4.476  17.948  0.00  0.00    +0.000 N 
ATOM     29  C   UNL     1       3.080   5.046  17.962  0.00  0.00    +0.000 C 
ATOM     30  O   UNL     1       3.925   4.710  17.126  0.00  0.00    +0.000 OA
ATOM     31  H   UNL     1       1.636   3.816  17.207  0.00  0.00    +0.000 HD
ATOM     32  H   UNL     1       1.085   4.804  18.533  0.00  0.00    +0.000 HD
ENDBRANCH  27  29
ENDBRANCH  21  27
ENDBRANCH   1  24
TORSDOF 3
ENDMDL
MODEL 8
REMARK VINA RESULT:      -7.5      5.246      9.390
REMARK  Name = 
REMARK  3 active torsions:
REMARK  status: ('A' for Active; 'I' for Inactive)
REMARK    1  A    between atoms: C_2  and  C_4
REMARK    2  A    between atoms: C_4  and  C_5
REMARK    3  A    between atoms: C_8  and  C_9
REMARK                            x       y       z     vdW  Elec       q    Type
REMARK                         _______ _______ _______ _____ _____    ______ ____
ROOT
ATOM      1  C   UNL     1       1.675  14.971  20.299  0.00  0.00    +0.000 C 
ATOM      2  O   UNL     1       1.202  16.079  20.564  0.00  0.00    +0.000 OA
ATOM      3  N   UNL     1       0.884  13.814  20.426  0.00  0.00    +0.000 N 
ATOM      4  C   UNL     1      -0.523  13.957  20.878  0.00  0.00    +0.000 C 
ATOM      5  C   UNL     1      -1.462  12.962  20.218  0.00  0.00    +0.000 A 
ATOM      6  C   UNL     1      -2.847  13.150  20.196  0.00  0.00    +0.000 A 
ATOM      7  C   UNL     1      -3.639  12.325  19.404  0.00  0.00    +0.000 A 
ATOM      8  C   UNL     1      -3.055  11.375  18.577  0.00  0.00    +0.000 A 
ATOM      9  C   UNL     1      -1.712  11.040  18.771  0.00  0.00    +0.000 A 
ATOM     10  C   UNL     1      -0.943  11.763  19.691  0.00  0.00    +0.000 A 
ATOM     11  C   UNL     1       0.365  11.311  20.327  0.00  0.00    +0.000 C 
ATOM     12  C   UNL     1       0.063  10.964  21.831  0.00  0.00    +0.000 C 
ATOM     13  C   UNL     1       0.295   9.469  22.020  0.00  0.00    +0.000 C 
ATOM     14  C   UNL     1       0.426   8.890  20.625  0.00  0.00    +0.000 C 
ATOM     15  C   UNL     1       1.028  10.020  19.810  0.00  0.00    +0.000 C 
ATOM     16  C   UNL     1       1.384  12.462  20.221  0.00  0.00    +0.000 C 
ATOM     17  O   UNL     1      -3.750  10.699  17.620  0.00  0.00    +0.000 OA
ATOM     18  C   UNL     1      -5.056  11.213  17.342  0.00  0.00    +0.000 C 
ATOM     19  C   UNL     1      -5.596  12.334  18.231  0.00  0.00    +0.000 C 
ATOM     20  O   UNL     1      -4.994  12.445  19.512  0.00  0.00    +0.000 OA
ENDROOT
BRANCH   1  24
ATOM     21  C   UNL     1       5.713  15.063  18.585  0.00  0.00    +0.000 A 
ATOM     22  C   UNL     1       5.557  15.051  19.974  0.00  0.00    +0.000 A 
ATOM     23  C   UNL     1       4.276  15.027  20.565  0.00  0.00    +0.000 A 
ATOM     24  C   UNL     1       3.109  14.964  19.791  0.00  0.00    +0.000 A 
ATOM     25  C   UNL     1       3.283  14.983  18.393  0.00  0.00    +0.000 A 
ATOM     26  C   UNL     1       4.556  15.032  17.799  0.00  0.00    +0.000 A 
BRANCH  21  27
ATOM     27  C   UNL     1       7.086  15.126  17.950  0.00  0.00    +0.000 C 
BRANCH  27  29
ATOM     28  N   UNL     1       7.729  12.923  17.016  0.00  0.00    +0.000 N 
ATOM     29  C   UNL     1       7.919  13.855  17.989  0.00  0.00    +0.000 C 
ATOM     30  O   UNL     1       8.762  13.664  18.872  0.00  0.00    +0.000 OA
ATOM     31  H   UNL     1       8.332  12.107  17.018  0.00  0.00    +0.000 HD
ATOM     32  H   UNL     1       7.140  13.088  16.209  0.00  0.00    +0.000 HD
ENDBRANCH  27  29
ENDBRANCH  21  27
ENDBRANCH   1  24
TORSDOF 3
ENDMDL
MODEL 9
REMARK VINA RESULT:      -7.5      5.082      9.292
REMARK  Name = 
REMARK  3 active torsions:
REMARK  status: ('A' for Active; 'I' for Inactive)
REMARK    1  A    between atoms: C_2  and  C_4
REMARK    2  A    between atoms: C_4  and  C_5
REMARK    3  A    between atoms: C_8  and  C_9
REMARK                            x       y       z     vdW  Elec       q    Type
REMARK                         _______ _______ _______ _____ _____    ______ ____
ROOT
ATOM      1  C   UNL     1       1.915  14.789  20.034  0.00  0.00    +0.000 C 
ATOM      2  O   UNL     1       1.407  15.770  20.583  0.00  0.00    +0.000 OA
ATOM      3  N   UNL     1       1.210  13.573  19.959  0.00  0.00    +0.000 N 
ATOM      4  C   UNL     1      -0.152  13.502  20.547  0.00  0.00    +0.000 C 
ATOM      5  C   UNL     1      -1.093  12.606  19.759  0.00  0.00    +0.000 A 
ATOM      6  C   UNL     1      -2.482  12.684  19.896  0.00  0.00    +0.000 A 
ATOM      7  C   UNL     1      -3.298  11.994  19.005  0.00  0.00    +0.000 A 
ATOM      8  C   UNL     1      -2.745  11.301  17.938  0.00  0.00    +0.000 A 
ATOM      9  C   UNL     1      -1.372  11.038  17.938  0.00  0.00    +0.000 A 
ATOM     10  C   UNL     1      -0.559  11.599  18.931  0.00  0.00    +0.000 A 
ATOM     11  C   UNL     1       0.829  11.122  19.337  0.00  0.00    +0.000 C 
ATOM     12  C   UNL     1       0.699  10.428  20.742  0.00  0.00    +0.000 C 
ATOM     13  C   UNL     1       1.035   8.951  20.566  0.00  0.00    +0.000 C 
ATOM     14  C   UNL     1       1.060   8.707  19.070  0.00  0.00    +0.000 C 
ATOM     15  C   UNL     1       1.513  10.033  18.486  0.00  0.00    +0.000 C 
ATOM     16  C   UNL     1       1.765  12.344  19.412  0.00  0.00    +0.000 C 
ATOM     17  O   UNL     1      -3.490  10.800  16.914  0.00  0.00    +0.000 OA
ATOM     18  C   UNL     1      -4.845  11.258  16.870  0.00  0.00    +0.000 C 
ATOM     19  C   UNL     1      -5.358  12.109  18.032  0.00  0.00    +0.000 C 
ATOM     20  O   UNL     1      -4.641  11.981  19.250  0.00  0.00    +0.000 OA
ENDROOT
BRANCH   1  24
ATOM     21  C   UNL     1       5.992  15.288  18.492  0.00  0.00    +0.000 A 
ATOM     22  C   UNL     1       4.914  15.314  17.603  0.00  0.00    +0.000 A 
ATOM     23  C   UNL     1       3.589  15.152  18.058  0.00  0.00    +0.000 A 
ATOM     24  C   UNL     1       3.290  15.008  19.420  0.00  0.00    +0.000 A 
ATOM     25  C   UNL     1       4.387  14.977  20.302  0.00  0.00    +0.000 A 
ATOM     26  C   UNL     1       5.712  15.113  19.852  0.00  0.00    +0.000 A 
BRANCH  21  27
ATOM     27  C   UNL     1       7.418  15.424  18.001  0.00  0.00    +0.000 C 
BRANCH  27  29
ATOM     28  N   UNL     1       8.206  13.228  17.167  0.00  0.00    +0.000 N 
ATOM     29  C   UNL     1       8.305  14.195  18.119  0.00  0.00    +0.000 C 
ATOM     30  O   UNL     1       9.111  14.069  19.046  0.00  0.00    +0.000 OA
ATOM     31  H   UNL     1       8.844  12.441  17.222  0.00  0.00    +0.000 HD
ATOM     32  H   UNL     1       7.650  13.342  16.327  0.00  0.00    +0.000 HD
ENDBRANCH  27  29
ENDBRANCH  21  27
ENDBRANCH   1  24
TORSDOF 3
ENDMDL
