MODEL 1
REMARK VINA RESULT:      -9.1      0.000      0.000
REMARK  Name = 
REMARK  5 active torsions:
REMARK  status: ('A' for Active; 'I' for Inactive)
REMARK    1  A    between atoms: C_1  and  C_2
REMARK    2  A    between atoms: C_5  and  C_6
REMARK    3  A    between atoms: C_11  and  C_12
REMARK    4  A    between atoms: C_12  and  N_13
REMARK    5  A    between atoms: C_14  and  C_16
REMARK                            x       y       z     vdW  Elec       q    Type
REMARK                         _______ _______ _______ _____ _____    ______ ____
ROOT
ATOM      1  N   UNL     1       1.768   6.556  19.426  0.00  0.00    +0.000 N 
ATOM      2  C   UNL     1       2.226   7.748  18.914  0.00  0.00    +0.000 C 
ATOM      3  O   UNL     1       3.317   7.901  18.385  0.00  0.00    +0.000 OA
ATOM      4  H   UNL     1       0.800   6.523  19.734  0.00  0.00    +0.000 HD
ENDROOT
BRANCH   2   5
ATOM      5  C   UNL     1       1.230   8.902  19.000  0.00  0.00    +0.000 A 
ATOM      6  N   UNL     1       0.904   9.466  17.870  0.00  0.00    +0.000 NA
ATOM      7  N   UNL     1       0.058  10.533  17.910  0.00  0.00    +0.000 N 
ATOM      8  C   UNL     1      -0.454  11.118  19.044  0.00  0.00    +0.000 A 
ATOM      9  O   UNL     1      -1.169  12.112  19.003  0.00  0.00    +0.000 OA
ATOM     10  C   UNL     1      -0.109  10.471  20.321  0.00  0.00    +0.000 A 
ATOM     11  C   UNL     1      -0.610  10.980  21.526  0.00  0.00    +0.000 A 
ATOM     12  C   UNL     1      -0.309  10.343  22.729  0.00  0.00    +0.000 A 
ATOM     13  C   UNL     1       0.477   9.195  22.727  0.00  0.00    +0.000 A 
ATOM     14  C   UNL     1       0.975   8.687  21.523  0.00  0.00    +0.000 A 
ATOM     15  C   UNL     1       0.702   9.339  20.314  0.00  0.00    +0.000 A 
ATOM     16  H   UNL     1      -0.167  10.975  17.022  0.00  0.00    +0.000 HD
ENDBRANCH   2   5
BRANCH   1  17
ATOM     17  C   UNL     1       2.595   5.366  19.434  0.00  0.00    +0.000 C 
BRANCH  17  23
ATOM     18  C   UNL     1       3.871   3.905  17.760  0.00  0.00    +0.000 C 
ATOM     19  O   UNL     1       4.187   2.882  18.721  0.00  0.00    +0.000 OA
ATOM     20  C   UNL     1       3.250   1.810  18.723  0.00  0.00    +0.000 C 
ATOM     21  C   UNL     1       1.871   2.304  19.130  0.00  0.00    +0.000 C 
ATOM     22  C   UNL     1       1.434   3.444  18.218  0.00  0.00    +0.000 C 
ATOM     23  C   UNL     1       2.507   4.544  18.125  0.00  0.00    +0.000 C 
BRANCH  18  28
ATOM     24  C   UNL     1       8.082   7.964  17.628  0.00  0.00    +0.000 C 
ATOM     25  C   UNL     1       7.045   6.883  17.625  0.00  0.00    +0.000 A 
ATOM     26  C   UNL     1       7.015   5.923  18.638  0.00  0.00    +0.000 A 
ATOM     27  C   UNL     1       6.019   4.945  18.657  0.00  0.00    +0.000 A 
ATOM     28  C   UNL     1       5.017   4.907  17.677  0.00  0.00    +0.000 A 
ATOM     29  C   UNL     1       5.087   5.840  16.628  0.00  0.00    +0.000 A 
ATOM     30  C   UNL     1       6.089   6.817  16.605  0.00  0.00    +0.000 A 
ENDBRANCH  18  28
ENDBRANCH  17  23
ENDBRANCH   1  17
TORSDOF 4
ENDMDL
MODEL 2
REMARK VINA RESULT:      -9.1      1.608      2.220
REMARK  Name = 
REMARK  5 active torsions:
REMARK  status: ('A' for Active; 'I' for Inactive)
REMARK    1  A    between atoms: C_1  and  C_2
REMARK    2  A    between atoms: C_5  and  C_6
REMARK    3  A    between atoms: C_11  and  C_12
REMARK    4  A    between atoms: C_12  and  N_13
REMARK    5  A    between atoms: C_14  and  C_16
REMARK                            x       y       z     vdW  Elec       q    Type
REMARK                         _______ _______ _______ _____ _____    ______ ____
ROOT
ATOM      1  N   UNL     1       2.002   6.285  20.700  0.00  0.00    +0.000 N 
ATOM      2  C   UNL     1       2.026   7.514  20.085  0.00  0.00    +0.000 C 
ATOM      3  O   UNL     1       2.605   7.753  19.035  0.00  0.00    +0.000 OA
ATOM      4  H   UNL     1       1.391   6.178  21.506  0.00  0.00    +0.000 HD
ENDROOT
BRANCH   2   5
ATOM      5  C   UNL     1       1.210   8.595  20.791  0.00  0.00    +0.000 A 
ATOM      6  N   UNL     1       1.294   8.620  22.092  0.00  0.00    +0.000 NA
ATOM      7  N   UNL     1       0.541   9.536  22.763  0.00  0.00    +0.000 N 
ATOM      8  C   UNL     1      -0.353  10.417  22.200  0.00  0.00    +0.000 A 
ATOM      9  O   UNL     1      -1.036  11.178  22.875  0.00  0.00    +0.000 OA
ATOM     10  C   UNL     1      -0.433  10.410  20.730  0.00  0.00    +0.000 A 
ATOM     11  C   UNL     1      -1.295  11.294  20.068  0.00  0.00    +0.000 A 
ATOM     12  C   UNL     1      -1.343  11.307  18.675  0.00  0.00    +0.000 A 
ATOM     13  C   UNL     1      -0.523  10.451  17.946  0.00  0.00    +0.000 A 
ATOM     14  C   UNL     1       0.338   9.570  18.609  0.00  0.00    +0.000 A 
ATOM     15  C   UNL     1       0.369   9.530  20.008  0.00  0.00    +0.000 A 
ATOM     16  H   UNL     1       0.601   9.527  23.778  0.00  0.00    +0.000 HD
ENDBRANCH   2   5
BRANCH   1  17
ATOM     17  C   UNL     1       2.736   5.155  20.167  0.00  0.00    +0.000 C 
BRANCH  17  23
ATOM     18  C   UNL     1       3.381   4.087  17.929  0.00  0.00    +0.000 C 
ATOM     19  O   UNL     1       3.797   2.841  18.514  0.00  0.00    +0.000 OA
ATOM     20  C   UNL     1       2.766   1.857  18.522  0.00  0.00    +0.000 C 
ATOM     21  C   UNL     1       1.597   2.313  19.380  0.00  0.00    +0.000 C 
ATOM     22  C   UNL     1       1.091   3.668  18.899  0.00  0.00    +0.000 C 
ATOM     23  C   UNL     1       2.234   4.693  18.778  0.00  0.00    +0.000 C 
BRANCH  18  28
ATOM     24  C   UNL     1       7.868   7.826  17.580  0.00  0.00    +0.000 C 
ATOM     25  C   UNL     1       6.749   6.830  17.620  0.00  0.00    +0.000 A 
ATOM     26  C   UNL     1       6.802   5.736  18.486  0.00  0.00    +0.000 A 
ATOM     27  C   UNL     1       5.737   4.836  18.555  0.00  0.00    +0.000 A 
ATOM     28  C   UNL     1       4.585   5.011  17.774  0.00  0.00    +0.000 A 
ATOM     29  C   UNL     1       4.563   6.080  16.863  0.00  0.00    +0.000 A 
ATOM     30  C   UNL     1       5.633   6.980  16.790  0.00  0.00    +0.000 A 
ENDBRANCH  18  28
ENDBRANCH  17  23
ENDBRANCH   1  17
TORSDOF 4
ENDMDL
MODEL 3
REMARK VINA RESULT:      -9.0      1.021      1.072
REMARK  Name = 
REMARK  5 active torsions:
REMARK  status: ('A' for Active; 'I' for Inactive)
REMARK    1  A    between atoms: C_1  and  C_2
REMARK    2  A    between atoms: C_5  and  C_6
REMARK    3  A    between atoms: C_11  and  C_12
REMARK    4  A    between atoms: C_12  and  N_13
REMARK    5  A    between atoms: C_14  and  C_16
REMARK                            x       y       z     vdW  Elec       q    Type
REMARK                         _______ _______ _______ _____ _____    ______ ____
ROOT
ATOM      1  N   UNL     1       2.216   6.715  19.069  0.00  0.00    +0.000 N 
ATOM      2  C   UNL     1       1.674   7.455  20.094  0.00  0.00    +0.000 C 
ATOM      3  O   UNL     1       1.509   7.045  21.233  0.00  0.00    +0.000 OA
ATOM      4  H   UNL     1       2.412   7.199  18.197  0.00  0.00    +0.000 HD
ENDROOT
BRANCH   2   5
ATOM      5  C   UNL     1       1.325   8.894  19.723  0.00  0.00    +0.000 A 
ATOM      6  N   UNL     1       1.722   9.298  18.548  0.00  0.00    +0.000 NA
ATOM      7  N   UNL     1       1.476  10.592  18.200  0.00  0.00    +0.000 N 
ATOM      8  C   UNL     1       0.886  11.546  18.996  0.00  0.00    +0.000 A 
ATOM      9  O   UNL     1       0.745  12.708  18.632  0.00  0.00    +0.000 OA
ATOM     10  C   UNL     1       0.413  11.090  20.314  0.00  0.00    +0.000 A 
ATOM     11  C   UNL     1      -0.226  11.985  21.180  0.00  0.00    +0.000 A 
ATOM     12  C   UNL     1      -0.703  11.540  22.413  0.00  0.00    +0.000 A 
ATOM     13  C   UNL     1      -0.555  10.204  22.771  0.00  0.00    +0.000 A 
ATOM     14  C   UNL     1       0.083   9.311  21.904  0.00  0.00    +0.000 A 
ATOM     15  C   UNL     1       0.591   9.758  20.678  0.00  0.00    +0.000 A 
ATOM     16  H   UNL     1       1.813  10.896  17.290  0.00  0.00    +0.000 HD
ENDBRANCH   2   5
BRANCH   1  17
ATOM     17  C   UNL     1       2.589   5.327  19.251  0.00  0.00    +0.000 C 
BRANCH  17  23
ATOM     18  C   UNL     1       3.977   3.920  17.621  0.00  0.00    +0.000 C 
ATOM     19  O   UNL     1       4.296   2.905  18.590  0.00  0.00    +0.000 OA
ATOM     20  C   UNL     1       3.399   1.799  18.555  0.00  0.00    +0.000 C 
ATOM     21  C   UNL     1       1.989   2.241  18.912  0.00  0.00    +0.000 C 
ATOM     22  C   UNL     1       1.544   3.368  17.988  0.00  0.00    +0.000 C 
ATOM     23  C   UNL     1       2.579   4.507  17.938  0.00  0.00    +0.000 C 
BRANCH  18  28
ATOM     24  C   UNL     1       8.073   8.097  17.712  0.00  0.00    +0.000 C 
ATOM     25  C   UNL     1       7.061   6.994  17.641  0.00  0.00    +0.000 A 
ATOM     26  C   UNL     1       7.164   5.879  18.475  0.00  0.00    +0.000 A 
ATOM     27  C   UNL     1       6.195   4.875  18.439  0.00  0.00    +0.000 A 
ATOM     28  C   UNL     1       5.088   4.963  17.582  0.00  0.00    +0.000 A 
ATOM     29  C   UNL     1       5.021   6.058  16.703  0.00  0.00    +0.000 A 
ATOM     30  C   UNL     1       5.997   7.062  16.735  0.00  0.00    +0.000 A 
ENDBRANCH  18  28
ENDBRANCH  17  23
ENDBRANCH   1  17
TORSDOF 4
ENDMDL
MODEL 4
REMARK VINA RESULT:      -9.0      1.031      1.104
REMARK  Name = 
REMARK  5 active torsions:
REMARK  status: ('A' for Active; 'I' for Inactive)
REMARK    1  A    between atoms: C_1  and  C_2
REMARK    2  A    between atoms: C_5  and  C_6
REMARK    3  A    between atoms: C_11  and  C_12
REMARK    4  A    between atoms: C_12  and  N_13
REMARK    5  A    between atoms: C_14  and  C_16
REMARK                            x       y       z     vdW  Elec       q    Type
REMARK                         _______ _______ _______ _____ _____    ______ ____
ROOT
ATOM      1  N   UNL     1       1.547   7.115  20.348  0.00  0.00    +0.000 N 
ATOM      2  C   UNL     1       1.858   8.104  19.444  0.00  0.00    +0.000 C 
ATOM      3  O   UNL     1       2.781   8.047  18.645  0.00  0.00    +0.000 OA
ATOM      4  H   UNL     1       0.688   7.223  20.880  0.00  0.00    +0.000 HD
ENDROOT
BRANCH   2   5
ATOM      5  C   UNL     1       0.913   9.303  19.462  0.00  0.00    +0.000 A 
ATOM      6  N   UNL     1       0.720   9.900  18.319  0.00  0.00    +0.000 NA
ATOM      7  N   UNL     1      -0.076  11.005  18.302  0.00  0.00    +0.000 N 
ATOM      8  C   UNL     1      -0.665  11.596  19.396  0.00  0.00    +0.000 A 
ATOM      9  O   UNL     1      -1.327  12.623  19.310  0.00  0.00    +0.000 OA
ATOM     10  C   UNL     1      -0.471  10.911  20.686  0.00  0.00    +0.000 A 
ATOM     11  C   UNL     1      -1.058  11.424  21.849  0.00  0.00    +0.000 A 
ATOM     12  C   UNL     1      -0.900  10.754  23.062  0.00  0.00    +0.000 A 
ATOM     13  C   UNL     1      -0.171   9.570  23.109  0.00  0.00    +0.000 A 
ATOM     14  C   UNL     1       0.414   9.059  21.945  0.00  0.00    +0.000 A 
ATOM     15  C   UNL     1       0.285   9.743  20.730  0.00  0.00    +0.000 A 
ATOM     16  H   UNL     1      -0.197  11.472  17.407  0.00  0.00    +0.000 HD
ENDBRANCH   2   5
BRANCH   1  17
ATOM     17  C   UNL     1       2.353   5.917  20.469  0.00  0.00    +0.000 C 
BRANCH  17  23
ATOM     18  C   UNL     1       3.194   3.948  19.062  0.00  0.00    +0.000 C 
ATOM     19  O   UNL     1       3.612   3.168  20.196  0.00  0.00    +0.000 OA
ATOM     20  C   UNL     1       2.620   2.245  20.634  0.00  0.00    +0.000 C 
ATOM     21  C   UNL     1       1.377   2.979  21.110  0.00  0.00    +0.000 C 
ATOM     22  C   UNL     1       0.858   3.897  20.011  0.00  0.00    +0.000 C 
ATOM     23  C   UNL     1       1.969   4.810  19.458  0.00  0.00    +0.000 C 
BRANCH  18  28
ATOM     24  C   UNL     1       7.587   7.332  17.196  0.00  0.00    +0.000 C 
ATOM     25  C   UNL     1       6.491   6.412  17.639  0.00  0.00    +0.000 A 
ATOM     26  C   UNL     1       6.603   5.695  18.832  0.00  0.00    +0.000 A 
ATOM     27  C   UNL     1       5.561   4.875  19.267  0.00  0.00    +0.000 A 
ATOM     28  C   UNL     1       4.372   4.760  18.532  0.00  0.00    +0.000 A 
ATOM     29  C   UNL     1       4.288   5.437  17.304  0.00  0.00    +0.000 A 
ATOM     30  C   UNL     1       5.336   6.255  16.865  0.00  0.00    +0.000 A 
ENDBRANCH  18  28
ENDBRANCH  17  23
ENDBRANCH   1  17
TORSDOF 4
ENDMDL
MODEL 5
REMARK VINA RESULT:      -8.9      1.329      1.804
REMARK  Name = 
REMARK  5 active torsions:
REMARK  status: ('A' for Active; 'I' for Inactive)
REMARK    1  A    between atoms: C_1  and  C_2
REMARK    2  A    between atoms: C_5  and  C_6
REMARK    3  A    between atoms: C_11  and  C_12
REMARK    4  A    between atoms: C_12  and  N_13
REMARK    5  A    between atoms: C_14  and  C_16
REMARK                            x       y       z     vdW  Elec       q    Type
REMARK                         _______ _______ _______ _____ _____    ______ ____
ROOT
ATOM      1  N   UNL     1       1.943   7.075  19.867  0.00  0.00    +0.000 N 
ATOM      2  C   UNL     1       2.114   8.100  18.966  0.00  0.00    +0.000 C 
ATOM      3  O   UNL     1       2.956   8.110  18.079  0.00  0.00    +0.000 OA
ATOM      4  H   UNL     1       1.136   7.126  20.483  0.00  0.00    +0.000 HD
ENDROOT
BRANCH   2   5
ATOM      5  C   UNL     1       1.117   9.247  19.109  0.00  0.00    +0.000 A 
ATOM      6  N   UNL     1       0.825   9.895  18.016  0.00  0.00    +0.000 NA
ATOM      7  N   UNL     1      -0.021  10.959  18.110  0.00  0.00    +0.000 N 
ATOM      8  C   UNL     1      -0.567  11.458  19.270  0.00  0.00    +0.000 A 
ATOM      9  O   UNL     1      -1.280  12.454  19.282  0.00  0.00    +0.000 OA
ATOM     10  C   UNL     1      -0.261  10.715  20.504  0.00  0.00    +0.000 A 
ATOM     11  C   UNL     1      -0.797  11.134  21.728  0.00  0.00    +0.000 A 
ATOM     12  C   UNL     1      -0.532  10.408  22.889  0.00  0.00    +0.000 A 
ATOM     13  C   UNL     1       0.253   9.261  22.824  0.00  0.00    +0.000 A 
ATOM     14  C   UNL     1       0.787   8.844  21.600  0.00  0.00    +0.000 A 
ATOM     15  C   UNL     1       0.550   9.586  20.436  0.00  0.00    +0.000 A 
ATOM     16  H   UNL     1      -0.220  11.466  17.252  0.00  0.00    +0.000 HD
ENDBRANCH   2   5
BRANCH   1  17
ATOM     17  C   UNL     1       2.815   5.918  19.875  0.00  0.00    +0.000 C 
BRANCH  17  23
ATOM     18  C   UNL     1       3.159   3.518  19.046  0.00  0.00    +0.000 C 
ATOM     19  O   UNL     1       3.789   3.069  20.258  0.00  0.00    +0.000 OA
ATOM     20  C   UNL     1       2.877   2.469  21.172  0.00  0.00    +0.000 C 
ATOM     21  C   UNL     1       1.837   3.479  21.632  0.00  0.00    +0.000 C 
ATOM     22  C   UNL     1       1.126   4.084  20.427  0.00  0.00    +0.000 C 
ATOM     23  C   UNL     1       2.126   4.622  19.386  0.00  0.00    +0.000 C 
BRANCH  18  28
ATOM     24  C   UNL     1       7.323   4.884  15.169  0.00  0.00    +0.000 C 
ATOM     25  C   UNL     1       6.241   4.602  16.166  0.00  0.00    +0.000 A 
ATOM     26  C   UNL     1       4.937   4.334  15.744  0.00  0.00    +0.000 A 
ATOM     27  C   UNL     1       3.941   4.026  16.672  0.00  0.00    +0.000 A 
ATOM     28  C   UNL     1       4.222   3.959  18.045  0.00  0.00    +0.000 A 
ATOM     29  C   UNL     1       5.521   4.288  18.468  0.00  0.00    +0.000 A 
ATOM     30  C   UNL     1       6.519   4.603  17.537  0.00  0.00    +0.000 A 
ENDBRANCH  18  28
ENDBRANCH  17  23
ENDBRANCH   1  17
TORSDOF 4
ENDMDL
MODEL 6
REMARK VINA RESULT:      -8.9      2.052      2.762
REMARK  Name = 
REMARK  5 active torsions:
REMARK  status: ('A' for Active; 'I' for Inactive)
REMARK    1  A    between atoms: C_1  and  C_2
REMARK    2  A    between atoms: C_5  and  C_6
REMARK    3  A    between atoms: C_11  and  C_12
REMARK    4  A    between atoms: C_12  and  N_13
REMARK    5  A    between atoms: C_14  and  C_16
REMARK                            x       y       z     vdW  Elec       q    Type
REMARK                         _______ _______ _______ _____ _____    ______ ____
ROOT
ATOM      1  N   UNL     1       2.207   6.896  20.459  0.00  0.00    +0.000 N 
ATOM      2  C   UNL     1       1.856   8.103  19.902  0.00  0.00    +0.000 C 
ATOM      3  O   UNL     1       2.123   8.443  18.759  0.00  0.00    +0.000 OA
ATOM      4  H   UNL     1       1.828   6.678  21.377  0.00  0.00    +0.000 HD
ENDROOT
BRANCH   2   5
ATOM      5  C   UNL     1       1.033   9.010  20.816  0.00  0.00    +0.000 A 
ATOM      6  N   UNL     1       1.173   8.813  22.098  0.00  0.00    +0.000 NA
ATOM      7  N   UNL     1       0.418   9.566  22.945  0.00  0.00    +0.000 N 
ATOM      8  C   UNL     1      -0.531  10.492  22.578  0.00  0.00    +0.000 A 
ATOM      9  O   UNL     1      -1.211  11.095  23.400  0.00  0.00    +0.000 OA
ATOM     10  C   UNL     1      -0.676  10.736  21.133  0.00  0.00    +0.000 A 
ATOM     11  C   UNL     1      -1.597  11.683  20.668  0.00  0.00    +0.000 A 
ATOM     12  C   UNL     1      -1.706  11.934  19.301  0.00  0.00    +0.000 A 
ATOM     13  C   UNL     1      -0.888  11.254  18.404  0.00  0.00    +0.000 A 
ATOM     14  C   UNL     1       0.032  10.309  18.871  0.00  0.00    +0.000 A 
ATOM     15  C   UNL     1       0.125  10.029  20.239  0.00  0.00    +0.000 A 
ATOM     16  H   UNL     1       0.522   9.385  23.940  0.00  0.00    +0.000 HD
ENDBRANCH   2   5
BRANCH   1  17
ATOM     17  C   UNL     1       3.000   5.927  19.731  0.00  0.00    +0.000 C 
BRANCH  17  23
ATOM     18  C   UNL     1       3.132   3.480  18.981  0.00  0.00    +0.000 C 
ATOM     19  O   UNL     1       3.734   3.019  20.204  0.00  0.00    +0.000 OA
ATOM     20  C   UNL     1       2.782   2.530  21.144  0.00  0.00    +0.000 C 
ATOM     21  C   UNL     1       1.836   3.639  21.576  0.00  0.00    +0.000 C 
ATOM     22  C   UNL     1       1.167   4.261  20.357  0.00  0.00    +0.000 C 
ATOM     23  C   UNL     1       2.198   4.678  19.291  0.00  0.00    +0.000 C 
BRANCH  18  28
ATOM     24  C   UNL     1       7.221   5.020  15.090  0.00  0.00    +0.000 C 
ATOM     25  C   UNL     1       6.193   4.559  16.079  0.00  0.00    +0.000 A 
ATOM     26  C   UNL     1       6.503   4.471  17.437  0.00  0.00    +0.000 A 
ATOM     27  C   UNL     1       5.530   4.086  18.362  0.00  0.00    +0.000 A 
ATOM     28  C   UNL     1       4.218   3.796  17.959  0.00  0.00    +0.000 A 
ATOM     29  C   UNL     1       3.929   3.830  16.584  0.00  0.00    +0.000 A 
ATOM     30  C   UNL     1       4.906   4.210  15.656  0.00  0.00    +0.000 A 
ENDBRANCH  18  28
ENDBRANCH  17  23
ENDBRANCH   1  17
TORSDOF 4
ENDMDL
MODEL 7
REMARK VINA RESULT:      -8.7      1.597      1.876
REMARK  Name = 
REMARK  5 active torsions:
REMARK  status: ('A' for Active; 'I' for Inactive)
REMARK    1  A    between atoms: C_1  and  C_2
REMARK    2  A    between atoms: C_5  and  C_6
REMARK    3  A    between atoms: C_11  and  C_12
REMARK    4  A    between atoms: C_12  and  N_13
REMARK    5  A    between atoms: C_14  and  C_16
REMARK                            x       y       z     vdW  Elec       q    Type
REMARK                         _______ _______ _______ _____ _____    ______ ____
ROOT
ATOM      1  N   UNL     1       2.262   7.250  19.367  0.00  0.00    +0.000 N 
ATOM      2  C   UNL     1       1.652   7.962  20.373  0.00  0.00    +0.000 C 
ATOM      3  O   UNL     1       1.708   7.672  21.559  0.00  0.00    +0.000 OA
ATOM      4  H   UNL     1       2.244   7.653  18.433  0.00  0.00    +0.000 HD
ENDROOT
BRANCH   2   5
ATOM      5  C   UNL     1       0.916   9.217  19.909  0.00  0.00    +0.000 A 
ATOM      6  N   UNL     1       1.071   9.543  18.655  0.00  0.00    +0.000 NA
ATOM      7  N   UNL     1       0.472  10.685  18.214  0.00  0.00    +0.000 N 
ATOM      8  C   UNL     1      -0.247  11.570  18.982  0.00  0.00    +0.000 A 
ATOM      9  O   UNL     1      -0.712  12.607  18.525  0.00  0.00    +0.000 OA
ATOM     10  C   UNL     1      -0.445  11.194  20.392  0.00  0.00    +0.000 A 
ATOM     11  C   UNL     1      -1.190  12.021  21.242  0.00  0.00    +0.000 A 
ATOM     12  C   UNL     1      -1.404  11.644  22.568  0.00  0.00    +0.000 A 
ATOM     13  C   UNL     1      -0.889  10.440  23.037  0.00  0.00    +0.000 A 
ATOM     14  C   UNL     1      -0.146   9.615  22.186  0.00  0.00    +0.000 A 
ATOM     15  C   UNL     1       0.099  10.002  20.863  0.00  0.00    +0.000 A 
ATOM     16  H   UNL     1       0.622  10.936  17.241  0.00  0.00    +0.000 HD
ENDBRANCH   2   5
BRANCH   1  17
ATOM     17  C   UNL     1       2.990   6.027  19.636  0.00  0.00    +0.000 C 
BRANCH  17  23
ATOM     18  C   UNL     1       3.201   3.567  18.951  0.00  0.00    +0.000 C 
ATOM     19  O   UNL     1       3.777   3.150  20.201  0.00  0.00    +0.000 OA
ATOM     20  C   UNL     1       2.811   2.660  21.125  0.00  0.00    +0.000 C 
ATOM     21  C   UNL     1       1.827   3.756  21.503  0.00  0.00    +0.000 C 
ATOM     22  C   UNL     1       1.179   4.333  20.250  0.00  0.00    +0.000 C 
ATOM     23  C   UNL     1       2.231   4.749  19.204  0.00  0.00    +0.000 C 
BRANCH  18  28
ATOM     24  C   UNL     1       7.362   5.112  15.140  0.00  0.00    +0.000 C 
ATOM     25  C   UNL     1       6.318   4.650  16.110  0.00  0.00    +0.000 A 
ATOM     26  C   UNL     1       6.589   4.608  17.479  0.00  0.00    +0.000 A 
ATOM     27  C   UNL     1       5.599   4.222  18.385  0.00  0.00    +0.000 A 
ATOM     28  C   UNL     1       4.308   3.884  17.952  0.00  0.00    +0.000 A 
ATOM     29  C   UNL     1       4.060   3.872  16.569  0.00  0.00    +0.000 A 
ATOM     30  C   UNL     1       5.054   4.253  15.660  0.00  0.00    +0.000 A 
ENDBRANCH  18  28
ENDBRANCH  17  23
ENDBRANCH   1  17
TORSDOF 4
ENDMDL
MODEL 8
REMARK VINA RESULT:      -8.7      1.410      1.685
REMARK  Name = 
REMARK  5 active torsions:
REMARK  status: ('A' for Active; 'I' for Inactive)
REMARK    1  A    between atoms: C_1  and  C_2
REMARK    2  A    between atoms: C_5  and  C_6
REMARK    3  A    between atoms: C_11  and  C_12
REMARK    4  A    between atoms: C_12  and  N_13
REMARK    5  A    between atoms: C_14  and  C_16
REMARK                            x       y       z     vdW  Elec       q    Type
REMARK                         _______ _______ _______ _____ _____    ______ ____
ROOT
ATOM      1  N   UNL     1       1.569   7.385  19.922  0.00  0.00    +0.000 N 
ATOM      2  C   UNL     1       1.410   8.448  20.780  0.00  0.00    +0.000 C 
ATOM      3  O   UNL     1       1.852   8.491  21.918  0.00  0.00    +0.000 OA
ATOM      4  H   UNL     1       1.260   7.510  18.962  0.00  0.00    +0.000 HD
ENDROOT
BRANCH   2   5
ATOM      5  C   UNL     1       0.664   9.640  20.185  0.00  0.00    +0.000 A 
ATOM      6  N   UNL     1       0.875   9.876  18.919  0.00  0.00    +0.000 NA
ATOM      7  N   UNL     1       0.269  10.962  18.362  0.00  0.00    +0.000 N 
ATOM      8  C   UNL     1      -0.515  11.878  19.023  0.00  0.00    +0.000 A 
ATOM      9  O   UNL     1      -0.985  12.863  18.465  0.00  0.00    +0.000 OA
ATOM     10  C   UNL     1      -0.777  11.603  20.446  0.00  0.00    +0.000 A 
ATOM     11  C   UNL     1      -1.590  12.466  21.192  0.00  0.00    +0.000 A 
ATOM     12  C   UNL     1      -1.863  12.182  22.530  0.00  0.00    +0.000 A 
ATOM     13  C   UNL     1      -1.339  11.034  23.115  0.00  0.00    +0.000 A 
ATOM     14  C   UNL     1      -0.529  10.172  22.368  0.00  0.00    +0.000 A 
ATOM     15  C   UNL     1      -0.225  10.467  21.033  0.00  0.00    +0.000 A 
ATOM     16  H   UNL     1       0.462  11.144  17.382  0.00  0.00    +0.000 HD
ENDBRANCH   2   5
BRANCH   1  17
ATOM     17  C   UNL     1       2.242   6.170  20.335  0.00  0.00    +0.000 C 
BRANCH  17  23
ATOM     18  C   UNL     1       3.277   4.158  19.133  0.00  0.00    +0.000 C 
ATOM     19  O   UNL     1       3.671   3.492  20.345  0.00  0.00    +0.000 OA
ATOM     20  C   UNL     1       2.711   2.544  20.799  0.00  0.00    +0.000 C 
ATOM     21  C   UNL     1       1.401   3.233  21.148  0.00  0.00    +0.000 C 
ATOM     22  C   UNL     1       0.896   4.033  19.954  0.00  0.00    +0.000 C 
ATOM     23  C   UNL     1       1.983   4.969  19.394  0.00  0.00    +0.000 C 
BRANCH  18  28
ATOM     24  C   UNL     1       7.624   7.634  17.330  0.00  0.00    +0.000 C 
ATOM     25  C   UNL     1       6.534   6.695  17.747  0.00  0.00    +0.000 A 
ATOM     26  C   UNL     1       6.728   5.806  18.805  0.00  0.00    +0.000 A 
ATOM     27  C   UNL     1       5.695   4.965  19.222  0.00  0.00    +0.000 A 
ATOM     28  C   UNL     1       4.435   5.000  18.607  0.00  0.00    +0.000 A 
ATOM     29  C   UNL     1       4.264   5.856  17.505  0.00  0.00    +0.000 A 
ATOM     30  C   UNL     1       5.302   6.694  17.083  0.00  0.00    +0.000 A 
ENDBRANCH  18  28
ENDBRANCH  17  23
ENDBRANCH   1  17
TORSDOF 4
ENDMDL
MODEL 9
REMARK VINA RESULT:      -8.5      1.633      2.090
REMARK  Name = 
REMARK  5 active torsions:
REMARK  status: ('A' for Active; 'I' for Inactive)
REMARK    1  A    between atoms: C_1  and  C_2
REMARK    2  A    between atoms: C_5  and  C_6
REMARK    3  A    between atoms: C_11  and  C_12
REMARK    4  A    between atoms: C_12  and  N_13
REMARK    5  A    between atoms: C_14  and  C_16
REMARK                            x       y       z     vdW  Elec       q    Type
REMARK                         _______ _______ _______ _____ _____    ______ ____
ROOT
ATOM      1  N   UNL     1       2.015   7.409  20.246  0.00  0.00    +0.000 N 
ATOM      2  C   UNL     1       0.943   8.145  20.692  0.00  0.00    +0.000 C 
ATOM      3  O   UNL     1       0.133   7.758  21.522  0.00  0.00    +0.000 OA
ATOM      4  H   UNL     1       2.686   7.880  19.644  0.00  0.00    +0.000 HD
ENDROOT
BRANCH   2   5
ATOM      5  C   UNL     1       0.848   9.552  20.105  0.00  0.00    +0.000 A 
ATOM      6  N   UNL     1       1.352   9.712  18.913  0.00  0.00    +0.000 NA
ATOM      7  N   UNL     1       1.333  10.964  18.375  0.00  0.00    +0.000 N 
ATOM      8  C   UNL     1       0.878  12.104  18.994  0.00  0.00    +0.000 A 
ATOM      9  O   UNL     1       0.943  13.208  18.465  0.00  0.00    +0.000 OA
ATOM     10  C   UNL     1       0.285  11.925  20.330  0.00  0.00    +0.000 A 
ATOM     11  C   UNL     1      -0.232  13.026  21.024  0.00  0.00    +0.000 A 
ATOM     12  C   UNL     1      -0.822  12.847  22.274  0.00  0.00    +0.000 A 
ATOM     13  C   UNL     1      -0.908  11.571  22.822  0.00  0.00    +0.000 A 
ATOM     14  C   UNL     1      -0.392  10.472  22.128  0.00  0.00    +0.000 A 
ATOM     15  C   UNL     1       0.230  10.649  20.885  0.00  0.00    +0.000 A 
ATOM     16  H   UNL     1       1.750  11.075  17.455  0.00  0.00    +0.000 HD
ENDBRANCH   2   5
BRANCH   1  17
ATOM     17  C   UNL     1       2.242   6.050  20.694  0.00  0.00    +0.000 C 
BRANCH  17  23
ATOM     18  C   UNL     1       3.177   4.199  19.190  0.00  0.00    +0.000 C 
ATOM     19  O   UNL     1       3.623   3.378  20.284  0.00  0.00    +0.000 OA
ATOM     20  C   UNL     1       2.671   2.390  20.664  0.00  0.00    +0.000 C 
ATOM     21  C   UNL     1       1.394   3.042  21.170  0.00  0.00    +0.000 C 
ATOM     22  C   UNL     1       0.840   3.995  20.117  0.00  0.00    +0.000 C 
ATOM     23  C   UNL     1       1.912   4.984  19.622  0.00  0.00    +0.000 C 
BRANCH  18  28
ATOM     24  C   UNL     1       7.642   7.374  17.136  0.00  0.00    +0.000 C 
ATOM     25  C   UNL     1       6.484   6.612  17.706  0.00  0.00    +0.000 A 
ATOM     26  C   UNL     1       5.208   6.740  17.154  0.00  0.00    +0.000 A 
ATOM     27  C   UNL     1       4.140   5.995  17.657  0.00  0.00    +0.000 A 
ATOM     28  C   UNL     1       4.320   5.089  18.713  0.00  0.00    +0.000 A 
ATOM     29  C   UNL     1       5.593   5.009  19.303  0.00  0.00    +0.000 A 
ATOM     30  C   UNL     1       6.662   5.761  18.802  0.00  0.00    +0.000 A 
ENDBRANCH  18  28
ENDBRANCH  17  23
ENDBRANCH   1  17
TORSDOF 4
ENDMDL
