MODEL 1
REMARK VINA RESULT:      -8.4      0.000      0.000
REMARK  Name = 
REMARK  7 active torsions:
REMARK  status: ('A' for Active; 'I' for Inactive)
REMARK    1  A    between atoms: C_1  and  C_2
REMARK    2  A    between atoms: C_2  and  N_3
REMARK    3  A    between atoms: C_2  and  C_17
REMARK    4  A    between atoms: C_4  and  C_6
REMARK    5  A    between atoms: C_21  and  O_22
REMARK    6  A    between atoms: O_22  and  C_23
REMARK    7  A    between atoms: C_23  and  C_24
REMARK                            x       y       z     vdW  Elec       q    Type
REMARK                         _______ _______ _______ _____ _____    ______ ____
ROOT
ATOM      1  C   UNL     1      -0.365   9.134  22.490  0.00  0.00    +0.000 C 
ATOM      2  C   UNL     1       0.005  10.164  21.424  0.00  0.00    +0.000 C 
ENDROOT
BRANCH   2   3
ATOM      3  C   UNL     1       0.833   9.560  20.293  0.00  0.00    +0.000 A 
ATOM      4  C   UNL     1       0.934  10.165  19.029  0.00  0.00    +0.000 A 
ATOM      5  C   UNL     1       1.598   9.525  17.980  0.00  0.00    +0.000 A 
ATOM      6  C   UNL     1       2.212   8.291  18.190  0.00  0.00    +0.000 A 
ATOM      7  C   UNL     1       2.205   7.715  19.458  0.00  0.00    +0.000 A 
ATOM      8  C   UNL     1       1.504   8.341  20.499  0.00  0.00    +0.000 A 
BRANCH   7   9
ATOM      9  O   UNL     1       2.893   6.535  19.568  0.00  0.00    +0.000 OA
BRANCH   9  10
ATOM     10  C   UNL     1       3.042   5.814  18.342  0.00  0.00    +0.000 C 
BRANCH  10  11
ATOM     11  C   UNL     1       2.522   4.402  18.473  0.00  0.00    +0.000 A 
ATOM     12  C   UNL     1       1.449   4.144  19.342  0.00  0.00    +0.000 A 
ATOM     13  C   UNL     1       0.904   2.865  19.440  0.00  0.00    +0.000 A 
ATOM     14  C   UNL     1       1.422   1.830  18.664  0.00  0.00    +0.000 A 
ATOM     15  C   UNL     1       2.482   2.074  17.791  0.00  0.00    +0.000 A 
ATOM     16  C   UNL     1       3.030   3.355  17.690  0.00  0.00    +0.000 A 
ENDBRANCH  10  11
ENDBRANCH   9  10
ENDBRANCH   7   9
ENDBRANCH   2   3
BRANCH   2  17
ATOM     17  N   UNL     1      -1.183  10.812  20.888  0.00  0.00    +0.000 N 
ATOM     18  C   UNL     1      -1.387  12.173  20.938  0.00  0.00    +0.000 C 
ATOM     19  O   UNL     1      -0.585  12.917  21.506  0.00  0.00    +0.000 OA
ATOM     20  H   UNL     1      -1.975  10.204  20.735  0.00  0.00    +0.000 HD
BRANCH  18  21
ATOM     21  C   UNL     1      -2.621  12.761  20.216  0.00  0.00    +0.000 C 
ATOM     22  C   UNL     1      -3.762  12.759  21.251  0.00  0.00    +0.000 C 
ATOM     23  N   UNL     1      -5.068  13.013  20.674  0.00  0.00    +0.000 N 
ATOM     24  C   UNL     1      -5.478  12.332  19.561  0.00  0.00    +0.000 C 
ATOM     25  O   UNL     1      -6.667  12.219  19.295  0.00  0.00    +0.000 OA
ATOM     26  C   UNL     1      -4.407  11.794  18.678  0.00  0.00    +0.000 A 
ATOM     27  C   UNL     1      -4.783  11.053  17.550  0.00  0.00    +0.000 A 
ATOM     28  C   UNL     1      -3.819  10.653  16.625  0.00  0.00    +0.000 A 
ATOM     29  C   UNL     1      -2.502  11.071  16.777  0.00  0.00    +0.000 A 
ATOM     30  C   UNL     1      -2.134  11.834  17.884  0.00  0.00    +0.000 A 
ATOM     31  C   UNL     1      -3.055  12.101  18.913  0.00  0.00    +0.000 A 
ATOM     32  H   UNL     1      -5.825  13.309  21.279  0.00  0.00    +0.000 HD
ENDBRANCH  18  21
ENDBRANCH   2  17
TORSDOF 6
ENDMDL
MODEL 2
REMARK VINA RESULT:      -8.3      2.937      9.468
REMARK  Name = 
REMARK  7 active torsions:
REMARK  status: ('A' for Active; 'I' for Inactive)
REMARK    1  A    between atoms: C_1  and  C_2
REMARK    2  A    between atoms: C_2  and  N_3
REMARK    3  A    between atoms: C_2  and  C_17
REMARK    4  A    between atoms: C_4  and  C_6
REMARK    5  A    between atoms: C_21  and  O_22
REMARK    6  A    between atoms: O_22  and  C_23
REMARK    7  A    between atoms: C_23  and  C_24
REMARK                            x       y       z     vdW  Elec       q    Type
REMARK                         _______ _______ _______ _____ _____    ______ ____
ROOT
ATOM      1  C   UNL     1      -0.043   9.575  18.139  0.00  0.00    +0.000 C 
ATOM      2  C   UNL     1       1.046   9.620  19.210  0.00  0.00    +0.000 C 
ENDROOT
BRANCH   2   3
ATOM      3  C   UNL     1       0.475   9.818  20.612  0.00  0.00    +0.000 A 
ATOM      4  C   UNL     1       0.421   8.779  21.556  0.00  0.00    +0.000 A 
ATOM      5  C   UNL     1      -0.218   8.960  22.784  0.00  0.00    +0.000 A 
ATOM      6  C   UNL     1      -0.771  10.197  23.109  0.00  0.00    +0.000 A 
ATOM      7  C   UNL     1      -0.648  11.269  22.229  0.00  0.00    +0.000 A 
ATOM      8  C   UNL     1      -0.041  11.073  20.980  0.00  0.00    +0.000 A 
BRANCH   7   9
ATOM      9  O   UNL     1      -1.170  12.455  22.675  0.00  0.00    +0.000 OA
BRANCH   9  10
ATOM     10  C   UNL     1      -2.269  12.952  21.907  0.00  0.00    +0.000 C 
BRANCH  10  11
ATOM     11  C   UNL     1      -3.572  12.804  22.657  0.00  0.00    +0.000 A 
ATOM     12  C   UNL     1      -3.543  12.471  24.021  0.00  0.00    +0.000 A 
ATOM     13  C   UNL     1      -4.724  12.387  24.758  0.00  0.00    +0.000 A 
ATOM     14  C   UNL     1      -5.946  12.641  24.140  0.00  0.00    +0.000 A 
ATOM     15  C   UNL     1      -5.987  12.981  22.788  0.00  0.00    +0.000 A 
ATOM     16  C   UNL     1      -4.806  13.067  22.047  0.00  0.00    +0.000 A 
ENDBRANCH  10  11
ENDBRANCH   9  10
ENDBRANCH   7   9
ENDBRANCH   2   3
BRANCH   2  17
ATOM     17  N   UNL     1       1.870   8.422  19.168  0.00  0.00    +0.000 N 
ATOM     18  C   UNL     1       2.637   8.073  18.078  0.00  0.00    +0.000 C 
ATOM     19  O   UNL     1       2.613   8.740  17.042  0.00  0.00    +0.000 OA
ATOM     20  H   UNL     1       1.641   7.713  19.850  0.00  0.00    +0.000 HD
BRANCH  18  21
ATOM     21  C   UNL     1       3.577   6.852  18.197  0.00  0.00    +0.000 C 
ATOM     22  C   UNL     1       4.560   6.952  17.015  0.00  0.00    +0.000 C 
ATOM     23  N   UNL     1       5.335   5.745  16.801  0.00  0.00    +0.000 N 
ATOM     24  C   UNL     1       4.719   4.524  16.762  0.00  0.00    +0.000 C 
ATOM     25  O   UNL     1       5.246   3.572  16.204  0.00  0.00    +0.000 OA
ATOM     26  C   UNL     1       3.418   4.412  17.478  0.00  0.00    +0.000 A 
ATOM     27  C   UNL     1       2.733   3.191  17.426  0.00  0.00    +0.000 A 
ATOM     28  C   UNL     1       1.585   3.004  18.196  0.00  0.00    +0.000 A 
ATOM     29  C   UNL     1       1.177   3.995  19.080  0.00  0.00    +0.000 A 
ATOM     30  C   UNL     1       1.877   5.198  19.152  0.00  0.00    +0.000 A 
ATOM     31  C   UNL     1       2.932   5.472  18.263  0.00  0.00    +0.000 A 
ATOM     32  H   UNL     1       6.185   5.796  16.253  0.00  0.00    +0.000 HD
ENDBRANCH  18  21
ENDBRANCH   2  17
TORSDOF 6
ENDMDL
MODEL 3
REMARK VINA RESULT:      -8.2      0.879      1.258
REMARK  Name = 
REMARK  7 active torsions:
REMARK  status: ('A' for Active; 'I' for Inactive)
REMARK    1  A    between atoms: C_1  and  C_2
REMARK    2  A    between atoms: C_2  and  N_3
REMARK    3  A    between atoms: C_2  and  C_17
REMARK    4  A    between atoms: C_4  and  C_6
REMARK    5  A    between atoms: C_21  and  O_22
REMARK    6  A    between atoms: O_22  and  C_23
REMARK    7  A    between atoms: C_23  and  C_24
REMARK                            x       y       z     vdW  Elec       q    Type
REMARK                         _______ _______ _______ _____ _____    ______ ____
ROOT
ATOM      1  C   UNL     1      -0.202   8.183  21.954  0.00  0.00    +0.000 C 
ATOM      2  C   UNL     1       0.302   9.470  21.302  0.00  0.00    +0.000 C 
ENDROOT
BRANCH   2   3
ATOM      3  C   UNL     1       1.102   9.203  20.030  0.00  0.00    +0.000 A 
ATOM      4  C   UNL     1       1.082  10.078  18.931  0.00  0.00    +0.000 A 
ATOM      5  C   UNL     1       1.726   9.744  17.738  0.00  0.00    +0.000 A 
ATOM      6  C   UNL     1       2.441   8.551  17.639  0.00  0.00    +0.000 A 
ATOM      7  C   UNL     1       2.554   7.712  18.744  0.00  0.00    +0.000 A 
ATOM      8  C   UNL     1       1.873   8.031  19.928  0.00  0.00    +0.000 A 
BRANCH   7   9
ATOM      9  O   UNL     1       3.332   6.600  18.557  0.00  0.00    +0.000 OA
BRANCH   9  10
ATOM     10  C   UNL     1       3.346   5.686  19.656  0.00  0.00    +0.000 C 
BRANCH  10  11
ATOM     11  C   UNL     1       2.455   4.496  19.389  0.00  0.00    +0.000 A 
ATOM     12  C   UNL     1       2.734   3.663  18.293  0.00  0.00    +0.000 A 
ATOM     13  C   UNL     1       1.970   2.522  18.054  0.00  0.00    +0.000 A 
ATOM     14  C   UNL     1       0.921   2.198  18.911  0.00  0.00    +0.000 A 
ATOM     15  C   UNL     1       0.638   3.013  20.007  0.00  0.00    +0.000 A 
ATOM     16  C   UNL     1       1.402   4.156  20.251  0.00  0.00    +0.000 A 
ENDBRANCH  10  11
ENDBRANCH   9  10
ENDBRANCH   7   9
ENDBRANCH   2   3
BRANCH   2  17
ATOM     17  N   UNL     1      -0.798  10.380  21.022  0.00  0.00    +0.000 N 
ATOM     18  C   UNL     1      -0.756  11.726  21.314  0.00  0.00    +0.000 C 
ATOM     19  O   UNL     1       0.212  12.222  21.893  0.00  0.00    +0.000 OA
ATOM     20  H   UNL     1      -1.695   9.942  20.871  0.00  0.00    +0.000 HD
BRANCH  18  21
ATOM     21  C   UNL     1      -1.928  12.619  20.849  0.00  0.00    +0.000 C 
ATOM     22  C   UNL     1      -2.927  12.658  22.021  0.00  0.00    +0.000 C 
ATOM     23  N   UNL     1      -4.217  13.216  21.665  0.00  0.00    +0.000 N 
ATOM     24  C   UNL     1      -4.870  12.791  20.541  0.00  0.00    +0.000 C 
ATOM     25  O   UNL     1      -6.081  12.925  20.428  0.00  0.00    +0.000 OA
ATOM     26  C   UNL     1      -4.025  12.216  19.458  0.00  0.00    +0.000 A 
ATOM     27  C   UNL     1      -4.658  11.728  18.307  0.00  0.00    +0.000 A 
ATOM     28  C   UNL     1      -3.896  11.312  17.216  0.00  0.00    +0.000 A 
ATOM     29  C   UNL     1      -2.515  11.470  17.238  0.00  0.00    +0.000 A 
ATOM     30  C   UNL     1      -1.889  11.983  18.373  0.00  0.00    +0.000 A 
ATOM     31  C   UNL     1      -2.622  12.247  19.544  0.00  0.00    +0.000 A 
ATOM     32  H   UNL     1      -4.832  13.543  22.401  0.00  0.00    +0.000 HD
ENDBRANCH  18  21
ENDBRANCH   2  17
TORSDOF 6
ENDMDL
MODEL 4
REMARK VINA RESULT:      -8.2      2.830      9.463
REMARK  Name = 
REMARK  7 active torsions:
REMARK  status: ('A' for Active; 'I' for Inactive)
REMARK    1  A    between atoms: C_1  and  C_2
REMARK    2  A    between atoms: C_2  and  N_3
REMARK    3  A    between atoms: C_2  and  C_17
REMARK    4  A    between atoms: C_4  and  C_6
REMARK    5  A    between atoms: C_21  and  O_22
REMARK    6  A    between atoms: O_22  and  C_23
REMARK    7  A    between atoms: C_23  and  C_24
REMARK                            x       y       z     vdW  Elec       q    Type
REMARK                         _______ _______ _______ _____ _____    ______ ____
ROOT
ATOM      1  C   UNL     1      -0.177   9.762  18.199  0.00  0.00    +0.000 C 
ATOM      2  C   UNL     1       0.885   9.802  19.297  0.00  0.00    +0.000 C 
ENDROOT
BRANCH   2   3
ATOM      3  C   UNL     1       0.291  10.102  20.670  0.00  0.00    +0.000 A 
ATOM      4  C   UNL     1       0.458   9.240  21.767  0.00  0.00    +0.000 A 
ATOM      5  C   UNL     1      -0.201   9.482  22.975  0.00  0.00    +0.000 A 
ATOM      6  C   UNL     1      -0.998  10.616  23.122  0.00  0.00    +0.000 A 
ATOM      7  C   UNL     1      -1.105  11.534  22.080  0.00  0.00    +0.000 A 
ATOM      8  C   UNL     1      -0.475  11.268  20.856  0.00  0.00    +0.000 A 
BRANCH   7   9
ATOM      9  O   UNL     1      -1.861  12.643  22.353  0.00  0.00    +0.000 OA
BRANCH   9  10
ATOM     10  C   UNL     1      -2.598  12.578  23.577  0.00  0.00    +0.000 C 
BRANCH  10  11
ATOM     11  C   UNL     1      -4.082  12.708  23.329  0.00  0.00    +0.000 A 
ATOM     12  C   UNL     1      -4.547  12.850  22.011  0.00  0.00    +0.000 A 
ATOM     13  C   UNL     1      -5.913  12.910  21.741  0.00  0.00    +0.000 A 
ATOM     14  C   UNL     1      -6.831  12.822  22.786  0.00  0.00    +0.000 A 
ATOM     15  C   UNL     1      -6.382  12.673  24.098  0.00  0.00    +0.000 A 
ATOM     16  C   UNL     1      -5.014  12.611  24.372  0.00  0.00    +0.000 A 
ENDBRANCH  10  11
ENDBRANCH   9  10
ENDBRANCH   7   9
ENDBRANCH   2   3
BRANCH   2  17
ATOM     17  N   UNL     1       1.642   8.561  19.337  0.00  0.00    +0.000 N 
ATOM     18  C   UNL     1       2.454   8.138  18.307  0.00  0.00    +0.000 C 
ATOM     19  O   UNL     1       2.530   8.775  17.255  0.00  0.00    +0.000 OA
ATOM     20  H   UNL     1       1.332   7.886  20.022  0.00  0.00    +0.000 HD
BRANCH  18  21
ATOM     21  C   UNL     1       3.314   6.872  18.517  0.00  0.00    +0.000 C 
ATOM     22  C   UNL     1       4.033   6.618  17.179  0.00  0.00    +0.000 C 
ATOM     23  N   UNL     1       4.665   5.315  17.098  0.00  0.00    +0.000 N 
ATOM     24  C   UNL     1       3.975   4.188  17.451  0.00  0.00    +0.000 C 
ATOM     25  O   UNL     1       4.309   3.088  17.031  0.00  0.00    +0.000 OA
ATOM     26  C   UNL     1       2.847   4.369  18.406  0.00  0.00    +0.000 A 
ATOM     27  C   UNL     1       2.087   3.247  18.761  0.00  0.00    +0.000 A 
ATOM     28  C   UNL     1       1.116   3.350  19.756  0.00  0.00    +0.000 A 
ATOM     29  C   UNL     1       0.968   4.540  20.457  0.00  0.00    +0.000 A 
ATOM     30  C   UNL     1       1.746   5.648  20.123  0.00  0.00    +0.000 A 
ATOM     31  C   UNL     1       2.608   5.615  19.012  0.00  0.00    +0.000 A 
ATOM     32  H   UNL     1       5.383   5.157  16.401  0.00  0.00    +0.000 HD
ENDBRANCH  18  21
ENDBRANCH   2  17
TORSDOF 6
ENDMDL
MODEL 5
REMARK VINA RESULT:      -8.1      2.617      9.103
REMARK  Name = 
REMARK  7 active torsions:
REMARK  status: ('A' for Active; 'I' for Inactive)
REMARK    1  A    between atoms: C_1  and  C_2
REMARK    2  A    between atoms: C_2  and  N_3
REMARK    3  A    between atoms: C_2  and  C_17
REMARK    4  A    between atoms: C_4  and  C_6
REMARK    5  A    between atoms: C_21  and  O_22
REMARK    6  A    between atoms: O_22  and  C_23
REMARK    7  A    between atoms: C_23  and  C_24
REMARK                            x       y       z     vdW  Elec       q    Type
REMARK                         _______ _______ _______ _____ _____    ______ ____
ROOT
ATOM      1  C   UNL     1       1.320   8.810  17.456  0.00  0.00    +0.000 C 
ATOM      2  C   UNL     1       2.074   8.638  18.774  0.00  0.00    +0.000 C 
ENDROOT
BRANCH   2   3
ATOM      3  C   UNL     1       1.247   9.077  19.979  0.00  0.00    +0.000 A 
ATOM      4  C   UNL     1       1.292   8.400  21.209  0.00  0.00    +0.000 A 
ATOM      5  C   UNL     1       0.432   8.751  22.252  0.00  0.00    +0.000 A 
ATOM      6  C   UNL     1      -0.454   9.817  22.099  0.00  0.00    +0.000 A 
ATOM      7  C   UNL     1      -0.452  10.563  20.923  0.00  0.00    +0.000 A 
ATOM      8  C   UNL     1       0.384  10.182  19.864  0.00  0.00    +0.000 A 
BRANCH   7   9
ATOM      9  O   UNL     1      -1.316  11.626  20.904  0.00  0.00    +0.000 OA
BRANCH   9  10
ATOM     10  C   UNL     1      -1.334  12.360  19.677  0.00  0.00    +0.000 C 
BRANCH  10  11
ATOM     11  C   UNL     1      -2.462  11.900  18.783  0.00  0.00    +0.000 A 
ATOM     12  C   UNL     1      -3.790  12.102  19.195  0.00  0.00    +0.000 A 
ATOM     13  C   UNL     1      -4.854  11.747  18.368  0.00  0.00    +0.000 A 
ATOM     14  C   UNL     1      -4.601  11.191  17.115  0.00  0.00    +0.000 A 
ATOM     15  C   UNL     1      -3.287  10.992  16.691  0.00  0.00    +0.000 A 
ATOM     16  C   UNL     1      -2.219  11.349  17.517  0.00  0.00    +0.000 A 
ENDBRANCH  10  11
ENDBRANCH   9  10
ENDBRANCH   7   9
ENDBRANCH   2   3
BRANCH   2  17
ATOM     17  N   UNL     1       2.522   7.265  18.945  0.00  0.00    +0.000 N 
ATOM     18  C   UNL     1       3.577   6.723  18.244  0.00  0.00    +0.000 C 
ATOM     19  O   UNL     1       4.165   7.371  17.376  0.00  0.00    +0.000 OA
ATOM     20  H   UNL     1       1.857   6.644  19.383  0.00  0.00    +0.000 HD
BRANCH  18  21
ATOM     21  C   UNL     1       4.049   5.297  18.606  0.00  0.00    +0.000 C 
ATOM     22  C   UNL     1       4.447   4.628  17.277  0.00  0.00    +0.000 C 
ATOM     23  N   UNL     1       4.647   3.196  17.384  0.00  0.00    +0.000 N 
ATOM     24  C   UNL     1       3.720   2.412  18.014  0.00  0.00    +0.000 C 
ATOM     25  O   UNL     1       3.647   1.213  17.781  0.00  0.00    +0.000 OA
ATOM     26  C   UNL     1       2.856   3.084  19.024  0.00  0.00    +0.000 A 
ATOM     27  C   UNL     1       1.863   2.327  19.660  0.00  0.00    +0.000 A 
ATOM     28  C   UNL     1       1.129   2.882  20.709  0.00  0.00    +0.000 A 
ATOM     29  C   UNL     1       1.448   4.150  21.180  0.00  0.00    +0.000 A 
ATOM     30  C   UNL     1       2.456   4.890  20.564  0.00  0.00    +0.000 A 
ATOM     31  C   UNL     1       3.089   4.418  19.400  0.00  0.00    +0.000 A 
ATOM     32  H   UNL     1       5.172   2.716  16.663  0.00  0.00    +0.000 HD
ENDBRANCH  18  21
ENDBRANCH   2  17
TORSDOF 6
ENDMDL
MODEL 6
REMARK VINA RESULT:      -8.1      3.220      9.590
REMARK  Name = 
REMARK  7 active torsions:
REMARK  status: ('A' for Active; 'I' for Inactive)
REMARK    1  A    between atoms: C_1  and  C_2
REMARK    2  A    between atoms: C_2  and  N_3
REMARK    3  A    between atoms: C_2  and  C_17
REMARK    4  A    between atoms: C_4  and  C_6
REMARK    5  A    between atoms: C_21  and  O_22
REMARK    6  A    between atoms: O_22  and  C_23
REMARK    7  A    between atoms: C_23  and  C_24
REMARK                            x       y       z     vdW  Elec       q    Type
REMARK                         _______ _______ _______ _____ _____    ______ ____
ROOT
ATOM      1  C   UNL     1       0.381   9.958  18.098  0.00  0.00    +0.000 C 
ATOM      2  C   UNL     1       1.331   9.525  19.213  0.00  0.00    +0.000 C 
ENDROOT
BRANCH   2   3
ATOM      3  C   UNL     1       0.687   9.615  20.594  0.00  0.00    +0.000 A 
ATOM      4  C   UNL     1       0.367   8.476  21.351  0.00  0.00    +0.000 A 
ATOM      5  C   UNL     1      -0.332   8.589  22.555  0.00  0.00    +0.000 A 
ATOM      6  C   UNL     1      -0.681   9.846  23.045  0.00  0.00    +0.000 A 
ATOM      7  C   UNL     1      -0.294  10.995  22.360  0.00  0.00    +0.000 A 
ATOM      8  C   UNL     1       0.373  10.877  21.132  0.00  0.00    +0.000 A 
BRANCH   7   9
ATOM      9  O   UNL     1      -0.633  12.178  22.963  0.00  0.00    +0.000 OA
BRANCH   9  10
ATOM     10  C   UNL     1      -1.481  13.025  22.184  0.00  0.00    +0.000 C 
BRANCH  10  11
ATOM     11  C   UNL     1      -2.924  12.895  22.611  0.00  0.00    +0.000 A 
ATOM     12  C   UNL     1      -3.223  12.713  23.971  0.00  0.00    +0.000 A 
ATOM     13  C   UNL     1      -4.546  12.651  24.407  0.00  0.00    +0.000 A 
ATOM     14  C   UNL     1      -5.585  12.778  23.487  0.00  0.00    +0.000 A 
ATOM     15  C   UNL     1      -5.301  12.967  22.135  0.00  0.00    +0.000 A 
ATOM     16  C   UNL     1      -3.977  13.031  21.695  0.00  0.00    +0.000 A 
ENDBRANCH  10  11
ENDBRANCH   9  10
ENDBRANCH   7   9
ENDBRANCH   2   3
BRANCH   2  17
ATOM     17  N   UNL     1       1.832   8.179  18.980  0.00  0.00    +0.000 N 
ATOM     18  C   UNL     1       2.610   7.843  17.894  0.00  0.00    +0.000 C 
ATOM     19  O   UNL     1       2.873   8.669  17.018  0.00  0.00    +0.000 OA
ATOM     20  H   UNL     1       1.356   7.446  19.485  0.00  0.00    +0.000 HD
BRANCH  18  21
ATOM     21  C   UNL     1       3.197   6.415  17.821  0.00  0.00    +0.000 C 
ATOM     22  C   UNL     1       2.489   5.605  18.923  0.00  0.00    +0.000 C 
ATOM     23  N   UNL     1       3.111   4.322  19.190  0.00  0.00    +0.000 N 
ATOM     24  C   UNL     1       4.463   4.233  19.374  0.00  0.00    +0.000 C 
ATOM     25  O   UNL     1       4.955   3.289  19.978  0.00  0.00    +0.000 OA
ATOM     26  C   UNL     1       5.292   5.306  18.758  0.00  0.00    +0.000 A 
ATOM     27  C   UNL     1       6.678   5.276  18.959  0.00  0.00    +0.000 A 
ATOM     28  C   UNL     1       7.499   6.179  18.285  0.00  0.00    +0.000 A 
ATOM     29  C   UNL     1       6.950   7.044  17.346  0.00  0.00    +0.000 A 
ATOM     30  C   UNL     1       5.574   7.052  17.125  0.00  0.00    +0.000 A 
ATOM     31  C   UNL     1       4.712   6.271  17.916  0.00  0.00    +0.000 A 
ATOM     32  H   UNL     1       2.581   3.608  19.675  0.00  0.00    +0.000 HD
ENDBRANCH  18  21
ENDBRANCH   2  17
TORSDOF 6
ENDMDL
MODEL 7
REMARK VINA RESULT:      -8.0      2.461      9.101
REMARK  Name = 
REMARK  7 active torsions:
REMARK  status: ('A' for Active; 'I' for Inactive)
REMARK    1  A    between atoms: C_1  and  C_2
REMARK    2  A    between atoms: C_2  and  N_3
REMARK    3  A    between atoms: C_2  and  C_17
REMARK    4  A    between atoms: C_4  and  C_6
REMARK    5  A    between atoms: C_21  and  O_22
REMARK    6  A    between atoms: O_22  and  C_23
REMARK    7  A    between atoms: C_23  and  C_24
REMARK                            x       y       z     vdW  Elec       q    Type
REMARK                         _______ _______ _______ _____ _____    ______ ____
ROOT
ATOM      1  C   UNL     1      -0.061   9.701  18.227  0.00  0.00    +0.000 C 
ATOM      2  C   UNL     1       0.977   9.717  19.347  0.00  0.00    +0.000 C 
ENDROOT
BRANCH   2   3
ATOM      3  C   UNL     1       0.359  10.023  20.709  0.00  0.00    +0.000 A 
ATOM      4  C   UNL     1       0.497   9.160  21.808  0.00  0.00    +0.000 A 
ATOM      5  C   UNL     1      -0.182   9.407  23.003  0.00  0.00    +0.000 A 
ATOM      6  C   UNL     1      -0.973  10.548  23.135  0.00  0.00    +0.000 A 
ATOM      7  C   UNL     1      -1.050  11.467  22.091  0.00  0.00    +0.000 A 
ATOM      8  C   UNL     1      -0.399  11.195  20.880  0.00  0.00    +0.000 A 
BRANCH   7   9
ATOM      9  O   UNL     1      -1.802  12.583  22.350  0.00  0.00    +0.000 OA
BRANCH   9  10
ATOM     10  C   UNL     1      -2.275  13.269  21.188  0.00  0.00    +0.000 C 
BRANCH  10  11
ATOM     11  C   UNL     1      -3.646  12.778  20.784  0.00  0.00    +0.000 A 
ATOM     12  C   UNL     1      -4.700  12.850  21.710  0.00  0.00    +0.000 A 
ATOM     13  C   UNL     1      -5.990  12.463  21.350  0.00  0.00    +0.000 A 
ATOM     14  C   UNL     1      -6.242  12.007  20.058  0.00  0.00    +0.000 A 
ATOM     15  C   UNL     1      -5.205  11.938  19.127  0.00  0.00    +0.000 A 
ATOM     16  C   UNL     1      -3.912  12.326  19.484  0.00  0.00    +0.000 A 
ENDBRANCH  10  11
ENDBRANCH   9  10
ENDBRANCH   7   9
ENDBRANCH   2   3
BRANCH   2  17
ATOM     17  N   UNL     1       1.710   8.461  19.398  0.00  0.00    +0.000 N 
ATOM     18  C   UNL     1       2.486   7.998  18.359  0.00  0.00    +0.000 C 
ATOM     19  O   UNL     1       2.548   8.608  17.290  0.00  0.00    +0.000 OA
ATOM     20  H   UNL     1       1.404   7.809  20.107  0.00  0.00    +0.000 HD
BRANCH  18  21
ATOM     21  C   UNL     1       3.326   6.720  18.577  0.00  0.00    +0.000 C 
ATOM     22  C   UNL     1       4.067   6.464  17.251  0.00  0.00    +0.000 C 
ATOM     23  N   UNL     1       4.683   5.153  17.174  0.00  0.00    +0.000 N 
ATOM     24  C   UNL     1       3.973   4.033  17.507  0.00  0.00    +0.000 C 
ATOM     25  O   UNL     1       4.301   2.932  17.087  0.00  0.00    +0.000 OA
ATOM     26  C   UNL     1       2.830   4.224  18.442  0.00  0.00    +0.000 A 
ATOM     27  C   UNL     1       2.049   3.110  18.776  0.00  0.00    +0.000 A 
ATOM     28  C   UNL     1       1.060   3.219  19.753  0.00  0.00    +0.000 A 
ATOM     29  C   UNL     1       0.914   4.408  20.458  0.00  0.00    +0.000 A 
ATOM     30  C   UNL     1       1.713   5.507  20.145  0.00  0.00    +0.000 A 
ATOM     31  C   UNL     1       2.595   5.469  19.051  0.00  0.00    +0.000 A 
ATOM     32  H   UNL     1       5.413   4.991  16.490  0.00  0.00    +0.000 HD
ENDBRANCH  18  21
ENDBRANCH   2  17
TORSDOF 6
ENDMDL
MODEL 8
REMARK VINA RESULT:      -7.9      4.289      7.310
REMARK  Name = 
REMARK  7 active torsions:
REMARK  status: ('A' for Active; 'I' for Inactive)
REMARK    1  A    between atoms: C_1  and  C_2
REMARK    2  A    between atoms: C_2  and  N_3
REMARK    3  A    between atoms: C_2  and  C_17
REMARK    4  A    between atoms: C_4  and  C_6
REMARK    5  A    between atoms: C_21  and  O_22
REMARK    6  A    between atoms: O_22  and  C_23
REMARK    7  A    between atoms: C_23  and  C_24
REMARK                            x       y       z     vdW  Elec       q    Type
REMARK                         _______ _______ _______ _____ _____    ______ ____
ROOT
ATOM      1  C   UNL     1       2.013   4.808  17.818  0.00  0.00    +0.000 C 
ATOM      2  C   UNL     1       2.878   5.971  18.302  0.00  0.00    +0.000 C 
ENDROOT
BRANCH   2   3
ATOM      3  C   UNL     1       4.286   5.932  17.713  0.00  0.00    +0.000 A 
ATOM      4  C   UNL     1       4.865   4.749  17.227  0.00  0.00    +0.000 A 
ATOM      5  C   UNL     1       6.198   4.723  16.810  0.00  0.00    +0.000 A 
ATOM      6  C   UNL     1       6.959   5.891  16.826  0.00  0.00    +0.000 A 
ATOM      7  C   UNL     1       6.379   7.096  17.216  0.00  0.00    +0.000 A 
ATOM      8  C   UNL     1       5.053   7.111  17.672  0.00  0.00    +0.000 A 
BRANCH   7   9
ATOM      9  O   UNL     1       7.197   8.192  17.132  0.00  0.00    +0.000 OA
BRANCH   9  10
ATOM     10  C   UNL     1       8.230   8.244  18.120  0.00  0.00    +0.000 C 
BRANCH  10  11
ATOM     11  C   UNL     1       8.619   9.671  18.429  0.00  0.00    +0.000 A 
ATOM     12  C   UNL     1       9.356   9.944  19.593  0.00  0.00    +0.000 A 
ATOM     13  C   UNL     1       9.785  11.240  19.876  0.00  0.00    +0.000 A 
ATOM     14  C   UNL     1       9.486  12.276  18.994  0.00  0.00    +0.000 A 
ATOM     15  C   UNL     1       8.762  12.017  17.831  0.00  0.00    +0.000 A 
ATOM     16  C   UNL     1       8.332  10.720  17.544  0.00  0.00    +0.000 A 
ENDBRANCH  10  11
ENDBRANCH   9  10
ENDBRANCH   7   9
ENDBRANCH   2   3
BRANCH   2  17
ATOM     17  N   UNL     1       2.246   7.249  18.012  0.00  0.00    +0.000 N 
ATOM     18  C   UNL     1       1.880   8.148  18.989  0.00  0.00    +0.000 C 
ATOM     19  O   UNL     1       2.018   7.881  20.184  0.00  0.00    +0.000 OA
ATOM     20  H   UNL     1       1.829   7.327  17.095  0.00  0.00    +0.000 HD
BRANCH  18  21
ATOM     21  C   UNL     1       1.341   9.530  18.556  0.00  0.00    +0.000 C 
ATOM     22  C   UNL     1       2.505  10.235  17.834  0.00  0.00    +0.000 C 
ATOM     23  N   UNL     1       2.274  11.649  17.606  0.00  0.00    +0.000 N 
ATOM     24  C   UNL     1       1.831  12.451  18.621  0.00  0.00    +0.000 C 
ATOM     25  O   UNL     1       2.008  13.662  18.589  0.00  0.00    +0.000 OA
ATOM     26  C   UNL     1       1.086  11.781  19.722  0.00  0.00    +0.000 A 
ATOM     27  C   UNL     1       0.652  12.560  20.803  0.00  0.00    +0.000 A 
ATOM     28  C   UNL     1      -0.167  11.998  21.782  0.00  0.00    +0.000 A 
ATOM     29  C   UNL     1      -0.627  10.695  21.633  0.00  0.00    +0.000 A 
ATOM     30  C   UNL     1      -0.219   9.931  20.541  0.00  0.00    +0.000 A 
ATOM     31  C   UNL     1       0.741  10.421  19.637  0.00  0.00    +0.000 A 
ATOM     32  H   UNL     1       2.828  12.133  16.909  0.00  0.00    +0.000 HD
ENDBRANCH  18  21
ENDBRANCH   2  17
TORSDOF 6
ENDMDL
MODEL 9
REMARK VINA RESULT:      -7.9      4.137      7.562
REMARK  Name = 
REMARK  7 active torsions:
REMARK  status: ('A' for Active; 'I' for Inactive)
REMARK    1  A    between atoms: C_1  and  C_2
REMARK    2  A    between atoms: C_2  and  N_3
REMARK    3  A    between atoms: C_2  and  C_17
REMARK    4  A    between atoms: C_4  and  C_6
REMARK    5  A    between atoms: C_21  and  O_22
REMARK    6  A    between atoms: O_22  and  C_23
REMARK    7  A    between atoms: C_23  and  C_24
REMARK                            x       y       z     vdW  Elec       q    Type
REMARK                         _______ _______ _______ _____ _____    ______ ____
ROOT
ATOM      1  C   UNL     1      -7.011  14.124  22.374  0.00  0.00    +0.000 C 
ATOM      2  C   UNL     1      -6.153  12.863  22.274  0.00  0.00    +0.000 C 
ENDROOT
BRANCH   2   3
ATOM      3  C   UNL     1      -6.627  11.922  21.170  0.00  0.00    +0.000 A 
ATOM      4  C   UNL     1      -7.282  10.710  21.444  0.00  0.00    +0.000 A 
ATOM      5  C   UNL     1      -7.592   9.816  20.417  0.00  0.00    +0.000 A 
ATOM      6  C   UNL     1      -7.297  10.140  19.094  0.00  0.00    +0.000 A 
ATOM      7  C   UNL     1      -6.733  11.376  18.788  0.00  0.00    +0.000 A 
ATOM      8  C   UNL     1      -6.387  12.255  19.824  0.00  0.00    +0.000 A 
BRANCH   7   9
ATOM      9  O   UNL     1      -6.544  11.618  17.452  0.00  0.00    +0.000 OA
BRANCH   9  10
ATOM     10  C   UNL     1      -5.360  12.354  17.139  0.00  0.00    +0.000 C 
BRANCH  10  11
ATOM     11  C   UNL     1      -4.147  11.453  17.112  0.00  0.00    +0.000 A 
ATOM     12  C   UNL     1      -3.887  10.689  15.963  0.00  0.00    +0.000 A 
ATOM     13  C   UNL     1      -2.744   9.894  15.881  0.00  0.00    +0.000 A 
ATOM     14  C   UNL     1      -1.846   9.860  16.945  0.00  0.00    +0.000 A 
ATOM     15  C   UNL     1      -2.089  10.621  18.088  0.00  0.00    +0.000 A 
ATOM     16  C   UNL     1      -3.232  11.419  18.173  0.00  0.00    +0.000 A 
ENDBRANCH  10  11
ENDBRANCH   9  10
ENDBRANCH   7   9
ENDBRANCH   2   3
BRANCH   2  17
ATOM     17  N   UNL     1      -4.751  13.198  22.082  0.00  0.00    +0.000 N 
ATOM     18  C   UNL     1      -3.747  12.747  22.911  0.00  0.00    +0.000 C 
ATOM     19  O   UNL     1      -4.002  12.074  23.912  0.00  0.00    +0.000 OA
ATOM     20  H   UNL     1      -4.574  13.999  21.493  0.00  0.00    +0.000 HD
BRANCH  18  21
ATOM     21  C   UNL     1      -2.282  13.055  22.532  0.00  0.00    +0.000 C 
ATOM     22  C   UNL     1      -2.344  13.979  21.301  0.00  0.00    +0.000 C 
ATOM     23  N   UNL     1      -1.067  14.145  20.634  0.00  0.00    +0.000 N 
ATOM     24  C   UNL     1      -0.297  13.056  20.332  0.00  0.00    +0.000 C 
ATOM     25  O   UNL     1       0.550  13.109  19.450  0.00  0.00    +0.000 OA
ATOM     26  C   UNL     1      -0.507  11.840  21.165  0.00  0.00    +0.000 A 
ATOM     27  C   UNL     1       0.230  10.688  20.861  0.00  0.00    +0.000 A 
ATOM     28  C   UNL     1       0.165   9.577  21.700  0.00  0.00    +0.000 A 
ATOM     29  C   UNL     1      -0.559   9.648  22.885  0.00  0.00    +0.000 A 
ATOM     30  C   UNL     1      -1.269  10.806  23.201  0.00  0.00    +0.000 A 
ATOM     31  C   UNL     1      -1.354  11.871  22.287  0.00  0.00    +0.000 A 
ATOM     32  H   UNL     1      -0.936  14.930  20.007  0.00  0.00    +0.000 HD
ENDBRANCH  18  21
ENDBRANCH   2  17
TORSDOF 6
ENDMDL
