MODEL 1
REMARK VINA RESULT:      -8.2      0.000      0.000
REMARK  Name = 
REMARK  5 active torsions:
REMARK  status: ('A' for Active; 'I' for Inactive)
REMARK    1  A    between atoms: C_2  and  C_16
REMARK    2  A    between atoms: N_3  and  C_4
REMARK    3  A    between atoms: C_4  and  C_5
REMARK    4  A    between atoms: C_8  and  C_9
REMARK    5  A    between atoms: C_19  and  C_20
REMARK                            x       y       z     vdW  Elec       q    Type
REMARK                         _______ _______ _______ _____ _____    ______ ____
ROOT
ATOM      1  O   UNL     1       2.701   8.649  17.235  0.00  0.00    +0.000 OA
ATOM      2  C   UNL     1       2.228   8.306  18.316  0.00  0.00    +0.000 C 
ATOM      3  N   UNL     1       1.464   9.144  19.093  0.00  0.00    +0.000 N 
ATOM      4  H   UNL     1       1.101   8.828  19.980  0.00  0.00    +0.000 HD
ENDROOT
BRANCH   2   5
ATOM      5  C   UNL     1       2.469   6.918  18.919  0.00  0.00    +0.000 C 
ATOM      6  C   UNL     1       2.031   5.825  17.932  0.00  0.00    +0.000 C 
ATOM      7  C   UNL     1       2.157   4.420  18.515  0.00  0.00    +0.000 C 
ATOM      8  C   UNL     1       1.401   4.281  19.842  0.00  0.00    +0.000 C 
ATOM      9  C   UNL     1       1.861   5.358  20.832  0.00  0.00    +0.000 C 
ATOM     10  C   UNL     1       1.732   6.767  20.256  0.00  0.00    +0.000 C 
BRANCH   8  11
ATOM     11  C   UNL     1       1.533   2.875  20.434  0.00  0.00    +0.000 C 
ATOM     12  F   UNL     1       0.812   2.723  21.564  0.00  0.00    +0.000 F 
ATOM     13  F   UNL     1       1.133   1.916  19.569  0.00  0.00    +0.000 F 
ATOM     14  F   UNL     1       2.825   2.617  20.745  0.00  0.00    +0.000 F 
ENDBRANCH   8  11
ENDBRANCH   2   5
BRANCH   3  15
ATOM     15  C   UNL     1       1.137  10.491  18.676  0.00  0.00    +0.000 C 
BRANCH  15  16
ATOM     16  C   UNL     1      -0.348  10.667  18.495  0.00  0.00    +0.000 A 
ATOM     17  C   UNL     1      -1.066   9.884  17.580  0.00  0.00    +0.000 A 
ATOM     18  C   UNL     1      -2.448  10.058  17.429  0.00  0.00    +0.000 A 
ATOM     19  C   UNL     1      -3.137  11.010  18.190  0.00  0.00    +0.000 A 
ATOM     20  C   UNL     1      -2.415  11.796  19.098  0.00  0.00    +0.000 A 
ATOM     21  C   UNL     1      -1.035  11.632  19.242  0.00  0.00    +0.000 A 
BRANCH  19  22
ATOM     22  C   UNL     1      -4.565  11.194  18.007  0.00  0.00    +0.000 A 
ATOM     23  C   UNL     1      -5.169  11.955  17.028  0.00  0.00    +0.000 A 
ATOM     24  N   UNL     1      -6.513  11.793  17.223  0.00  0.00    +0.000 N 
ATOM     25  C   UNL     1      -6.676  10.965  18.297  0.00  0.00    +0.000 A 
ATOM     26  N   UNL     1      -5.520  10.605  18.807  0.00  0.00    +0.000 NA
ATOM     27  H   UNL     1      -7.255  12.202  16.672  0.00  0.00    +0.000 HD
ENDBRANCH  19  22
ENDBRANCH  15  16
ENDBRANCH   3  15
TORSDOF 5
ENDMDL
MODEL 2
REMARK VINA RESULT:      -7.9      1.269      1.757
REMARK  Name = 
REMARK  5 active torsions:
REMARK  status: ('A' for Active; 'I' for Inactive)
REMARK    1  A    between atoms: C_2  and  C_16
REMARK    2  A    between atoms: N_3  and  C_4
REMARK    3  A    between atoms: C_4  and  C_5
REMARK    4  A    between atoms: C_8  and  C_9
REMARK    5  A    between atoms: C_19  and  C_20
REMARK                            x       y       z     vdW  Elec       q    Type
REMARK                         _______ _______ _______ _____ _____    ______ ____
ROOT
ATOM      1  O   UNL     1       1.728   8.485  21.032  0.00  0.00    +0.000 OA
ATOM      2  C   UNL     1       1.950   8.043  19.909  0.00  0.00    +0.000 C 
ATOM      3  N   UNL     1       1.919   8.827  18.780  0.00  0.00    +0.000 N 
ATOM      4  H   UNL     1       2.098   8.423  17.872  0.00  0.00    +0.000 HD
ENDROOT
BRANCH   2   5
ATOM      5  C   UNL     1       2.252   6.562  19.649  0.00  0.00    +0.000 C 
ATOM      6  C   UNL     1       1.930   6.201  18.191  0.00  0.00    +0.000 C 
ATOM      7  C   UNL     1       2.120   4.715  17.897  0.00  0.00    +0.000 C 
ATOM      8  C   UNL     1       1.315   3.834  18.860  0.00  0.00    +0.000 C 
ATOM      9  C   UNL     1       1.660   4.181  20.313  0.00  0.00    +0.000 C 
ATOM     10  C   UNL     1       1.467   5.666  20.615  0.00  0.00    +0.000 C 
BRANCH   8  11
ATOM     11  C   UNL     1       1.510   2.343  18.573  0.00  0.00    +0.000 C 
ATOM     12  F   UNL     1       0.338   1.682  18.463  0.00  0.00    +0.000 F 
ATOM     13  F   UNL     1       2.201   2.128  17.431  0.00  0.00    +0.000 F 
ATOM     14  F   UNL     1       2.207   1.760  19.576  0.00  0.00    +0.000 F 
ENDBRANCH   8  11
ENDBRANCH   2   5
BRANCH   3  15
ATOM     15  C   UNL     1       1.650  10.248  18.842  0.00  0.00    +0.000 C 
BRANCH  15  16
ATOM     16  C   UNL     1       0.191  10.543  18.610  0.00  0.00    +0.000 A 
ATOM     17  C   UNL     1      -0.458  11.581  19.293  0.00  0.00    +0.000 A 
ATOM     18  C   UNL     1      -1.814  11.845  19.061  0.00  0.00    +0.000 A 
ATOM     19  C   UNL     1      -2.545  11.081  18.142  0.00  0.00    +0.000 A 
ATOM     20  C   UNL     1      -1.895  10.039  17.467  0.00  0.00    +0.000 A 
ATOM     21  C   UNL     1      -0.546   9.768  17.706  0.00  0.00    +0.000 A 
BRANCH  19  22
ATOM     22  C   UNL     1      -3.955  11.352  17.928  0.00  0.00    +0.000 A 
ATOM     23  C   UNL     1      -4.622  11.289  16.723  0.00  0.00    +0.000 A 
ATOM     24  N   UNL     1      -5.926  11.579  17.017  0.00  0.00    +0.000 N 
ATOM     25  C   UNL     1      -6.002  11.812  18.361  0.00  0.00    +0.000 A 
ATOM     26  N   UNL     1      -4.825  11.706  18.935  0.00  0.00    +0.000 NA
ATOM     27  H   UNL     1      -6.698  11.607  16.366  0.00  0.00    +0.000 HD
ENDBRANCH  19  22
ENDBRANCH  15  16
ENDBRANCH   3  15
TORSDOF 5
ENDMDL
MODEL 3
REMARK VINA RESULT:      -7.8      1.179      1.374
REMARK  Name = 
REMARK  5 active torsions:
REMARK  status: ('A' for Active; 'I' for Inactive)
REMARK    1  A    between atoms: C_2  and  C_16
REMARK    2  A    between atoms: N_3  and  C_4
REMARK    3  A    between atoms: C_4  and  C_5
REMARK    4  A    between atoms: C_8  and  C_9
REMARK    5  A    between atoms: C_19  and  C_20
REMARK                            x       y       z     vdW  Elec       q    Type
REMARK                         _______ _______ _______ _____ _____    ______ ____
ROOT
ATOM      1  O   UNL     1       1.545   8.761  20.973  0.00  0.00    +0.000 OA
ATOM      2  C   UNL     1       1.741   8.276  19.862  0.00  0.00    +0.000 C 
ATOM      3  N   UNL     1       1.614   9.002  18.701  0.00  0.00    +0.000 N 
ATOM      4  H   UNL     1       1.775   8.564  17.806  0.00  0.00    +0.000 HD
ENDROOT
BRANCH   2   5
ATOM      5  C   UNL     1       2.117   6.805  19.658  0.00  0.00    +0.000 C 
ATOM      6  C   UNL     1       1.935   6.408  18.184  0.00  0.00    +0.000 C 
ATOM      7  C   UNL     1       2.202   4.926  17.936  0.00  0.00    +0.000 C 
ATOM      8  C   UNL     1       1.350   4.031  18.843  0.00  0.00    +0.000 C 
ATOM      9  C   UNL     1       1.556   4.414  20.314  0.00  0.00    +0.000 C 
ATOM     10  C   UNL     1       1.285   5.895  20.570  0.00  0.00    +0.000 C 
BRANCH   8  11
ATOM     11  C   UNL     1       1.623   2.543  18.602  0.00  0.00    +0.000 C 
ATOM     12  F   UNL     1       2.401   2.001  19.563  0.00  0.00    +0.000 F 
ATOM     13  F   UNL     1       0.485   1.817  18.549  0.00  0.00    +0.000 F 
ATOM     14  F   UNL     1       2.263   2.370  17.422  0.00  0.00    +0.000 F 
ENDBRANCH   8  11
ENDBRANCH   2   5
BRANCH   3  15
ATOM     15  C   UNL     1       1.265  10.406  18.710  0.00  0.00    +0.000 C 
BRANCH  15  16
ATOM     16  C   UNL     1      -0.213  10.608  18.494  0.00  0.00    +0.000 A 
ATOM     17  C   UNL     1      -0.958   9.726  17.699  0.00  0.00    +0.000 A 
ATOM     18  C   UNL     1      -2.332   9.926  17.513  0.00  0.00    +0.000 A 
ATOM     19  C   UNL     1      -2.986  11.005  18.120  0.00  0.00    +0.000 A 
ATOM     20  C   UNL     1      -2.237  11.890  18.907  0.00  0.00    +0.000 A 
ATOM     21  C   UNL     1      -0.865  11.698  19.084  0.00  0.00    +0.000 A 
BRANCH  19  22
ATOM     22  C   UNL     1      -4.406  11.212  17.900  0.00  0.00    +0.000 A 
ATOM     23  C   UNL     1      -4.977  11.866  16.828  0.00  0.00    +0.000 A 
ATOM     24  N   UNL     1      -6.327  11.775  17.028  0.00  0.00    +0.000 N 
ATOM     25  C   UNL     1      -6.525  11.092  18.195  0.00  0.00    +0.000 A 
ATOM     26  N   UNL     1      -5.385  10.759  18.756  0.00  0.00    +0.000 NA
ATOM     27  H   UNL     1      -7.051  12.136  16.423  0.00  0.00    +0.000 HD
ENDBRANCH  19  22
ENDBRANCH  15  16
ENDBRANCH   3  15
TORSDOF 5
ENDMDL
MODEL 4
REMARK VINA RESULT:      -7.8      0.493      1.327
REMARK  Name = 
REMARK  5 active torsions:
REMARK  status: ('A' for Active; 'I' for Inactive)
REMARK    1  A    between atoms: C_2  and  C_16
REMARK    2  A    between atoms: N_3  and  C_4
REMARK    3  A    between atoms: C_4  and  C_5
REMARK    4  A    between atoms: C_8  and  C_9
REMARK    5  A    between atoms: C_19  and  C_20
REMARK                            x       y       z     vdW  Elec       q    Type
REMARK                         _______ _______ _______ _____ _____    ______ ____
ROOT
ATOM      1  O   UNL     1       2.713   8.479  17.173  0.00  0.00    +0.000 OA
ATOM      2  C   UNL     1       2.343   8.203  18.311  0.00  0.00    +0.000 C 
ATOM      3  N   UNL     1       1.728   9.115  19.136  0.00  0.00    +0.000 N 
ATOM      4  H   UNL     1       1.446   8.852  20.068  0.00  0.00    +0.000 HD
ENDROOT
BRANCH   2   5
ATOM      5  C   UNL     1       2.557   6.820  18.937  0.00  0.00    +0.000 C 
ATOM      6  C   UNL     1       2.093   5.720  17.969  0.00  0.00    +0.000 C 
ATOM      7  C   UNL     1       2.192   4.323  18.575  0.00  0.00    +0.000 C 
ATOM      8  C   UNL     1       1.438   4.222  19.907  0.00  0.00    +0.000 C 
ATOM      9  C   UNL     1       1.925   5.305  20.878  0.00  0.00    +0.000 C 
ATOM     10  C   UNL     1       1.823   6.706  20.279  0.00  0.00    +0.000 C 
BRANCH   8  11
ATOM     11  C   UNL     1       1.544   2.823  20.521  0.00  0.00    +0.000 C 
ATOM     12  F   UNL     1       1.201   1.851  19.650  0.00  0.00    +0.000 F 
ATOM     13  F   UNL     1       2.792   2.549  20.959  0.00  0.00    +0.000 F 
ATOM     14  F   UNL     1       0.715   2.716  21.587  0.00  0.00    +0.000 F 
ENDBRANCH   8  11
ENDBRANCH   2   5
BRANCH   3  15
ATOM     15  C   UNL     1       1.447  10.468  18.705  0.00  0.00    +0.000 C 
BRANCH  15  16
ATOM     16  C   UNL     1      -0.036  10.716  18.601  0.00  0.00    +0.000 A 
ATOM     17  C   UNL     1      -0.674  11.661  19.418  0.00  0.00    +0.000 A 
ATOM     18  C   UNL     1      -2.052  11.883  19.303  0.00  0.00    +0.000 A 
ATOM     19  C   UNL     1      -2.816  11.170  18.370  0.00  0.00    +0.000 A 
ATOM     20  C   UNL     1      -2.177  10.221  17.561  0.00  0.00    +0.000 A 
ATOM     21  C   UNL     1      -0.805   9.992  17.682  0.00  0.00    +0.000 A 
BRANCH  19  22
ATOM     22  C   UNL     1      -4.247  11.395  18.278  0.00  0.00    +0.000 A 
ATOM     23  C   UNL     1      -5.046  11.122  17.187  0.00  0.00    +0.000 A 
ATOM     24  N   UNL     1      -6.314  11.454  17.577  0.00  0.00    +0.000 N 
ATOM     25  C   UNL     1      -6.242  11.916  18.860  0.00  0.00    +0.000 A 
ATOM     26  N   UNL     1      -5.006  11.915  19.303  0.00  0.00    +0.000 NA
ATOM     27  H   UNL     1      -7.156  11.367  17.024  0.00  0.00    +0.000 HD
ENDBRANCH  19  22
ENDBRANCH  15  16
ENDBRANCH   3  15
TORSDOF 5
ENDMDL
MODEL 5
REMARK VINA RESULT:      -7.8      0.552      1.075
REMARK  Name = 
REMARK  5 active torsions:
REMARK  status: ('A' for Active; 'I' for Inactive)
REMARK    1  A    between atoms: C_2  and  C_16
REMARK    2  A    between atoms: N_3  and  C_4
REMARK    3  A    between atoms: C_4  and  C_5
REMARK    4  A    between atoms: C_8  and  C_9
REMARK    5  A    between atoms: C_19  and  C_20
REMARK                            x       y       z     vdW  Elec       q    Type
REMARK                         _______ _______ _______ _____ _____    ______ ____
ROOT
ATOM      1  O   UNL     1       2.551   8.580  17.192  0.00  0.00    +0.000 OA
ATOM      2  C   UNL     1       2.172   8.334  18.333  0.00  0.00    +0.000 C 
ATOM      3  N   UNL     1       1.491   9.246  19.105  0.00  0.00    +0.000 N 
ATOM      4  H   UNL     1       1.204   9.009  20.043  0.00  0.00    +0.000 HD
ENDROOT
BRANCH   2   5
ATOM      5  C   UNL     1       2.447   6.993  19.024  0.00  0.00    +0.000 C 
ATOM      6  C   UNL     1       2.238   5.834  18.038  0.00  0.00    +0.000 C 
ATOM      7  C   UNL     1       2.404   4.465  18.694  0.00  0.00    +0.000 C 
ATOM      8  C   UNL     1       1.493   4.303  19.917  0.00  0.00    +0.000 C 
ATOM      9  C   UNL     1       1.725   5.449  20.910  0.00  0.00    +0.000 C 
ATOM     10  C   UNL     1       1.555   6.821  20.260  0.00  0.00    +0.000 C 
BRANCH   8  11
ATOM     11  C   UNL     1       1.664   2.935  20.582  0.00  0.00    +0.000 C 
ATOM     12  F   UNL     1       2.958   2.643  20.833  0.00  0.00    +0.000 F 
ATOM     13  F   UNL     1       0.999   2.849  21.755  0.00  0.00    +0.000 F 
ATOM     14  F   UNL     1       1.182   1.959  19.778  0.00  0.00    +0.000 F 
ENDBRANCH   8  11
ENDBRANCH   2   5
BRANCH   3  15
ATOM     15  C   UNL     1       1.147  10.562  18.609  0.00  0.00    +0.000 C 
BRANCH  15  16
ATOM     16  C   UNL     1      -0.343  10.715  18.441  0.00  0.00    +0.000 A 
ATOM     17  C   UNL     1      -1.060   9.905  17.549  0.00  0.00    +0.000 A 
ATOM     18  C   UNL     1      -2.446  10.057  17.410  0.00  0.00    +0.000 A 
ATOM     19  C   UNL     1      -3.140  11.015  18.160  0.00  0.00    +0.000 A 
ATOM     20  C   UNL     1      -2.419  11.828  19.044  0.00  0.00    +0.000 A 
ATOM     21  C   UNL     1      -1.035  11.685  19.176  0.00  0.00    +0.000 A 
BRANCH  19  22
ATOM     22  C   UNL     1      -4.572  11.176  17.988  0.00  0.00    +0.000 A 
ATOM     23  C   UNL     1      -5.552  10.368  18.526  0.00  0.00    +0.000 A 
ATOM     24  N   UNL     1      -6.736  10.928  18.133  0.00  0.00    +0.000 N 
ATOM     25  C   UNL     1      -6.441  12.027  17.378  0.00  0.00    +0.000 A 
ATOM     26  N   UNL     1      -5.143  12.190  17.252  0.00  0.00    +0.000 NA
ATOM     27  H   UNL     1      -7.664  10.599  18.363  0.00  0.00    +0.000 HD
ENDBRANCH  19  22
ENDBRANCH  15  16
ENDBRANCH   3  15
TORSDOF 5
ENDMDL
MODEL 6
REMARK VINA RESULT:      -7.7      0.664      1.215
REMARK  Name = 
REMARK  5 active torsions:
REMARK  status: ('A' for Active; 'I' for Inactive)
REMARK    1  A    between atoms: C_2  and  C_16
REMARK    2  A    between atoms: N_3  and  C_4
REMARK    3  A    between atoms: C_4  and  C_5
REMARK    4  A    between atoms: C_8  and  C_9
REMARK    5  A    between atoms: C_19  and  C_20
REMARK                            x       y       z     vdW  Elec       q    Type
REMARK                         _______ _______ _______ _____ _____    ______ ____
ROOT
ATOM      1  O   UNL     1       2.927   8.483  17.157  0.00  0.00    +0.000 OA
ATOM      2  C   UNL     1       2.422   8.179  18.234  0.00  0.00    +0.000 C 
ATOM      3  N   UNL     1       1.671   9.058  18.979  0.00  0.00    +0.000 N 
ATOM      4  H   UNL     1       1.280   8.773  19.864  0.00  0.00    +0.000 HD
ENDROOT
BRANCH   2   5
ATOM      5  C   UNL     1       2.603   6.796  18.871  0.00  0.00    +0.000 C 
ATOM      6  C   UNL     1       2.150   5.698  17.896  0.00  0.00    +0.000 C 
ATOM      7  C   UNL     1       2.216   4.302  18.510  0.00  0.00    +0.000 C 
ATOM      8  C   UNL     1       1.427   4.216  19.823  0.00  0.00    +0.000 C 
ATOM      9  C   UNL     1       1.903   5.298  20.801  0.00  0.00    +0.000 C 
ATOM     10  C   UNL     1       1.833   6.698  20.194  0.00  0.00    +0.000 C 
BRANCH   8  11
ATOM     11  C   UNL     1       1.500   2.819  20.445  0.00  0.00    +0.000 C 
ATOM     12  F   UNL     1       0.783   2.726  21.585  0.00  0.00    +0.000 F 
ATOM     13  F   UNL     1       1.047   1.861  19.607  0.00  0.00    +0.000 F 
ATOM     14  F   UNL     1       2.781   2.508  20.752  0.00  0.00    +0.000 F 
ENDBRANCH   8  11
ENDBRANCH   2   5
BRANCH   3  15
ATOM     15  C   UNL     1       1.400  10.406  18.527  0.00  0.00    +0.000 C 
BRANCH  15  16
ATOM     16  C   UNL     1      -0.078  10.699  18.524  0.00  0.00    +0.000 A 
ATOM     17  C   UNL     1      -0.615  11.733  19.304  0.00  0.00    +0.000 A 
ATOM     18  C   UNL     1      -1.992  11.995  19.285  0.00  0.00    +0.000 A 
ATOM     19  C   UNL     1      -2.854  11.234  18.486  0.00  0.00    +0.000 A 
ATOM     20  C   UNL     1      -2.315  10.196  17.714  0.00  0.00    +0.000 A 
ATOM     21  C   UNL     1      -0.944   9.927  17.741  0.00  0.00    +0.000 A 
BRANCH  19  22
ATOM     22  C   UNL     1      -4.280  11.502  18.494  0.00  0.00    +0.000 A 
ATOM     23  C   UNL     1      -4.967  12.229  19.445  0.00  0.00    +0.000 A 
ATOM     24  N   UNL     1      -6.264  12.250  19.015  0.00  0.00    +0.000 N 
ATOM     25  C   UNL     1      -6.322  11.543  17.847  0.00  0.00    +0.000 A 
ATOM     26  N   UNL     1      -5.146  11.059  17.519  0.00  0.00    +0.000 NA
ATOM     27  H   UNL     1      -7.042  12.710  19.468  0.00  0.00    +0.000 HD
ENDBRANCH  19  22
ENDBRANCH  15  16
ENDBRANCH   3  15
TORSDOF 5
ENDMDL
MODEL 7
REMARK VINA RESULT:      -7.7      4.856      9.099
REMARK  Name = 
REMARK  5 active torsions:
REMARK  status: ('A' for Active; 'I' for Inactive)
REMARK    1  A    between atoms: C_2  and  C_16
REMARK    2  A    between atoms: N_3  and  C_4
REMARK    3  A    between atoms: C_4  and  C_5
REMARK    4  A    between atoms: C_8  and  C_9
REMARK    5  A    between atoms: C_19  and  C_20
REMARK                            x       y       z     vdW  Elec       q    Type
REMARK                         _______ _______ _______ _____ _____    ______ ____
ROOT
ATOM      1  O   UNL     1       1.060  10.623  20.116  0.00  0.00    +0.000 OA
ATOM      2  C   UNL     1       0.406  10.171  19.180  0.00  0.00    +0.000 C 
ATOM      3  N   UNL     1       0.981   9.506  18.123  0.00  0.00    +0.000 N 
ATOM      4  H   UNL     1       0.410   9.157  17.368  0.00  0.00    +0.000 HD
ENDROOT
BRANCH   2   5
ATOM      5  C   UNL     1      -1.115  10.330  19.083  0.00  0.00    +0.000 C 
ATOM      6  C   UNL     1      -1.602   9.946  17.676  0.00  0.00    +0.000 C 
ATOM      7  C   UNL     1      -3.099  10.177  17.487  0.00  0.00    +0.000 C 
ATOM      8  C   UNL     1      -3.503  11.618  17.823  0.00  0.00    +0.000 C 
ATOM      9  C   UNL     1      -3.039  11.985  19.238  0.00  0.00    +0.000 C 
ATOM     10  C   UNL     1      -1.540  11.762  19.430  0.00  0.00    +0.000 C 
BRANCH   8  11
ATOM     11  C   UNL     1      -5.006  11.848  17.643  0.00  0.00    +0.000 C 
ATOM     12  F   UNL     1      -5.518  12.663  18.590  0.00  0.00    +0.000 F 
ATOM     13  F   UNL     1      -5.300  12.393  16.442  0.00  0.00    +0.000 F 
ATOM     14  F   UNL     1      -5.674  10.673  17.723  0.00  0.00    +0.000 F 
ENDBRANCH   8  11
ENDBRANCH   2   5
BRANCH   3  15
ATOM     15  C   UNL     1       2.407   9.267  18.053  0.00  0.00    +0.000 C 
BRANCH  15  16
ATOM     16  C   UNL     1       2.729   7.805  18.226  0.00  0.00    +0.000 A 
ATOM     17  C   UNL     1       2.267   7.086  19.338  0.00  0.00    +0.000 A 
ATOM     18  C   UNL     1       2.572   5.725  19.479  0.00  0.00    +0.000 A 
ATOM     19  C   UNL     1       3.337   5.060  18.514  0.00  0.00    +0.000 A 
ATOM     20  C   UNL     1       3.804   5.783  17.409  0.00  0.00    +0.000 A 
ATOM     21  C   UNL     1       3.511   7.142  17.272  0.00  0.00    +0.000 A 
BRANCH  19  22
ATOM     22  C   UNL     1       3.663   3.656  18.686  0.00  0.00    +0.000 A 
ATOM     23  C   UNL     1       4.583   3.136  19.573  0.00  0.00    +0.000 A 
ATOM     24  N   UNL     1       4.516   1.780  19.409  0.00  0.00    +0.000 N 
ATOM     25  C   UNL     1       3.585   1.529  18.441  0.00  0.00    +0.000 A 
ATOM     26  N   UNL     1       3.070   2.641  17.969  0.00  0.00    +0.000 NA
ATOM     27  H   UNL     1       5.048   1.085  19.914  0.00  0.00    +0.000 HD
ENDBRANCH  19  22
ENDBRANCH  15  16
ENDBRANCH   3  15
TORSDOF 5
ENDMDL
MODEL 8
REMARK VINA RESULT:      -7.6      4.836      9.056
REMARK  Name = 
REMARK  5 active torsions:
REMARK  status: ('A' for Active; 'I' for Inactive)
REMARK    1  A    between atoms: C_2  and  C_16
REMARK    2  A    between atoms: N_3  and  C_4
REMARK    3  A    between atoms: C_4  and  C_5
REMARK    4  A    between atoms: C_8  and  C_9
REMARK    5  A    between atoms: C_19  and  C_20
REMARK                            x       y       z     vdW  Elec       q    Type
REMARK                         _______ _______ _______ _____ _____    ______ ____
ROOT
ATOM      1  O   UNL     1       0.993  10.589  19.968  0.00  0.00    +0.000 OA
ATOM      2  C   UNL     1       0.326  10.190  19.017  0.00  0.00    +0.000 C 
ATOM      3  N   UNL     1       0.889   9.608  17.905  0.00  0.00    +0.000 N 
ATOM      4  H   UNL     1       0.307   9.302  17.140  0.00  0.00    +0.000 HD
ENDROOT
BRANCH   2   5
ATOM      5  C   UNL     1      -1.199  10.331  18.962  0.00  0.00    +0.000 C 
ATOM      6  C   UNL     1      -1.717   9.962  17.562  0.00  0.00    +0.000 C 
ATOM      7  C   UNL     1      -3.222  10.176  17.416  0.00  0.00    +0.000 C 
ATOM      8  C   UNL     1      -3.635  11.606  17.785  0.00  0.00    +0.000 C 
ATOM      9  C   UNL     1      -3.138  11.958  19.192  0.00  0.00    +0.000 C 
ATOM     10  C   UNL     1      -1.632  11.752  19.343  0.00  0.00    +0.000 C 
BRANCH   8  11
ATOM     11  C   UNL     1      -5.145  11.820  17.648  0.00  0.00    +0.000 C 
ATOM     12  F   UNL     1      -5.849  10.696  17.899  0.00  0.00    +0.000 F 
ATOM     13  F   UNL     1      -5.604  12.777  18.484  0.00  0.00    +0.000 F 
ATOM     14  F   UNL     1      -5.451  12.211  16.388  0.00  0.00    +0.000 F 
ENDBRANCH   8  11
ENDBRANCH   2   5
BRANCH   3  15
ATOM     15  C   UNL     1       2.316   9.397  17.791  0.00  0.00    +0.000 C 
BRANCH  15  16
ATOM     16  C   UNL     1       2.680   7.954  18.026  0.00  0.00    +0.000 A 
ATOM     17  C   UNL     1       3.662   7.317  17.254  0.00  0.00    +0.000 A 
ATOM     18  C   UNL     1       3.992   5.976  17.491  0.00  0.00    +0.000 A 
ATOM     19  C   UNL     1       3.353   5.250  18.503  0.00  0.00    +0.000 A 
ATOM     20  C   UNL     1       2.366   5.888  19.268  0.00  0.00    +0.000 A 
ATOM     21  C   UNL     1       2.029   7.221  19.026  0.00  0.00    +0.000 A 
BRANCH  19  22
ATOM     22  C   UNL     1       3.689   3.856  18.722  0.00  0.00    +0.000 A 
ATOM     23  C   UNL     1       3.675   2.856  17.772  0.00  0.00    +0.000 A 
ATOM     24  N   UNL     1       4.102   1.732  18.424  0.00  0.00    +0.000 N 
ATOM     25  C   UNL     1       4.347   2.079  19.722  0.00  0.00    +0.000 A 
ATOM     26  N   UNL     1       4.085   3.347  19.939  0.00  0.00    +0.000 NA
ATOM     27  H   UNL     1       4.225   0.813  18.022  0.00  0.00    +0.000 HD
ENDBRANCH  19  22
ENDBRANCH  15  16
ENDBRANCH   3  15
TORSDOF 5
ENDMDL
MODEL 9
REMARK VINA RESULT:      -7.6      1.121      1.688
REMARK  Name = 
REMARK  5 active torsions:
REMARK  status: ('A' for Active; 'I' for Inactive)
REMARK    1  A    between atoms: C_2  and  C_16
REMARK    2  A    between atoms: N_3  and  C_4
REMARK    3  A    between atoms: C_4  and  C_5
REMARK    4  A    between atoms: C_8  and  C_9
REMARK    5  A    between atoms: C_19  and  C_20
REMARK                            x       y       z     vdW  Elec       q    Type
REMARK                         _______ _______ _______ _____ _____    ______ ____
ROOT
ATOM      1  O   UNL     1       2.811   8.421  17.145  0.00  0.00    +0.000 OA
ATOM      2  C   UNL     1       2.223   7.925  18.102  0.00  0.00    +0.000 C 
ATOM      3  N   UNL     1       1.506   8.674  19.006  0.00  0.00    +0.000 N 
ATOM      4  H   UNL     1       1.044   8.229  19.785  0.00  0.00    +0.000 HD
ENDROOT
BRANCH   2   5
ATOM      5  C   UNL     1       2.256   6.422  18.402  0.00  0.00    +0.000 C 
ATOM      6  C   UNL     1       2.113   6.177  19.912  0.00  0.00    +0.000 C 
ATOM      7  C   UNL     1       2.236   4.702  20.284  0.00  0.00    +0.000 C 
ATOM      8  C   UNL     1       3.538   4.086  19.760  0.00  0.00    +0.000 C 
ATOM      9  C   UNL     1       3.662   4.310  18.247  0.00  0.00    +0.000 C 
ATOM     10  C   UNL     1       3.546   5.785  17.870  0.00  0.00    +0.000 C 
BRANCH   8  11
ATOM     11  C   UNL     1       3.659   2.603  20.123  0.00  0.00    +0.000 C 
ATOM     12  F   UNL     1       2.854   1.822  19.373  0.00  0.00    +0.000 F 
ATOM     13  F   UNL     1       4.920   2.141  19.975  0.00  0.00    +0.000 F 
ATOM     14  F   UNL     1       3.313   2.409  21.418  0.00  0.00    +0.000 F 
ENDBRANCH   8  11
ENDBRANCH   2   5
BRANCH   3  15
ATOM     15  C   UNL     1       1.370  10.108  18.874  0.00  0.00    +0.000 C 
BRANCH  15  16
ATOM     16  C   UNL     1      -0.064  10.507  18.640  0.00  0.00    +0.000 A 
ATOM     17  C   UNL     1      -0.854   9.850  17.686  0.00  0.00    +0.000 A 
ATOM     18  C   UNL     1      -2.188  10.230  17.487  0.00  0.00    +0.000 A 
ATOM     19  C   UNL     1      -2.756  11.267  18.236  0.00  0.00    +0.000 A 
ATOM     20  C   UNL     1      -1.961  11.927  19.183  0.00  0.00    +0.000 A 
ATOM     21  C   UNL     1      -0.628  11.556  19.376  0.00  0.00    +0.000 A 
BRANCH  19  22
ATOM     22  C   UNL     1      -4.132  11.664  18.002  0.00  0.00    +0.000 A 
ATOM     23  C   UNL     1      -4.828  11.533  16.818  0.00  0.00    +0.000 A 
ATOM     24  N   UNL     1      -6.086  11.998  17.085  0.00  0.00    +0.000 N 
ATOM     25  C   UNL     1      -6.108  12.396  18.392  0.00  0.00    +0.000 A 
ATOM     26  N   UNL     1      -4.938  12.230  18.966  0.00  0.00    +0.000 NA
ATOM     27  H   UNL     1      -6.864  12.034  16.441  0.00  0.00    +0.000 HD
ENDBRANCH  19  22
ENDBRANCH  15  16
ENDBRANCH   3  15
TORSDOF 5
ENDMDL
