MODEL 1
REMARK VINA RESULT:      -9.1      0.000      0.000
REMARK  Name = 
REMARK  4 active torsions:
REMARK  status: ('A' for Active; 'I' for Inactive)
REMARK    1  A    between atoms: C_1  and  C_2
REMARK    2  A    between atoms: C_2  and  C_3
REMARK    3  A    between atoms: C_5  and  N_6
REMARK    4  A    between atoms: C_7  and  C_9
REMARK                            x       y       z     vdW  Elec       q    Type
REMARK                         _______ _______ _______ _____ _____    ______ ____
ROOT
ATOM      1  N   UNL     1       2.166   7.100  18.669  0.00  0.00    +0.000 N 
ATOM      2  C   UNL     1       2.025   8.387  18.187  0.00  0.00    +0.000 C 
ATOM      3  O   UNL     1       2.340   8.739  17.059  0.00  0.00    +0.000 OA
ATOM      4  H   UNL     1       1.750   6.858  19.557  0.00  0.00    +0.000 HD
ENDROOT
BRANCH   1   9
ATOM      5  C   UNL     1       1.617   2.658  19.501  0.00  0.00    +0.000 C 
ATOM      6  C   UNL     1       2.385   3.981  19.359  0.00  0.00    +0.000 C 
ATOM      7  C   UNL     1       2.194   4.773  20.663  0.00  0.00    +0.000 C 
ATOM      8  C   UNL     1       1.883   4.689  18.094  0.00  0.00    +0.000 C 
ATOM      9  C   UNL     1       2.634   5.997  17.839  0.00  0.00    +0.000 C 
ATOM     10  C   UNL     1       4.114   5.772  18.050  0.00  0.00    +0.000 A 
ATOM     11  C   UNL     1       5.045   6.722  17.593  0.00  0.00    +0.000 A 
ATOM     12  C   UNL     1       6.414   6.514  17.772  0.00  0.00    +0.000 A 
ATOM     13  C   UNL     1       6.855   5.356  18.400  0.00  0.00    +0.000 A 
ATOM     14  F   UNL     1       8.168   5.155  18.565  0.00  0.00    +0.000 F 
ATOM     15  C   UNL     1       5.955   4.409  18.867  0.00  0.00    +0.000 A 
ATOM     16  C   UNL     1       4.585   4.624  18.706  0.00  0.00    +0.000 A 
ATOM     17  O   UNL     1       3.775   3.643  19.220  0.00  0.00    +0.000 OA
ENDBRANCH   1   9
BRANCH   2  18
ATOM     18  C   UNL     1       1.382   9.350  19.120  0.00  0.00    +0.000 A 
ATOM     19  C   UNL     1       1.355  10.712  18.786  0.00  0.00    +0.000 A 
ATOM     20  C   UNL     1       0.694  11.626  19.612  0.00  0.00    +0.000 A 
ATOM     21  C   UNL     1       0.082  11.177  20.781  0.00  0.00    +0.000 A 
ATOM     22  C   UNL     1       0.154   9.827  21.140  0.00  0.00    +0.000 A 
ATOM     23  C   UNL     1       0.793   8.913  20.310  0.00  0.00    +0.000 A 
ATOM     24  O   UNL     1      -0.439   9.310  22.260  0.00  0.00    +0.000 OA
ATOM     25  C   UNL     1      -0.756  10.291  23.239  0.00  0.00    +0.000 C 
ATOM     26  C   UNL     1      -1.218  11.661  22.753  0.00  0.00    +0.000 C 
ATOM     27  O   UNL     1      -1.962  12.394  23.397  0.00  0.00    +0.000 OA
ATOM     28  N   UNL     1      -0.652  12.062  21.571  0.00  0.00    +0.000 N 
ATOM     29  H   UNL     1      -0.849  13.006  21.261  0.00  0.00    +0.000 HD
ENDBRANCH   2  18
TORSDOF 2
ENDMDL
MODEL 2
REMARK VINA RESULT:      -8.8      2.646      3.879
REMARK  Name = 
REMARK  4 active torsions:
REMARK  status: ('A' for Active; 'I' for Inactive)
REMARK    1  A    between atoms: C_1  and  C_2
REMARK    2  A    between atoms: C_2  and  C_3
REMARK    3  A    between atoms: C_5  and  N_6
REMARK    4  A    between atoms: C_7  and  C_9
REMARK                            x       y       z     vdW  Elec       q    Type
REMARK                         _______ _______ _______ _____ _____    ______ ____
ROOT
ATOM      1  N   UNL     1       4.052   5.801  17.813  0.00  0.00    +0.000 N 
ATOM      2  C   UNL     1       3.234   6.008  18.907  0.00  0.00    +0.000 C 
ATOM      3  O   UNL     1       3.120   5.225  19.839  0.00  0.00    +0.000 OA
ATOM      4  H   UNL     1       4.201   6.557  17.159  0.00  0.00    +0.000 HD
ENDROOT
BRANCH   1   9
ATOM      5  C   UNL     1       8.355   5.543  19.279  0.00  0.00    +0.000 C 
ATOM      6  C   UNL     1       7.220   5.622  18.247  0.00  0.00    +0.000 C 
ATOM      7  C   UNL     1       6.813   7.099  18.113  0.00  0.00    +0.000 C 
ATOM      8  C   UNL     1       6.096   4.681  18.702  0.00  0.00    +0.000 C 
ATOM      9  C   UNL     1       4.940   4.651  17.701  0.00  0.00    +0.000 C 
ATOM     10  C   UNL     1       5.496   4.551  16.298  0.00  0.00    +0.000 A 
ATOM     11  C   UNL     1       4.653   4.208  15.227  0.00  0.00    +0.000 A 
ATOM     12  C   UNL     1       5.163   4.100  13.931  0.00  0.00    +0.000 A 
ATOM     13  C   UNL     1       6.514   4.329  13.705  0.00  0.00    +0.000 A 
ATOM     14  F   UNL     1       7.002   4.219  12.464  0.00  0.00    +0.000 F 
ATOM     15  C   UNL     1       7.363   4.678  14.745  0.00  0.00    +0.000 A 
ATOM     16  C   UNL     1       6.852   4.805  16.038  0.00  0.00    +0.000 A 
ATOM     17  O   UNL     1       7.764   5.175  16.994  0.00  0.00    +0.000 OA
ENDBRANCH   1   9
BRANCH   2  18
ATOM     18  C   UNL     1       2.519   7.312  18.932  0.00  0.00    +0.000 A 
ATOM     19  C   UNL     1       2.521   8.115  17.783  0.00  0.00    +0.000 A 
ATOM     20  C   UNL     1       1.797   9.310  17.759  0.00  0.00    +0.000 A 
ATOM     21  C   UNL     1       1.091   9.709  18.892  0.00  0.00    +0.000 A 
ATOM     22  C   UNL     1       1.132   8.933  20.056  0.00  0.00    +0.000 A 
ATOM     23  C   UNL     1       1.836   7.733  20.075  0.00  0.00    +0.000 A 
ATOM     24  O   UNL     1       0.450   9.249  21.199  0.00  0.00    +0.000 OA
ATOM     25  C   UNL     1       0.055  10.613  21.267  0.00  0.00    +0.000 C 
ATOM     26  C   UNL     1      -0.363  11.300  19.971  0.00  0.00    +0.000 C 
ATOM     27  O   UNL     1      -1.156  12.235  19.924  0.00  0.00    +0.000 OA
ATOM     28  N   UNL     1       0.298  10.854  18.856  0.00  0.00    +0.000 N 
ATOM     29  H   UNL     1       0.128  11.351  17.989  0.00  0.00    +0.000 HD
ENDBRANCH   2  18
TORSDOF 2
ENDMDL
MODEL 3
REMARK VINA RESULT:      -8.7      1.014      1.473
REMARK  Name = 
REMARK  4 active torsions:
REMARK  status: ('A' for Active; 'I' for Inactive)
REMARK    1  A    between atoms: C_1  and  C_2
REMARK    2  A    between atoms: C_2  and  C_3
REMARK    3  A    between atoms: C_5  and  N_6
REMARK    4  A    between atoms: C_7  and  C_9
REMARK                            x       y       z     vdW  Elec       q    Type
REMARK                         _______ _______ _______ _____ _____    ______ ____
ROOT
ATOM      1  N   UNL     1       2.121   6.867  18.810  0.00  0.00    +0.000 N 
ATOM      2  C   UNL     1       1.897   8.200  18.519  0.00  0.00    +0.000 C 
ATOM      3  O   UNL     1       2.169   8.727  17.450  0.00  0.00    +0.000 OA
ATOM      4  H   UNL     1       1.736   6.478  19.659  0.00  0.00    +0.000 HD
ENDROOT
BRANCH   1   9
ATOM      5  C   UNL     1       1.795   2.329  18.979  0.00  0.00    +0.000 C 
ATOM      6  C   UNL     1       2.497   3.695  19.032  0.00  0.00    +0.000 C 
ATOM      7  C   UNL     1       2.281   4.276  20.439  0.00  0.00    +0.000 C 
ATOM      8  C   UNL     1       1.948   4.557  17.886  0.00  0.00    +0.000 C 
ATOM      9  C   UNL     1       2.632   5.923  17.825  0.00  0.00    +0.000 C 
ATOM     10  C   UNL     1       4.124   5.743  17.996  0.00  0.00    +0.000 A 
ATOM     11  C   UNL     1       5.003   6.795  17.683  0.00  0.00    +0.000 A 
ATOM     12  C   UNL     1       6.383   6.630  17.825  0.00  0.00    +0.000 A 
ATOM     13  C   UNL     1       6.885   5.417  18.275  0.00  0.00    +0.000 A 
ATOM     14  F   UNL     1       8.208   5.258  18.404  0.00  0.00    +0.000 F 
ATOM     15  C   UNL     1       6.037   4.368  18.598  0.00  0.00    +0.000 A 
ATOM     16  C   UNL     1       4.657   4.535  18.475  0.00  0.00    +0.000 A 
ATOM     17  O   UNL     1       3.901   3.451  18.840  0.00  0.00    +0.000 OA
ENDBRANCH   1   9
BRANCH   2  18
ATOM     18  C   UNL     1       1.219   8.981  19.588  0.00  0.00    +0.000 A 
ATOM     19  C   UNL     1       1.083   8.418  20.865  0.00  0.00    +0.000 A 
ATOM     20  C   UNL     1       0.514   9.161  21.904  0.00  0.00    +0.000 A 
ATOM     21  C   UNL     1       0.064  10.456  21.656  0.00  0.00    +0.000 A 
ATOM     22  C   UNL     1       0.152  10.998  20.369  0.00  0.00    +0.000 A 
ATOM     23  C   UNL     1       0.736  10.268  19.338  0.00  0.00    +0.000 A 
ATOM     24  O   UNL     1      -0.251  12.267  20.054  0.00  0.00    +0.000 OA
ATOM     25  C   UNL     1      -1.145  12.831  21.004  0.00  0.00    +0.000 C 
ATOM     26  C   UNL     1      -0.929  12.493  22.476  0.00  0.00    +0.000 C 
ATOM     27  O   UNL     1      -1.255  13.236  23.397  0.00  0.00    +0.000 OA
ATOM     28  N   UNL     1      -0.428  11.238  22.700  0.00  0.00    +0.000 N 
ATOM     29  H   UNL     1      -0.365  10.931  23.663  0.00  0.00    +0.000 HD
ENDBRANCH   2  18
TORSDOF 2
ENDMDL
MODEL 4
REMARK VINA RESULT:      -8.6      3.663      8.384
REMARK  Name = 
REMARK  4 active torsions:
REMARK  status: ('A' for Active; 'I' for Inactive)
REMARK    1  A    between atoms: C_1  and  C_2
REMARK    2  A    between atoms: C_2  and  C_3
REMARK    3  A    between atoms: C_5  and  N_6
REMARK    4  A    between atoms: C_7  and  C_9
REMARK                            x       y       z     vdW  Elec       q    Type
REMARK                         _______ _______ _______ _____ _____    ______ ____
ROOT
ATOM      1  N   UNL     1       0.799   9.643  18.952  0.00  0.00    +0.000 N 
ATOM      2  C   UNL     1       1.786   9.019  18.214  0.00  0.00    +0.000 C 
ATOM      3  O   UNL     1       2.283   9.482  17.198  0.00  0.00    +0.000 OA
ATOM      4  H   UNL     1       0.544   9.264  19.853  0.00  0.00    +0.000 HD
ENDROOT
BRANCH   1   9
ATOM      5  C   UNL     1      -0.212  12.936  21.929  0.00  0.00    +0.000 C 
ATOM      6  C   UNL     1      -0.493  11.848  20.881  0.00  0.00    +0.000 C 
ATOM      7  C   UNL     1      -0.483  10.491  21.604  0.00  0.00    +0.000 C 
ATOM      8  C   UNL     1       0.543  11.990  19.758  0.00  0.00    +0.000 C 
ATOM      9  C   UNL     1       0.306  10.978  18.636  0.00  0.00    +0.000 C 
ATOM     10  C   UNL     1      -1.169  10.929  18.310  0.00  0.00    +0.000 A 
ATOM     11  C   UNL     1      -1.612  10.311  17.126  0.00  0.00    +0.000 A 
ATOM     12  C   UNL     1      -2.972  10.276  16.812  0.00  0.00    +0.000 A 
ATOM     13  C   UNL     1      -3.890  10.861  17.674  0.00  0.00    +0.000 A 
ATOM     14  F   UNL     1      -5.193  10.832  17.368  0.00  0.00    +0.000 F 
ATOM     15  C   UNL     1      -3.478  11.469  18.852  0.00  0.00    +0.000 A 
ATOM     16  C   UNL     1      -2.121  11.489  19.177  0.00  0.00    +0.000 A 
ATOM     17  O   UNL     1      -1.815  12.092  20.371  0.00  0.00    +0.000 OA
ENDBRANCH   1   9
BRANCH   2  18
ATOM     18  C   UNL     1       2.282   7.733  18.771  0.00  0.00    +0.000 A 
ATOM     19  C   UNL     1       1.733   7.248  19.967  0.00  0.00    +0.000 A 
ATOM     20  C   UNL     1       2.134   6.008  20.473  0.00  0.00    +0.000 A 
ATOM     21  C   UNL     1       3.098   5.267  19.792  0.00  0.00    +0.000 A 
ATOM     22  C   UNL     1       3.683   5.774  18.627  0.00  0.00    +0.000 A 
ATOM     23  C   UNL     1       3.272   6.999  18.111  0.00  0.00    +0.000 A 
ATOM     24  O   UNL     1       4.620   5.097  17.895  0.00  0.00    +0.000 OA
ATOM     25  C   UNL     1       5.262   4.056  18.618  0.00  0.00    +0.000 C 
ATOM     26  C   UNL     1       4.429   3.264  19.621  0.00  0.00    +0.000 C 
ATOM     27  O   UNL     1       4.662   2.099  19.928  0.00  0.00    +0.000 OA
ATOM     28  N   UNL     1       3.445   3.992  20.238  0.00  0.00    +0.000 N 
ATOM     29  H   UNL     1       2.933   3.538  20.985  0.00  0.00    +0.000 HD
ENDBRANCH   2  18
TORSDOF 2
ENDMDL
MODEL 5
REMARK VINA RESULT:      -8.1      1.453      1.913
REMARK  Name = 
REMARK  4 active torsions:
REMARK  status: ('A' for Active; 'I' for Inactive)
REMARK    1  A    between atoms: C_1  and  C_2
REMARK    2  A    between atoms: C_2  and  C_3
REMARK    3  A    between atoms: C_5  and  N_6
REMARK    4  A    between atoms: C_7  and  C_9
REMARK                            x       y       z     vdW  Elec       q    Type
REMARK                         _______ _______ _______ _____ _____    ______ ____
ROOT
ATOM      1  N   UNL     1       2.277   7.511  18.698  0.00  0.00    +0.000 N 
ATOM      2  C   UNL     1       1.967   8.742  18.153  0.00  0.00    +0.000 C 
ATOM      3  O   UNL     1       2.059   9.012  16.964  0.00  0.00    +0.000 OA
ATOM      4  H   UNL     1       2.037   7.325  19.662  0.00  0.00    +0.000 HD
ENDROOT
BRANCH   1   9
ATOM      5  C   UNL     1       1.575   3.120  19.674  0.00  0.00    +0.000 C 
ATOM      6  C   UNL     1       2.391   4.405  19.469  0.00  0.00    +0.000 C 
ATOM      7  C   UNL     1       2.279   5.239  20.756  0.00  0.00    +0.000 C 
ATOM      8  C   UNL     1       1.875   5.100  18.202  0.00  0.00    +0.000 C 
ATOM      9  C   UNL     1       2.669   6.367  17.885  0.00  0.00    +0.000 C 
ATOM     10  C   UNL     1       4.146   6.087  18.052  0.00  0.00    +0.000 A 
ATOM     11  C   UNL     1       5.099   6.984  17.538  0.00  0.00    +0.000 A 
ATOM     12  C   UNL     1       6.464   6.723  17.676  0.00  0.00    +0.000 A 
ATOM     13  C   UNL     1       6.878   5.566  18.322  0.00  0.00    +0.000 A 
ATOM     14  F   UNL     1       8.187   5.314  18.448  0.00  0.00    +0.000 F 
ATOM     15  C   UNL     1       5.957   4.670  18.845  0.00  0.00    +0.000 A 
ATOM     16  C   UNL     1       4.592   4.938  18.725  0.00  0.00    +0.000 A 
ATOM     17  O   UNL     1       3.761   4.006  19.292  0.00  0.00    +0.000 OA
ENDBRANCH   1   9
BRANCH   2  18
ATOM     18  C   UNL     1       1.429   9.746  19.110  0.00  0.00    +0.000 A 
ATOM     19  C   UNL     1       0.722   9.306  20.238  0.00  0.00    +0.000 A 
ATOM     20  C   UNL     1       0.270  10.227  21.188  0.00  0.00    +0.000 A 
ATOM     21  C   UNL     1       0.506  11.587  20.993  0.00  0.00    +0.000 A 
ATOM     22  C   UNL     1       1.165  12.029  19.842  0.00  0.00    +0.000 A 
ATOM     23  C   UNL     1       1.634  11.113  18.905  0.00  0.00    +0.000 A 
ATOM     24  O   UNL     1       1.450  13.344  19.592  0.00  0.00    +0.000 OA
ATOM     25  C   UNL     1       0.665  14.251  20.355  0.00  0.00    +0.000 C 
ATOM     26  C   UNL     1       0.305  13.855  21.783  0.00  0.00    +0.000 C 
ATOM     27  O   UNL     1       0.094  14.667  22.679  0.00  0.00    +0.000 OA
ATOM     28  N   UNL     1       0.135  12.508  21.971  0.00  0.00    +0.000 N 
ATOM     29  H   UNL     1      -0.204  12.208  22.878  0.00  0.00    +0.000 HD
ENDBRANCH   2  18
TORSDOF 2
ENDMDL
MODEL 6
REMARK VINA RESULT:      -8.1      3.808      8.147
REMARK  Name = 
REMARK  4 active torsions:
REMARK  status: ('A' for Active; 'I' for Inactive)
REMARK    1  A    between atoms: C_1  and  C_2
REMARK    2  A    between atoms: C_2  and  C_3
REMARK    3  A    between atoms: C_5  and  N_6
REMARK    4  A    between atoms: C_7  and  C_9
REMARK                            x       y       z     vdW  Elec       q    Type
REMARK                         _______ _______ _______ _____ _____    ______ ____
ROOT
ATOM      1  N   UNL     1       0.597   9.802  18.458  0.00  0.00    +0.000 N 
ATOM      2  C   UNL     1       1.880   9.476  18.063  0.00  0.00    +0.000 C 
ATOM      3  O   UNL     1       2.663  10.261  17.548  0.00  0.00    +0.000 OA
ATOM      4  H   UNL     1       0.067   9.138  19.005  0.00  0.00    +0.000 HD
ENDROOT
BRANCH   1   9
ATOM      5  C   UNL     1      -0.302  12.572  21.958  0.00  0.00    +0.000 C 
ATOM      6  C   UNL     1      -0.622  11.653  20.769  0.00  0.00    +0.000 C 
ATOM      7  C   UNL     1      -0.556  10.201  21.270  0.00  0.00    +0.000 C 
ATOM      8  C   UNL     1       0.352  11.990  19.632  0.00  0.00    +0.000 C 
ATOM      9  C   UNL     1       0.071  11.159  18.379  0.00  0.00    +0.000 C 
ATOM     10  C   UNL     1      -1.419  11.129  18.122  0.00  0.00    +0.000 A 
ATOM     11  C   UNL     1      -1.914  10.692  16.881  0.00  0.00    +0.000 A 
ATOM     12  C   UNL     1      -3.288  10.676  16.632  0.00  0.00    +0.000 A 
ATOM     13  C   UNL     1      -4.168  11.101  17.619  0.00  0.00    +0.000 A 
ATOM     14  F   UNL     1      -5.485  11.092  17.377  0.00  0.00    +0.000 F 
ATOM     15  C   UNL     1      -3.704  11.528  18.855  0.00  0.00    +0.000 A 
ATOM     16  C   UNL     1      -2.332  11.527  19.113  0.00  0.00    +0.000 A 
ATOM     17  O   UNL     1      -1.972  11.945  20.368  0.00  0.00    +0.000 OA
ENDBRANCH   1   9
BRANCH   2  18
ATOM     18  C   UNL     1       2.307   8.084  18.365  0.00  0.00    +0.000 A 
ATOM     19  C   UNL     1       3.270   7.471  17.552  0.00  0.00    +0.000 A 
ATOM     20  C   UNL     1       3.738   6.190  17.859  0.00  0.00    +0.000 A 
ATOM     21  C   UNL     1       3.225   5.518  18.966  0.00  0.00    +0.000 A 
ATOM     22  C   UNL     1       2.226   6.108  19.747  0.00  0.00    +0.000 A 
ATOM     23  C   UNL     1       1.773   7.391  19.455  0.00  0.00    +0.000 A 
ATOM     24  O   UNL     1       1.688   5.519  20.859  0.00  0.00    +0.000 OA
ATOM     25  C   UNL     1       1.897   4.114  20.915  0.00  0.00    +0.000 C 
ATOM     26  C   UNL     1       3.219   3.568  20.383  0.00  0.00    +0.000 C 
ATOM     27  O   UNL     1       3.738   2.533  20.790  0.00  0.00    +0.000 OA
ATOM     28  N   UNL     1       3.742   4.276  19.333  0.00  0.00    +0.000 N 
ATOM     29  H   UNL     1       4.564   3.893  18.881  0.00  0.00    +0.000 HD
ENDBRANCH   2  18
TORSDOF 2
ENDMDL
MODEL 7
REMARK VINA RESULT:      -7.9      2.584      4.010
REMARK  Name = 
REMARK  4 active torsions:
REMARK  status: ('A' for Active; 'I' for Inactive)
REMARK    1  A    between atoms: C_1  and  C_2
REMARK    2  A    between atoms: C_2  and  C_3
REMARK    3  A    between atoms: C_5  and  N_6
REMARK    4  A    between atoms: C_7  and  C_9
REMARK                            x       y       z     vdW  Elec       q    Type
REMARK                         _______ _______ _______ _____ _____    ______ ____
ROOT
ATOM      1  N   UNL     1       2.997   6.748  19.471  0.00  0.00    +0.000 N 
ATOM      2  C   UNL     1       2.006   7.399  20.180  0.00  0.00    +0.000 C 
ATOM      3  O   UNL     1       1.460   6.946  21.176  0.00  0.00    +0.000 OA
ATOM      4  H   UNL     1       3.495   7.249  18.749  0.00  0.00    +0.000 HD
ENDROOT
BRANCH   1   9
ATOM      5  C   UNL     1       6.472   4.534  17.534  0.00  0.00    +0.000 C 
ATOM      6  C   UNL     1       5.010   4.792  17.929  0.00  0.00    +0.000 C 
ATOM      7  C   UNL     1       4.427   5.804  16.929  0.00  0.00    +0.000 C 
ATOM      8  C   UNL     1       4.987   5.246  19.395  0.00  0.00    +0.000 C 
ATOM      9  C   UNL     1       3.560   5.473  19.897  0.00  0.00    +0.000 C 
ATOM     10  C   UNL     1       2.681   4.332  19.439  0.00  0.00    +0.000 A 
ATOM     11  C   UNL     1       1.410   4.145  20.011  0.00  0.00    +0.000 A 
ATOM     12  C   UNL     1       0.599   3.084  19.602  0.00  0.00    +0.000 A 
ATOM     13  C   UNL     1       1.057   2.206  18.628  0.00  0.00    +0.000 A 
ATOM     14  F   UNL     1       0.281   1.186  18.243  0.00  0.00    +0.000 F 
ATOM     15  C   UNL     1       2.304   2.376  18.044  0.00  0.00    +0.000 A 
ATOM     16  C   UNL     1       3.109   3.446  18.436  0.00  0.00    +0.000 A 
ATOM     17  O   UNL     1       4.312   3.543  17.786  0.00  0.00    +0.000 OA
ENDBRANCH   1   9
BRANCH   2  18
ATOM     18  C   UNL     1       1.665   8.763  19.694  0.00  0.00    +0.000 A 
ATOM     19  C   UNL     1       1.948   9.106  18.364  0.00  0.00    +0.000 A 
ATOM     20  C   UNL     1       1.572  10.357  17.865  0.00  0.00    +0.000 A 
ATOM     21  C   UNL     1       0.934  11.268  18.705  0.00  0.00    +0.000 A 
ATOM     22  C   UNL     1       0.699  10.945  20.046  0.00  0.00    +0.000 A 
ATOM     23  C   UNL     1       1.054   9.694  20.539  0.00  0.00    +0.000 A 
ATOM     24  O   UNL     1       0.062  11.779  20.924  0.00  0.00    +0.000 OA
ATOM     25  C   UNL     1       0.043  13.137  20.506  0.00  0.00    +0.000 C 
ATOM     26  C   UNL     1      -0.101  13.423  19.014  0.00  0.00    +0.000 C 
ATOM     27  O   UNL     1      -0.612  14.444  18.565  0.00  0.00    +0.000 OA
ATOM     28  N   UNL     1       0.479  12.485  18.200  0.00  0.00    +0.000 N 
ATOM     29  H   UNL     1       0.498  12.684  17.207  0.00  0.00    +0.000 HD
ENDBRANCH   2  18
TORSDOF 2
ENDMDL
MODEL 8
REMARK VINA RESULT:      -7.9      4.200      8.744
REMARK  Name = 
REMARK  4 active torsions:
REMARK  status: ('A' for Active; 'I' for Inactive)
REMARK    1  A    between atoms: C_1  and  C_2
REMARK    2  A    between atoms: C_2  and  C_3
REMARK    3  A    between atoms: C_5  and  N_6
REMARK    4  A    between atoms: C_7  and  C_9
REMARK                            x       y       z     vdW  Elec       q    Type
REMARK                         _______ _______ _______ _____ _____    ______ ____
ROOT
ATOM      1  N   UNL     1      -0.309  10.564  18.552  0.00  0.00    +0.000 N 
ATOM      2  C   UNL     1       1.064  10.412  18.547  0.00  0.00    +0.000 C 
ATOM      3  O   UNL     1       1.853  11.293  18.237  0.00  0.00    +0.000 OA
ATOM      4  H   UNL     1      -0.883   9.839  18.958  0.00  0.00    +0.000 HD
ENDROOT
BRANCH   1   9
ATOM      5  C   UNL     1      -1.233  13.871  21.542  0.00  0.00    +0.000 C 
ATOM      6  C   UNL     1      -1.543  12.721  20.572  0.00  0.00    +0.000 C 
ATOM      7  C   UNL     1      -1.314  11.400  21.324  0.00  0.00    +0.000 C 
ATOM      8  C   UNL     1      -0.678  12.909  19.318  0.00  0.00    +0.000 C 
ATOM      9  C   UNL     1      -0.961  11.837  18.266  0.00  0.00    +0.000 C 
ATOM     10  C   UNL     1      -2.455  11.644  18.138  0.00  0.00    +0.000 A 
ATOM     11  C   UNL     1      -2.986  10.942  17.041  0.00  0.00    +0.000 A 
ATOM     12  C   UNL     1      -4.366  10.773  16.909  0.00  0.00    +0.000 A 
ATOM     13  C   UNL     1      -5.216  11.308  17.868  0.00  0.00    +0.000 A 
ATOM     14  F   UNL     1      -6.539  11.151  17.736  0.00  0.00    +0.000 F 
ATOM     15  C   UNL     1      -4.715  11.997  18.963  0.00  0.00    +0.000 A 
ATOM     16  C   UNL     1      -3.336  12.151  19.107  0.00  0.00    +0.000 A 
ATOM     17  O   UNL     1      -2.937  12.826  20.232  0.00  0.00    +0.000 OA
ENDBRANCH   1   9
BRANCH   2  18
ATOM     18  C   UNL     1       1.561   9.093  19.021  0.00  0.00    +0.000 A 
ATOM     19  C   UNL     1       1.264   8.679  20.327  0.00  0.00    +0.000 A 
ATOM     20  C   UNL     1       1.660   7.413  20.770  0.00  0.00    +0.000 A 
ATOM     21  C   UNL     1       2.370   6.576  19.912  0.00  0.00    +0.000 A 
ATOM     22  C   UNL     1       2.712   7.010  18.627  0.00  0.00    +0.000 A 
ATOM     23  C   UNL     1       2.302   8.261  18.177  0.00  0.00    +0.000 A 
ATOM     24  O   UNL     1       3.390   6.238  17.723  0.00  0.00    +0.000 OA
ATOM     25  C   UNL     1       4.088   5.151  18.316  0.00  0.00    +0.000 C 
ATOM     26  C   UNL     1       3.444   4.455  19.511  0.00  0.00    +0.000 C 
ATOM     27  O   UNL     1       3.638   3.278  19.796  0.00  0.00    +0.000 OA
ATOM     28  N   UNL     1       2.698   5.281  20.311  0.00  0.00    +0.000 N 
ATOM     29  H   UNL     1       2.336   4.886  21.171  0.00  0.00    +0.000 HD
ENDBRANCH   2  18
TORSDOF 2
ENDMDL
MODEL 9
REMARK VINA RESULT:      -7.8      3.449      7.925
REMARK  Name = 
REMARK  4 active torsions:
REMARK  status: ('A' for Active; 'I' for Inactive)
REMARK    1  A    between atoms: C_1  and  C_2
REMARK    2  A    between atoms: C_2  and  C_3
REMARK    3  A    between atoms: C_5  and  N_6
REMARK    4  A    between atoms: C_7  and  C_9
REMARK                            x       y       z     vdW  Elec       q    Type
REMARK                         _______ _______ _______ _____ _____    ______ ____
ROOT
ATOM      1  N   UNL     1       1.344   9.005  19.056  0.00  0.00    +0.000 N 
ATOM      2  C   UNL     1       2.228   8.559  18.093  0.00  0.00    +0.000 C 
ATOM      3  O   UNL     1       2.577   9.214  17.121  0.00  0.00    +0.000 OA
ATOM      4  H   UNL     1       1.220   8.463  19.900  0.00  0.00    +0.000 HD
ENDROOT
BRANCH   1   9
ATOM      5  C   UNL     1      -0.336  11.255  22.640  0.00  0.00    +0.000 C 
ATOM      6  C   UNL     1      -0.379  10.508  21.299  0.00  0.00    +0.000 C 
ATOM      7  C   UNL     1      -0.362   9.001  21.603  0.00  0.00    +0.000 C 
ATOM      8  C   UNL     1       0.790  11.007  20.438  0.00  0.00    +0.000 C 
ATOM      9  C   UNL     1       0.796  10.356  19.055  0.00  0.00    +0.000 C 
ATOM     10  C   UNL     1      -0.611  10.350  18.499  0.00  0.00    +0.000 A 
ATOM     11  C   UNL     1      -0.832  10.086  17.136  0.00  0.00    +0.000 A 
ATOM     12  C   UNL     1      -2.127  10.094  16.614  0.00  0.00    +0.000 A 
ATOM     13  C   UNL     1      -3.201  10.371  17.450  0.00  0.00    +0.000 A 
ATOM     14  F   UNL     1      -4.441  10.385  16.946  0.00  0.00    +0.000 F 
ATOM     15  C   UNL     1      -3.009  10.626  18.800  0.00  0.00    +0.000 A 
ATOM     16  C   UNL     1      -1.717  10.600  19.328  0.00  0.00    +0.000 A 
ATOM     17  O   UNL     1      -1.631  10.842  20.675  0.00  0.00    +0.000 OA
ENDBRANCH   1   9
BRANCH   2  18
ATOM     18  C   UNL     1       2.814   7.214  18.339  0.00  0.00    +0.000 A 
ATOM     19  C   UNL     1       3.824   6.742  17.489  0.00  0.00    +0.000 A 
ATOM     20  C   UNL     1       4.439   5.512  17.742  0.00  0.00    +0.000 A 
ATOM     21  C   UNL     1       4.024   4.749  18.832  0.00  0.00    +0.000 A 
ATOM     22  C   UNL     1       2.980   5.196  19.649  0.00  0.00    +0.000 A 
ATOM     23  C   UNL     1       2.381   6.429  19.410  0.00  0.00    +0.000 A 
ATOM     24  O   UNL     1       2.533   4.512  20.746  0.00  0.00    +0.000 OA
ATOM     25  C   UNL     1       2.899   3.139  20.748  0.00  0.00    +0.000 C 
ATOM     26  C   UNL     1       4.263   2.763  20.177  0.00  0.00    +0.000 C 
ATOM     27  O   UNL     1       4.902   1.780  20.538  0.00  0.00    +0.000 OA
ATOM     28  N   UNL     1       4.684   3.561  19.146  0.00  0.00    +0.000 N 
ATOM     29  H   UNL     1       5.535   3.289  18.668  0.00  0.00    +0.000 HD
ENDBRANCH   2  18
TORSDOF 2
ENDMDL
