MODEL 1
REMARK VINA RESULT:      -9.5      0.000      0.000
REMARK  Name = 
REMARK  3 active torsions:
REMARK  status: ('A' for Active; 'I' for Inactive)
REMARK    1  A    between atoms: C_2  and  C_15
REMARK    2  A    between atoms: N_3  and  C_4
REMARK    3  A    between atoms: N_8  and  C_9
REMARK                            x       y       z     vdW  Elec       q    Type
REMARK                         _______ _______ _______ _____ _____    ______ ____
ROOT
ATOM      1  O   UNL     1       5.884   4.670  19.389  0.00  0.00    +0.000 OA
ATOM      2  C   UNL     1       5.354   4.335  18.344  0.00  0.00    +0.000 C 
ATOM      3  N   UNL     1       3.978   3.915  18.339  0.00  0.00    +0.000 N 
ATOM      4  H   UNL     1       3.590   3.479  17.510  0.00  0.00    +0.000 HD
ENDROOT
BRANCH   2   5
ATOM      5  C   UNL     1       6.043   4.137  17.006  0.00  0.00    +0.000 C 
ATOM      6  C   UNL     1       7.284   5.027  16.809  0.00  0.00    +0.000 C 
ATOM      7  O   UNL     1       7.369   5.726  15.554  0.00  0.00    +0.000 OA
ATOM      8  C   UNL     1       6.956   4.977  14.486  0.00  0.00    +0.000 A 
ATOM      9  C   UNL     1       7.679   5.033  13.298  0.00  0.00    +0.000 A 
ATOM     10  C   UNL     1       7.259   4.268  12.207  0.00  0.00    +0.000 A 
ATOM     11  C   UNL     1       6.112   3.487  12.316  0.00  0.00    +0.000 A 
ATOM     12  F   UNL     1       5.718   2.745  11.274  0.00  0.00    +0.000 F 
ATOM     13  C   UNL     1       5.364   3.462  13.490  0.00  0.00    +0.000 A 
ATOM     14  C   UNL     1       5.789   4.215  14.586  0.00  0.00    +0.000 A 
ATOM     15  C   UNL     1       5.036   4.287  15.874  0.00  0.00    +0.000 C 
ENDBRANCH   2   5
BRANCH   3  16
ATOM     16  C   UNL     1       3.197   3.843  19.489  0.00  0.00    +0.000 A 
ATOM     17  C   UNL     1       2.966   2.741  20.279  0.00  0.00    +0.000 A 
ATOM     18  C   UNL     1       2.367   3.266  21.444  0.00  0.00    +0.000 A 
ATOM     19  N   UNL     1       2.216   4.591  21.396  0.00  0.00    +0.000 NA
ATOM     20  N   UNL     1       2.599   4.923  20.138  0.00  0.00    +0.000 N 
BRANCH  20  21
ATOM     21  C   UNL     1       2.355   6.215  19.602  0.00  0.00    +0.000 A 
ATOM     22  C   UNL     1       2.653   6.483  18.259  0.00  0.00    +0.000 A 
ATOM     23  C   UNL     1       2.400   7.745  17.733  0.00  0.00    +0.000 A 
ATOM     24  C   UNL     1       1.879   8.758  18.537  0.00  0.00    +0.000 A 
ATOM     25  C   UNL     1       1.619   8.511  19.887  0.00  0.00    +0.000 A 
ATOM     26  C   UNL     1       1.856   7.245  20.418  0.00  0.00    +0.000 A 
ENDBRANCH  20  21
ENDBRANCH   3  16
TORSDOF 3
ENDMDL
MODEL 2
REMARK VINA RESULT:      -8.6      4.492      8.390
REMARK  Name = 
REMARK  3 active torsions:
REMARK  status: ('A' for Active; 'I' for Inactive)
REMARK    1  A    between atoms: C_2  and  C_15
REMARK    2  A    between atoms: N_3  and  C_4
REMARK    3  A    between atoms: N_8  and  C_9
REMARK                            x       y       z     vdW  Elec       q    Type
REMARK                         _______ _______ _______ _____ _____    ______ ____
ROOT
ATOM      1  O   UNL     1       2.222   7.650  17.624  0.00  0.00    +0.000 OA
ATOM      2  C   UNL     1       2.271   7.482  18.830  0.00  0.00    +0.000 C 
ATOM      3  N   UNL     1       2.630   6.194  19.362  0.00  0.00    +0.000 N 
ATOM      4  H   UNL     1       2.508   6.009  20.350  0.00  0.00    +0.000 HD
ENDROOT
BRANCH   2   5
ATOM      5  C   UNL     1       1.822   8.464  19.897  0.00  0.00    +0.000 C 
ATOM      6  C   UNL     1       1.154   7.797  21.112  0.00  0.00    +0.000 C 
ATOM      7  O   UNL     1      -0.086   8.381  21.553  0.00  0.00    +0.000 OA
ATOM      8  C   UNL     1      -0.089   9.748  21.504  0.00  0.00    +0.000 A 
ATOM      9  C   UNL     1      -0.665  10.463  22.551  0.00  0.00    +0.000 A 
ATOM     10  C   UNL     1      -0.668  11.859  22.504  0.00  0.00    +0.000 A 
ATOM     11  C   UNL     1      -0.124  12.510  21.401  0.00  0.00    +0.000 A 
ATOM     12  F   UNL     1      -0.117  13.849  21.363  0.00  0.00    +0.000 F 
ATOM     13  C   UNL     1       0.415  11.797  20.334  0.00  0.00    +0.000 A 
ATOM     14  C   UNL     1       0.432  10.402  20.385  0.00  0.00    +0.000 A 
ATOM     15  C   UNL     1       0.950   9.546  19.276  0.00  0.00    +0.000 C 
ENDBRANCH   2   5
BRANCH   3  16
ATOM     16  C   UNL     1       2.908   5.088  18.563  0.00  0.00    +0.000 A 
ATOM     17  C   UNL     1       2.063   4.054  18.237  0.00  0.00    +0.000 A 
ATOM     18  C   UNL     1       2.728   3.374  17.195  0.00  0.00    +0.000 A 
ATOM     19  N   UNL     1       3.907   3.920  16.891  0.00  0.00    +0.000 NA
ATOM     20  N   UNL     1       4.075   4.888  17.826  0.00  0.00    +0.000 N 
BRANCH  20  21
ATOM     21  C   UNL     1       5.323   5.543  18.003  0.00  0.00    +0.000 A 
ATOM     22  C   UNL     1       5.693   6.585  17.142  0.00  0.00    +0.000 A 
ATOM     23  C   UNL     1       6.910   7.234  17.326  0.00  0.00    +0.000 A 
ATOM     24  C   UNL     1       7.779   6.839  18.341  0.00  0.00    +0.000 A 
ATOM     25  C   UNL     1       7.435   5.774  19.176  0.00  0.00    +0.000 A 
ATOM     26  C   UNL     1       6.212   5.127  19.008  0.00  0.00    +0.000 A 
ENDBRANCH  20  21
ENDBRANCH   3  16
TORSDOF 3
ENDMDL
MODEL 3
REMARK VINA RESULT:      -8.5      4.207      7.610
REMARK  Name = 
REMARK  3 active torsions:
REMARK  status: ('A' for Active; 'I' for Inactive)
REMARK    1  A    between atoms: C_2  and  C_15
REMARK    2  A    between atoms: N_3  and  C_4
REMARK    3  A    between atoms: N_8  and  C_9
REMARK                            x       y       z     vdW  Elec       q    Type
REMARK                         _______ _______ _______ _____ _____    ______ ____
ROOT
ATOM      1  O   UNL     1       2.009   5.914  20.572  0.00  0.00    +0.000 OA
ATOM      2  C   UNL     1       2.062   6.788  19.725  0.00  0.00    +0.000 C 
ATOM      3  N   UNL     1       2.473   6.465  18.385  0.00  0.00    +0.000 N 
ATOM      4  H   UNL     1       2.678   7.211  17.730  0.00  0.00    +0.000 HD
ENDROOT
BRANCH   2   5
ATOM      5  C   UNL     1       1.897   8.280  19.956  0.00  0.00    +0.000 C 
ATOM      6  C   UNL     1       0.828   8.631  21.005  0.00  0.00    +0.000 C 
ATOM      7  O   UNL     1      -0.110   9.659  20.634  0.00  0.00    +0.000 OA
ATOM      8  C   UNL     1       0.463  10.694  19.948  0.00  0.00    +0.000 A 
ATOM      9  C   UNL     1       0.077  11.999  20.242  0.00  0.00    +0.000 A 
ATOM     10  C   UNL     1       0.662  13.057  19.543  0.00  0.00    +0.000 A 
ATOM     11  C   UNL     1       1.595  12.790  18.547  0.00  0.00    +0.000 A 
ATOM     12  F   UNL     1       2.164  13.806  17.885  0.00  0.00    +0.000 F 
ATOM     13  C   UNL     1       1.952  11.484  18.221  0.00  0.00    +0.000 A 
ATOM     14  C   UNL     1       1.379  10.425  18.928  0.00  0.00    +0.000 A 
ATOM     15  C   UNL     1       1.664   8.989  18.629  0.00  0.00    +0.000 C 
ENDBRANCH   2   5
BRANCH   3  16
ATOM     16  C   UNL     1       2.849   5.184  17.989  0.00  0.00    +0.000 A 
ATOM     17  C   UNL     1       2.033   4.098  17.777  0.00  0.00    +0.000 A 
ATOM     18  C   UNL     1       2.861   3.161  17.122  0.00  0.00    +0.000 A 
ATOM     19  N   UNL     1       4.106   3.608  16.945  0.00  0.00    +0.000 NA
ATOM     20  N   UNL     1       4.130   4.794  17.601  0.00  0.00    +0.000 N 
BRANCH  20  21
ATOM     21  C   UNL     1       5.348   5.477  17.860  0.00  0.00    +0.000 A 
ATOM     22  C   UNL     1       5.740   6.543  17.039  0.00  0.00    +0.000 A 
ATOM     23  C   UNL     1       6.927   7.219  17.304  0.00  0.00    +0.000 A 
ATOM     24  C   UNL     1       7.747   6.827  18.360  0.00  0.00    +0.000 A 
ATOM     25  C   UNL     1       7.384   5.738  19.156  0.00  0.00    +0.000 A 
ATOM     26  C   UNL     1       6.189   5.065  18.907  0.00  0.00    +0.000 A 
ENDBRANCH  20  21
ENDBRANCH   3  16
TORSDOF 3
ENDMDL
MODEL 4
REMARK VINA RESULT:      -8.4      4.230      7.979
REMARK  Name = 
REMARK  3 active torsions:
REMARK  status: ('A' for Active; 'I' for Inactive)
REMARK    1  A    between atoms: C_2  and  C_15
REMARK    2  A    between atoms: N_3  and  C_4
REMARK    3  A    between atoms: N_8  and  C_9
REMARK                            x       y       z     vdW  Elec       q    Type
REMARK                         _______ _______ _______ _____ _____    ______ ____
ROOT
ATOM      1  O   UNL     1       2.102   6.686  18.082  0.00  0.00    +0.000 OA
ATOM      2  C   UNL     1       2.348   7.105  19.199  0.00  0.00    +0.000 C 
ATOM      3  N   UNL     1       3.037   6.268  20.144  0.00  0.00    +0.000 N 
ATOM      4  H   UNL     1       3.091   6.549  21.116  0.00  0.00    +0.000 HD
ENDROOT
BRANCH   2   5
ATOM      5  C   UNL     1       1.851   8.406  19.804  0.00  0.00    +0.000 C 
ATOM      6  C   UNL     1       1.016   8.216  21.083  0.00  0.00    +0.000 C 
ATOM      7  O   UNL     1      -0.223   8.945  21.144  0.00  0.00    +0.000 OA
ATOM      8  C   UNL     1      -0.134  10.211  20.633  0.00  0.00    +0.000 A 
ATOM      9  C   UNL     1      -0.771  11.256  21.295  0.00  0.00    +0.000 A 
ATOM     10  C   UNL     1      -0.680  12.549  20.775  0.00  0.00    +0.000 A 
ATOM     11  C   UNL     1       0.019  12.766  19.592  0.00  0.00    +0.000 A 
ATOM     12  F   UNL     1       0.116  14.009  19.101  0.00  0.00    +0.000 F 
ATOM     13  C   UNL     1       0.622  11.716  18.905  0.00  0.00    +0.000 A 
ATOM     14  C   UNL     1       0.544  10.425  19.430  0.00  0.00    +0.000 A 
ATOM     15  C   UNL     1       1.121   9.226  18.750  0.00  0.00    +0.000 C 
ENDBRANCH   2   5
BRANCH   3  16
ATOM     16  C   UNL     1       3.430   4.962  19.864  0.00  0.00    +0.000 A 
ATOM     17  C   UNL     1       2.787   3.798  20.214  0.00  0.00    +0.000 A 
ATOM     18  C   UNL     1       3.430   2.800  19.451  0.00  0.00    +0.000 A 
ATOM     19  N   UNL     1       4.412   3.285  18.689  0.00  0.00    +0.000 NA
ATOM     20  N   UNL     1       4.499   4.589  19.050  0.00  0.00    +0.000 N 
BRANCH  20  21
ATOM     21  C   UNL     1       5.591   5.402  18.645  0.00  0.00    +0.000 A 
ATOM     22  C   UNL     1       6.781   5.393  19.384  0.00  0.00    +0.000 A 
ATOM     23  C   UNL     1       7.853   6.181  18.978  0.00  0.00    +0.000 A 
ATOM     24  C   UNL     1       7.746   7.003  17.858  0.00  0.00    +0.000 A 
ATOM     25  C   UNL     1       6.549   7.049  17.140  0.00  0.00    +0.000 A 
ATOM     26  C   UNL     1       5.474   6.253  17.532  0.00  0.00    +0.000 A 
ENDBRANCH  20  21
ENDBRANCH   3  16
TORSDOF 3
ENDMDL
MODEL 5
REMARK VINA RESULT:      -8.4      4.085      7.540
REMARK  Name = 
REMARK  3 active torsions:
REMARK  status: ('A' for Active; 'I' for Inactive)
REMARK    1  A    between atoms: C_2  and  C_15
REMARK    2  A    between atoms: N_3  and  C_4
REMARK    3  A    between atoms: N_8  and  C_9
REMARK                            x       y       z     vdW  Elec       q    Type
REMARK                         _______ _______ _______ _____ _____    ______ ____
ROOT
ATOM      1  O   UNL     1       2.236   5.713  20.783  0.00  0.00    +0.000 OA
ATOM      2  C   UNL     1       2.149   6.552  19.904  0.00  0.00    +0.000 C 
ATOM      3  N   UNL     1       2.405   6.187  18.535  0.00  0.00    +0.000 N 
ATOM      4  H   UNL     1       2.499   6.911  17.833  0.00  0.00    +0.000 HD
ENDROOT
BRANCH   2   5
ATOM      5  C   UNL     1       1.954   8.045  20.097  0.00  0.00    +0.000 C 
ATOM      6  C   UNL     1       0.911   8.400  21.172  0.00  0.00    +0.000 C 
ATOM      7  O   UNL     1      -0.064   9.393  20.804  0.00  0.00    +0.000 OA
ATOM      8  C   UNL     1       0.458  10.421  20.069  0.00  0.00    +0.000 A 
ATOM      9  C   UNL     1       0.049  11.724  20.339  0.00  0.00    +0.000 A 
ATOM     10  C   UNL     1       0.582  12.775  19.590  0.00  0.00    +0.000 A 
ATOM     11  C   UNL     1       1.488  12.502  18.570  0.00  0.00    +0.000 A 
ATOM     12  F   UNL     1       2.008  13.512  17.861  0.00  0.00    +0.000 F 
ATOM     13  C   UNL     1       1.867  11.196  18.270  0.00  0.00    +0.000 A 
ATOM     14  C   UNL     1       1.346  10.145  19.027  0.00  0.00    +0.000 A 
ATOM     15  C   UNL     1       1.658   8.709  18.759  0.00  0.00    +0.000 C 
ENDBRANCH   2   5
BRANCH   3  16
ATOM     16  C   UNL     1       2.781   4.905  18.144  0.00  0.00    +0.000 A 
ATOM     17  C   UNL     1       1.969   3.809  17.966  0.00  0.00    +0.000 A 
ATOM     18  C   UNL     1       2.788   2.872  17.300  0.00  0.00    +0.000 A 
ATOM     19  N   UNL     1       4.024   3.327  17.085  0.00  0.00    +0.000 NA
ATOM     20  N   UNL     1       4.055   4.520  17.727  0.00  0.00    +0.000 N 
BRANCH  20  21
ATOM     21  C   UNL     1       5.274   5.216  17.947  0.00  0.00    +0.000 A 
ATOM     22  C   UNL     1       6.004   4.992  19.121  0.00  0.00    +0.000 A 
ATOM     23  C   UNL     1       7.205   5.665  19.328  0.00  0.00    +0.000 A 
ATOM     24  C   UNL     1       7.674   6.583  18.391  0.00  0.00    +0.000 A 
ATOM     25  C   UNL     1       6.930   6.843  17.238  0.00  0.00    +0.000 A 
ATOM     26  C   UNL     1       5.733   6.163  17.017  0.00  0.00    +0.000 A 
ENDBRANCH  20  21
ENDBRANCH   3  16
TORSDOF 3
ENDMDL
MODEL 6
REMARK VINA RESULT:      -8.3      4.549      8.704
REMARK  Name = 
REMARK  3 active torsions:
REMARK  status: ('A' for Active; 'I' for Inactive)
REMARK    1  A    between atoms: C_2  and  C_15
REMARK    2  A    between atoms: N_3  and  C_4
REMARK    3  A    between atoms: N_8  and  C_9
REMARK                            x       y       z     vdW  Elec       q    Type
REMARK                         _______ _______ _______ _____ _____    ______ ____
ROOT
ATOM      1  O   UNL     1       1.449   8.093  17.439  0.00  0.00    +0.000 OA
ATOM      2  C   UNL     1       2.046   8.220  18.493  0.00  0.00    +0.000 C 
ATOM      3  N   UNL     1       3.240   7.456  18.739  0.00  0.00    +0.000 N 
ATOM      4  H   UNL     1       3.638   7.434  19.670  0.00  0.00    +0.000 HD
ENDROOT
BRANCH   2   5
ATOM      5  C   UNL     1       1.577   9.001  19.708  0.00  0.00    +0.000 C 
ATOM      6  C   UNL     1       1.299   8.122  20.941  0.00  0.00    +0.000 C 
ATOM      7  O   UNL     1       0.055   8.364  21.623  0.00  0.00    +0.000 OA
ATOM      8  C   UNL     1      -0.268   9.690  21.710  0.00  0.00    +0.000 A 
ATOM      9  C   UNL     1      -0.801  10.182  22.898  0.00  0.00    +0.000 A 
ATOM     10  C   UNL     1      -1.130  11.536  22.988  0.00  0.00    +0.000 A 
ATOM     11  C   UNL     1      -0.949  12.363  21.884  0.00  0.00    +0.000 A 
ATOM     12  F   UNL     1      -1.254  13.664  21.976  0.00  0.00    +0.000 F 
ATOM     13  C   UNL     1      -0.455  11.864  20.681  0.00  0.00    +0.000 A 
ATOM     14  C   UNL     1      -0.112  10.514  20.593  0.00  0.00    +0.000 A 
ATOM     15  C   UNL     1       0.387   9.875  19.338  0.00  0.00    +0.000 C 
ENDBRANCH   2   5
BRANCH   3  16
ATOM     16  C   UNL     1       3.758   6.535  17.831  0.00  0.00    +0.000 A 
ATOM     17  C   UNL     1       4.589   6.784  16.765  0.00  0.00    +0.000 A 
ATOM     18  C   UNL     1       5.037   5.507  16.366  0.00  0.00    +0.000 A 
ATOM     19  N   UNL     1       4.523   4.524  17.107  0.00  0.00    +0.000 NA
ATOM     20  N   UNL     1       3.632   5.149  17.915  0.00  0.00    +0.000 N 
BRANCH  20  21
ATOM     21  C   UNL     1       2.692   4.420  18.691  0.00  0.00    +0.000 A 
ATOM     22  C   UNL     1       1.777   3.566  18.060  0.00  0.00    +0.000 A 
ATOM     23  C   UNL     1       0.866   2.843  18.824  0.00  0.00    +0.000 A 
ATOM     24  C   UNL     1       0.834   2.982  20.210  0.00  0.00    +0.000 A 
ATOM     25  C   UNL     1       1.714   3.863  20.842  0.00  0.00    +0.000 A 
ATOM     26  C   UNL     1       2.639   4.580  20.086  0.00  0.00    +0.000 A 
ENDBRANCH  20  21
ENDBRANCH   3  16
TORSDOF 3
ENDMDL
MODEL 7
REMARK VINA RESULT:      -8.3      3.519      7.274
REMARK  Name = 
REMARK  3 active torsions:
REMARK  status: ('A' for Active; 'I' for Inactive)
REMARK    1  A    between atoms: C_2  and  C_15
REMARK    2  A    between atoms: N_3  and  C_4
REMARK    3  A    between atoms: N_8  and  C_9
REMARK                            x       y       z     vdW  Elec       q    Type
REMARK                         _______ _______ _______ _____ _____    ______ ____
ROOT
ATOM      1  O   UNL     1       1.984   5.925  17.899  0.00  0.00    +0.000 OA
ATOM      2  C   UNL     1       2.538   6.467  18.838  0.00  0.00    +0.000 C 
ATOM      3  N   UNL     1       3.309   5.684  19.767  0.00  0.00    +0.000 N 
ATOM      4  H   UNL     1       3.625   6.104  20.634  0.00  0.00    +0.000 HD
ENDROOT
BRANCH   2   5
ATOM      5  C   UNL     1       2.377   7.915  19.267  0.00  0.00    +0.000 C 
ATOM      6  C   UNL     1       1.473   8.100  20.499  0.00  0.00    +0.000 C 
ATOM      7  O   UNL     1       0.467   9.124  20.398  0.00  0.00    +0.000 OA
ATOM      8  C   UNL     1       0.905  10.254  19.763  0.00  0.00    +0.000 A 
ATOM      9  C   UNL     1       0.539  11.499  20.265  0.00  0.00    +0.000 A 
ATOM     10  C   UNL     1       0.986  12.654  19.619  0.00  0.00    +0.000 A 
ATOM     11  C   UNL     1       1.761  12.541  18.469  0.00  0.00    +0.000 A 
ATOM     12  F   UNL     1       2.199  13.649  17.857  0.00  0.00    +0.000 F 
ATOM     13  C   UNL     1       2.093  11.296  17.941  0.00  0.00    +0.000 A 
ATOM     14  C   UNL     1       1.660  10.141  18.593  0.00  0.00    +0.000 A 
ATOM     15  C   UNL     1       1.928   8.762  18.085  0.00  0.00    +0.000 C 
ENDBRANCH   2   5
BRANCH   3  16
ATOM     16  C   UNL     1       3.445   4.302  19.672  0.00  0.00    +0.000 A 
ATOM     17  C   UNL     1       2.857   3.344  20.464  0.00  0.00    +0.000 A 
ATOM     18  C   UNL     1       3.084   2.134  19.775  0.00  0.00    +0.000 A 
ATOM     19  N   UNL     1       3.774   2.303  18.646  0.00  0.00    +0.000 NA
ATOM     20  N   UNL     1       4.112   3.616  18.658  0.00  0.00    +0.000 N 
BRANCH  20  21
ATOM     21  C   UNL     1       5.063   4.148  17.747  0.00  0.00    +0.000 A 
ATOM     22  C   UNL     1       4.772   4.190  16.377  0.00  0.00    +0.000 A 
ATOM     23  C   UNL     1       5.700   4.724  15.489  0.00  0.00    +0.000 A 
ATOM     24  C   UNL     1       6.931   5.192  15.945  0.00  0.00    +0.000 A 
ATOM     25  C   UNL     1       7.246   5.114  17.303  0.00  0.00    +0.000 A 
ATOM     26  C   UNL     1       6.316   4.594  18.201  0.00  0.00    +0.000 A 
ENDBRANCH  20  21
ENDBRANCH   3  16
TORSDOF 3
ENDMDL
MODEL 8
REMARK VINA RESULT:      -8.1      4.408      7.858
REMARK  Name = 
REMARK  3 active torsions:
REMARK  status: ('A' for Active; 'I' for Inactive)
REMARK    1  A    between atoms: C_2  and  C_15
REMARK    2  A    between atoms: N_3  and  C_4
REMARK    3  A    between atoms: N_8  and  C_9
REMARK                            x       y       z     vdW  Elec       q    Type
REMARK                         _______ _______ _______ _____ _____    ______ ____
ROOT
ATOM      1  O   UNL     1       2.076   5.638  17.916  0.00  0.00    +0.000 OA
ATOM      2  C   UNL     1       2.212   6.303  18.928  0.00  0.00    +0.000 C 
ATOM      3  N   UNL     1       3.082   5.844  19.977  0.00  0.00    +0.000 N 
ATOM      4  H   UNL     1       3.065   6.305  20.879  0.00  0.00    +0.000 HD
ENDROOT
BRANCH   2   5
ATOM      5  C   UNL     1       1.413   7.536  19.311  0.00  0.00    +0.000 C 
ATOM      6  C   UNL     1       1.685   8.756  18.412  0.00  0.00    +0.000 C 
ATOM      7  O   UNL     1       1.929  10.001  19.092  0.00  0.00    +0.000 OA
ATOM      8  C   UNL     1       1.127  10.190  20.183  0.00  0.00    +0.000 A 
ATOM      9  C   UNL     1       0.582  11.449  20.415  0.00  0.00    +0.000 A 
ATOM     10  C   UNL     1      -0.238  11.644  21.528  0.00  0.00    +0.000 A 
ATOM     11  C   UNL     1      -0.473  10.587  22.402  0.00  0.00    +0.000 A 
ATOM     12  F   UNL     1      -1.269  10.771  23.463  0.00  0.00    +0.000 F 
ATOM     13  C   UNL     1       0.105   9.337  22.196  0.00  0.00    +0.000 A 
ATOM     14  C   UNL     1       0.914   9.136  21.076  0.00  0.00    +0.000 A 
ATOM     15  C   UNL     1       1.612   7.847  20.788  0.00  0.00    +0.000 C 
ENDBRANCH   2   5
BRANCH   3  16
ATOM     16  C   UNL     1       3.781   4.641  19.919  0.00  0.00    +0.000 A 
ATOM     17  C   UNL     1       3.404   3.426  20.439  0.00  0.00    +0.000 A 
ATOM     18  C   UNL     1       4.303   2.505  19.860  0.00  0.00    +0.000 A 
ATOM     19  N   UNL     1       5.190   3.086  19.051  0.00  0.00    +0.000 NA
ATOM     20  N   UNL     1       4.953   4.413  19.198  0.00  0.00    +0.000 N 
BRANCH  20  21
ATOM     21  C   UNL     1       5.850   5.390  18.691  0.00  0.00    +0.000 A 
ATOM     22  C   UNL     1       7.089   5.592  19.312  0.00  0.00    +0.000 A 
ATOM     23  C   UNL     1       7.971   6.540  18.804  0.00  0.00    +0.000 A 
ATOM     24  C   UNL     1       7.622   7.315  17.700  0.00  0.00    +0.000 A 
ATOM     25  C   UNL     1       6.371   7.150  17.102  0.00  0.00    +0.000 A 
ATOM     26  C   UNL     1       5.487   6.192  17.595  0.00  0.00    +0.000 A 
ENDBRANCH  20  21
ENDBRANCH   3  16
TORSDOF 3
ENDMDL
MODEL 9
REMARK VINA RESULT:      -8.0      1.208      2.980
REMARK  Name = 
REMARK  3 active torsions:
REMARK  status: ('A' for Active; 'I' for Inactive)
REMARK    1  A    between atoms: C_2  and  C_15
REMARK    2  A    between atoms: N_3  and  C_4
REMARK    3  A    between atoms: N_8  and  C_9
REMARK                            x       y       z     vdW  Elec       q    Type
REMARK                         _______ _______ _______ _____ _____    ______ ____
ROOT
ATOM      1  O   UNL     1       5.416   5.099  19.174  0.00  0.00    +0.000 OA
ATOM      2  C   UNL     1       5.119   5.348  18.019  0.00  0.00    +0.000 C 
ATOM      3  N   UNL     1       3.953   6.141  17.734  0.00  0.00    +0.000 N 
ATOM      4  H   UNL     1       3.612   6.206  16.782  0.00  0.00    +0.000 HD
ENDROOT
BRANCH   2   5
ATOM      5  C   UNL     1       5.762   4.763  16.774  0.00  0.00    +0.000 C 
ATOM      6  C   UNL     1       7.178   5.299  16.497  0.00  0.00    +0.000 C 
ATOM      7  O   UNL     1       7.441   5.724  15.147  0.00  0.00    +0.000 OA
ATOM      8  C   UNL     1       6.880   4.909  14.203  0.00  0.00    +0.000 A 
ATOM      9  C   UNL     1       7.612   4.586  13.064  0.00  0.00    +0.000 A 
ATOM     10  C   UNL     1       7.042   3.753  12.099  0.00  0.00    +0.000 A 
ATOM     11  C   UNL     1       5.744   3.285  12.276  0.00  0.00    +0.000 A 
ATOM     12  F   UNL     1       5.202   2.477  11.356  0.00  0.00    +0.000 F 
ATOM     13  C   UNL     1       4.994   3.640  13.394  0.00  0.00    +0.000 A 
ATOM     14  C   UNL     1       5.567   4.461  14.367  0.00  0.00    +0.000 A 
ATOM     15  C   UNL     1       4.833   4.932  15.580  0.00  0.00    +0.000 C 
ENDBRANCH   2   5
BRANCH   3  16
ATOM     16  C   UNL     1       3.104   6.636  18.721  0.00  0.00    +0.000 A 
ATOM     17  C   UNL     1       2.984   7.936  19.150  0.00  0.00    +0.000 A 
ATOM     18  C   UNL     1       1.810   7.938  19.933  0.00  0.00    +0.000 A 
ATOM     19  N   UNL     1       1.237   6.736  20.009  0.00  0.00    +0.000 NA
ATOM     20  N   UNL     1       2.110   5.912  19.379  0.00  0.00    +0.000 N 
BRANCH  20  21
ATOM     21  C   UNL     1       1.989   4.499  19.456  0.00  0.00    +0.000 A 
ATOM     22  C   UNL     1       1.655   3.763  18.311  0.00  0.00    +0.000 A 
ATOM     23  C   UNL     1       1.550   2.378  18.386  0.00  0.00    +0.000 A 
ATOM     24  C   UNL     1       1.745   1.716  19.597  0.00  0.00    +0.000 A 
ATOM     25  C   UNL     1       2.036   2.446  20.751  0.00  0.00    +0.000 A 
ATOM     26  C   UNL     1       2.158   3.833  20.681  0.00  0.00    +0.000 A 
ENDBRANCH  20  21
ENDBRANCH   3  16
TORSDOF 3
ENDMDL
