MODEL 1
REMARK VINA RESULT:      -9.3      0.000      0.000
REMARK  Name = 
REMARK  6 active torsions:
REMARK  status: ('A' for Active; 'I' for Inactive)
REMARK    1  A    between atoms: C_1  and  C_2
REMARK    2  A    between atoms: C_4  and  C_5
REMARK    3  A    between atoms: C_7  and  C_8
REMARK    4  A    between atoms: C_10  and  N_11
REMARK    5  A    between atoms: N_11  and  S_12
REMARK    6  A    between atoms: S_12  and  C_15
REMARK                            x       y       z     vdW  Elec       q    Type
REMARK                         _______ _______ _______ _____ _____    ______ ____
ROOT
ATOM      1  S   UNL     1       6.874   5.810  18.378  0.00  0.00    +0.000 S 
ATOM      2  O   UNL     1       7.308   5.499  19.726  0.00  0.00    +0.000 OA
ATOM      3  O   UNL     1       7.068   7.142  17.848  0.00  0.00    +0.000 OA
ENDROOT
BRANCH   1   4
ATOM      4  C   UNL     1       5.124   5.476  18.285  0.00  0.00    +0.000 A 
ATOM      5  C   UNL     1       4.265   6.478  17.760  0.00  0.00    +0.000 A 
ATOM      6  C   UNL     1       2.869   6.306  17.714  0.00  0.00    +0.000 A 
ATOM      7  C   UNL     1       2.402   5.109  18.221  0.00  0.00    +0.000 A 
ATOM      8  C   UNL     1       3.249   4.146  18.721  0.00  0.00    +0.000 A 
ATOM      9  C   UNL     1       2.484   3.074  19.154  0.00  0.00    +0.000 A 
ATOM     10  C   UNL     1       3.106   1.958  19.703  0.00  0.00    +0.000 A 
ATOM     11  C   UNL     1       4.507   1.991  19.776  0.00  0.00    +0.000 A 
ATOM     12  C   UNL     1       5.253   3.100  19.322  0.00  0.00    +0.000 A 
ATOM     13  C   UNL     1       4.609   4.242  18.776  0.00  0.00    +0.000 A 
ATOM     14  C   UNL     1       1.077   3.351  18.928  0.00  0.00    +0.000 C 
ATOM     15  O   UNL     1       0.062   2.711  19.158  0.00  0.00    +0.000 OA
ATOM     16  N   UNL     1       1.111   4.627  18.349  0.00  0.00    +0.000 N 
ATOM     17  H   UNL     1       0.266   5.102  18.064  0.00  0.00    +0.000 HD
ENDBRANCH   1   4
BRANCH   1  18
ATOM     18  N   UNL     1       7.537   4.731  17.347  0.00  0.00    +0.000 N 
ATOM     19  H   UNL     1       7.847   3.875  17.779  0.00  0.00    +0.000 HD
BRANCH  18  22
ATOM     20  C   UNL     1       6.510   4.208  13.981  0.00  0.00    +0.000 A 
ATOM     21  C   UNL     1       6.502   3.815  15.347  0.00  0.00    +0.000 A 
ATOM     22  C   UNL     1       7.266   4.745  15.998  0.00  0.00    +0.000 A 
ATOM     23  N   UNL     1       7.660   5.648  15.052  0.00  0.00    +0.000 N 
ATOM     24  N   UNL     1       7.197   5.354  13.826  0.00  0.00    +0.000 NA
ATOM     25  H   UNL     1       8.240   6.475  15.159  0.00  0.00    +0.000 HD
BRANCH  20  32
ATOM     26  C   UNL     1       6.265   0.159  11.079  0.00  0.00    +0.000 C 
ATOM     27  C   UNL     1       5.751   1.520  11.444  0.00  0.00    +0.000 A 
ATOM     28  C   UNL     1       4.705   2.115  10.731  0.00  0.00    +0.000 A 
ATOM     29  C   UNL     1       4.244   3.393  11.070  0.00  0.00    +0.000 A 
ATOM     30  C   UNL     1       3.124   4.034  10.302  0.00  0.00    +0.000 C 
ATOM     31  C   UNL     1       4.840   4.080  12.138  0.00  0.00    +0.000 A 
ATOM     32  C   UNL     1       5.885   3.500  12.866  0.00  0.00    +0.000 A 
ATOM     33  C   UNL     1       6.333   2.218  12.510  0.00  0.00    +0.000 A 
ENDBRANCH  20  32
ENDBRANCH  18  22
ENDBRANCH   1  18
TORSDOF 4
ENDMDL
MODEL 2
REMARK VINA RESULT:      -9.2      4.672      7.380
REMARK  Name = 
REMARK  6 active torsions:
REMARK  status: ('A' for Active; 'I' for Inactive)
REMARK    1  A    between atoms: C_1  and  C_2
REMARK    2  A    between atoms: C_4  and  C_5
REMARK    3  A    between atoms: C_7  and  C_8
REMARK    4  A    between atoms: C_10  and  N_11
REMARK    5  A    between atoms: N_11  and  S_12
REMARK    6  A    between atoms: S_12  and  C_15
REMARK                            x       y       z     vdW  Elec       q    Type
REMARK                         _______ _______ _______ _____ _____    ______ ____
ROOT
ATOM      1  S   UNL     1       5.854   5.612  16.380  0.00  0.00    +0.000 S 
ATOM      2  O   UNL     1       5.333   5.290  15.065  0.00  0.00    +0.000 OA
ATOM      3  O   UNL     1       6.953   4.847  16.927  0.00  0.00    +0.000 OA
ENDROOT
BRANCH   1   4
ATOM      4  C   UNL     1       4.508   5.471  17.542  0.00  0.00    +0.000 A 
ATOM      5  C   UNL     1       3.991   6.653  18.134  0.00  0.00    +0.000 A 
ATOM      6  C   UNL     1       2.972   6.610  19.104  0.00  0.00    +0.000 A 
ATOM      7  C   UNL     1       2.527   5.347  19.442  0.00  0.00    +0.000 A 
ATOM      8  C   UNL     1       3.035   4.211  18.853  0.00  0.00    +0.000 A 
ATOM      9  C   UNL     1       2.394   3.111  19.401  0.00  0.00    +0.000 A 
ATOM     10  C   UNL     1       2.727   1.832  18.970  0.00  0.00    +0.000 A 
ATOM     11  C   UNL     1       3.712   1.739  17.975  0.00  0.00    +0.000 A 
ATOM     12  C   UNL     1       4.342   2.882  17.439  0.00  0.00    +0.000 A 
ATOM     13  C   UNL     1       4.007   4.185  17.895  0.00  0.00    +0.000 A 
ATOM     14  C   UNL     1       1.426   3.548  20.390  0.00  0.00    +0.000 C 
ATOM     15  O   UNL     1       0.655   2.940  21.118  0.00  0.00    +0.000 OA
ATOM     16  N   UNL     1       1.569   4.943  20.355  0.00  0.00    +0.000 N 
ATOM     17  H   UNL     1       1.011   5.547  20.941  0.00  0.00    +0.000 HD
ENDBRANCH   1   4
BRANCH   1  18
ATOM     18  N   UNL     1       6.245   7.197  16.419  0.00  0.00    +0.000 N 
ATOM     19  H   UNL     1       5.545   7.811  16.032  0.00  0.00    +0.000 HD
BRANCH  18  22
ATOM     20  C   UNL     1       8.510   9.078  18.416  0.00  0.00    +0.000 A 
ATOM     21  C   UNL     1       7.532   9.019  17.388  0.00  0.00    +0.000 A 
ATOM     22  C   UNL     1       7.166   7.703  17.308  0.00  0.00    +0.000 A 
ATOM     23  N   UNL     1       7.876   7.048  18.274  0.00  0.00    +0.000 N 
ATOM     24  N   UNL     1       8.683   7.865  18.971  0.00  0.00    +0.000 NA
ATOM     25  H   UNL     1       7.872   6.061  18.513  0.00  0.00    +0.000 HD
BRANCH  20  32
ATOM     26  C   UNL     1       9.629  12.379  21.985  0.00  0.00    +0.000 C 
ATOM     27  C   UNL     1       9.818  11.876  20.584  0.00  0.00    +0.000 A 
ATOM     28  C   UNL     1      10.678  12.524  19.692  0.00  0.00    +0.000 A 
ATOM     29  C   UNL     1      10.835  12.057  18.381  0.00  0.00    +0.000 A 
ATOM     30  C   UNL     1      11.755  12.754  17.422  0.00  0.00    +0.000 C 
ATOM     31  C   UNL     1      10.119  10.924  17.964  0.00  0.00    +0.000 A 
ATOM     32  C   UNL     1       9.257  10.259  18.843  0.00  0.00    +0.000 A 
ATOM     33  C   UNL     1       9.114  10.745  20.153  0.00  0.00    +0.000 A 
ENDBRANCH  20  32
ENDBRANCH  18  22
ENDBRANCH   1  18
TORSDOF 4
ENDMDL
MODEL 3
REMARK VINA RESULT:      -9.2      6.999      9.257
REMARK  Name = 
REMARK  6 active torsions:
REMARK  status: ('A' for Active; 'I' for Inactive)
REMARK    1  A    between atoms: C_1  and  C_2
REMARK    2  A    between atoms: C_4  and  C_5
REMARK    3  A    between atoms: C_7  and  C_8
REMARK    4  A    between atoms: C_10  and  N_11
REMARK    5  A    between atoms: N_11  and  S_12
REMARK    6  A    between atoms: S_12  and  C_15
REMARK                            x       y       z     vdW  Elec       q    Type
REMARK                         _______ _______ _______ _____ _____    ______ ____
ROOT
ATOM      1  S   UNL     1      -0.222  11.281  19.376  0.00  0.00    +0.000 S 
ATOM      2  O   UNL     1      -0.312  10.485  20.584  0.00  0.00    +0.000 OA
ATOM      3  O   UNL     1       0.160  12.675  19.457  0.00  0.00    +0.000 OA
ENDROOT
BRANCH   1   4
ATOM      4  C   UNL     1      -1.818  11.238  18.581  0.00  0.00    +0.000 A 
ATOM      5  C   UNL     1      -1.944  10.561  17.339  0.00  0.00    +0.000 A 
ATOM      6  C   UNL     1      -3.158  10.540  16.628  0.00  0.00    +0.000 A 
ATOM      7  C   UNL     1      -4.203  11.227  17.216  0.00  0.00    +0.000 A 
ATOM      8  C   UNL     1      -4.065  11.872  18.423  0.00  0.00    +0.000 A 
ATOM      9  C   UNL     1      -5.277  12.467  18.742  0.00  0.00    +0.000 A 
ATOM     10  C   UNL     1      -5.405  13.185  19.925  0.00  0.00    +0.000 A 
ATOM     11  C   UNL     1      -4.268  13.254  20.745  0.00  0.00    +0.000 A 
ATOM     12  C   UNL     1      -3.051  12.634  20.389  0.00  0.00    +0.000 A 
ATOM     13  C   UNL     1      -2.924  11.915  19.171  0.00  0.00    +0.000 A 
ATOM     14  C   UNL     1      -6.246  12.197  17.695  0.00  0.00    +0.000 C 
ATOM     15  O   UNL     1      -7.414  12.522  17.548  0.00  0.00    +0.000 OA
ATOM     16  N   UNL     1      -5.504  11.426  16.790  0.00  0.00    +0.000 N 
ATOM     17  H   UNL     1      -5.914  11.068  15.939  0.00  0.00    +0.000 HD
ENDBRANCH   1   4
BRANCH   1  18
ATOM     18  N   UNL     1       0.766  10.526  18.317  0.00  0.00    +0.000 N 
ATOM     19  H   UNL     1       1.179  11.131  17.625  0.00  0.00    +0.000 HD
BRANCH  18  22
ATOM     20  C   UNL     1       2.432   7.384  18.424  0.00  0.00    +0.000 A 
ATOM     21  C   UNL     1       1.962   8.505  17.687  0.00  0.00    +0.000 A 
ATOM     22  C   UNL     1       1.373   9.326  18.610  0.00  0.00    +0.000 A 
ATOM     23  N   UNL     1       1.533   8.718  19.822  0.00  0.00    +0.000 N 
ATOM     24  N   UNL     1       2.190   7.549  19.736  0.00  0.00    +0.000 NA
ATOM     25  H   UNL     1       1.224   9.027  20.739  0.00  0.00    +0.000 HD
BRANCH  20  32
ATOM     26  C   UNL     1       2.412   2.450  17.693  0.00  0.00    +0.000 C 
ATOM     27  C   UNL     1       3.080   3.781  17.509  0.00  0.00    +0.000 A 
ATOM     28  C   UNL     1       4.306   3.891  16.846  0.00  0.00    +0.000 A 
ATOM     29  C   UNL     1       4.929   5.136  16.695  0.00  0.00    +0.000 A 
ATOM     30  C   UNL     1       6.247   5.254  15.986  0.00  0.00    +0.000 C 
ATOM     31  C   UNL     1       4.312   6.283  17.216  0.00  0.00    +0.000 A 
ATOM     32  C   UNL     1       3.082   6.194  17.880  0.00  0.00    +0.000 A 
ATOM     33  C   UNL     1       2.475   4.936  18.020  0.00  0.00    +0.000 A 
ENDBRANCH  20  32
ENDBRANCH  18  22
ENDBRANCH   1  18
TORSDOF 4
ENDMDL
MODEL 4
REMARK VINA RESULT:      -9.2      4.591      7.288
REMARK  Name = 
REMARK  6 active torsions:
REMARK  status: ('A' for Active; 'I' for Inactive)
REMARK    1  A    between atoms: C_1  and  C_2
REMARK    2  A    between atoms: C_4  and  C_5
REMARK    3  A    between atoms: C_7  and  C_8
REMARK    4  A    between atoms: C_10  and  N_11
REMARK    5  A    between atoms: N_11  and  S_12
REMARK    6  A    between atoms: S_12  and  C_15
REMARK                            x       y       z     vdW  Elec       q    Type
REMARK                         _______ _______ _______ _____ _____    ______ ____
ROOT
ATOM      1  S   UNL     1       5.947   5.274  16.479  0.00  0.00    +0.000 S 
ATOM      2  O   UNL     1       5.385   4.878  15.202  0.00  0.00    +0.000 OA
ATOM      3  O   UNL     1       7.052   4.528  17.043  0.00  0.00    +0.000 OA
ENDROOT
BRANCH   1   4
ATOM      4  C   UNL     1       4.633   5.224  17.685  0.00  0.00    +0.000 A 
ATOM      5  C   UNL     1       4.220   6.438  18.294  0.00  0.00    +0.000 A 
ATOM      6  C   UNL     1       3.233   6.463  19.297  0.00  0.00    +0.000 A 
ATOM      7  C   UNL     1       2.710   5.234  19.647  0.00  0.00    +0.000 A 
ATOM      8  C   UNL     1       3.118   4.067  19.042  0.00  0.00    +0.000 A 
ATOM      9  C   UNL     1       2.418   3.013  19.609  0.00  0.00    +0.000 A 
ATOM     10  C   UNL     1       2.646   1.715  19.167  0.00  0.00    +0.000 A 
ATOM     11  C   UNL     1       3.589   1.556  18.140  0.00  0.00    +0.000 A 
ATOM     12  C   UNL     1       4.281   2.654  17.584  0.00  0.00    +0.000 A 
ATOM     13  C   UNL     1       4.054   3.975  18.053  0.00  0.00    +0.000 A 
ATOM     14  C   UNL     1       1.516   3.515  20.629  0.00  0.00    +0.000 C 
ATOM     15  O   UNL     1       0.728   2.961  21.381  0.00  0.00    +0.000 OA
ATOM     16  N   UNL     1       1.757   4.896  20.591  0.00  0.00    +0.000 N 
ATOM     17  H   UNL     1       1.262   5.536  21.195  0.00  0.00    +0.000 HD
ENDBRANCH   1   4
BRANCH   1  18
ATOM     18  N   UNL     1       6.358   6.852  16.409  0.00  0.00    +0.000 N 
ATOM     19  H   UNL     1       5.701   7.435  15.915  0.00  0.00    +0.000 HD
BRANCH  18  22
ATOM     20  C   UNL     1       8.453   8.895  18.432  0.00  0.00    +0.000 A 
ATOM     21  C   UNL     1       7.531   8.758  17.361  0.00  0.00    +0.000 A 
ATOM     22  C   UNL     1       7.216   7.428  17.319  0.00  0.00    +0.000 A 
ATOM     23  N   UNL     1       7.898   6.839  18.345  0.00  0.00    +0.000 N 
ATOM     24  N   UNL     1       8.640   7.713  19.046  0.00  0.00    +0.000 NA
ATOM     25  H   UNL     1       7.917   5.864  18.625  0.00  0.00    +0.000 HD
BRANCH  20  32
ATOM     26  C   UNL     1      11.363  12.775  17.264  0.00  0.00    +0.000 C 
ATOM     27  C   UNL     1      10.553  12.027  18.282  0.00  0.00    +0.000 A 
ATOM     28  C   UNL     1      10.457  12.475  19.603  0.00  0.00    +0.000 A 
ATOM     29  C   UNL     1       9.713  11.761  20.550  0.00  0.00    +0.000 A 
ATOM     30  C   UNL     1       9.612  12.239  21.969  0.00  0.00    +0.000 C 
ATOM     31  C   UNL     1       9.056  10.583  20.162  0.00  0.00    +0.000 A 
ATOM     32  C   UNL     1       9.136  10.120  18.844  0.00  0.00    +0.000 A 
ATOM     33  C   UNL     1       9.889  10.852  17.911  0.00  0.00    +0.000 A 
ENDBRANCH  20  32
ENDBRANCH  18  22
ENDBRANCH   1  18
TORSDOF 4
ENDMDL
MODEL 5
REMARK VINA RESULT:      -9.1      6.740      8.959
REMARK  Name = 
REMARK  6 active torsions:
REMARK  status: ('A' for Active; 'I' for Inactive)
REMARK    1  A    between atoms: C_1  and  C_2
REMARK    2  A    between atoms: C_4  and  C_5
REMARK    3  A    between atoms: C_7  and  C_8
REMARK    4  A    between atoms: C_10  and  N_11
REMARK    5  A    between atoms: N_11  and  S_12
REMARK    6  A    between atoms: S_12  and  C_15
REMARK                            x       y       z     vdW  Elec       q    Type
REMARK                         _______ _______ _______ _____ _____    ______ ____
ROOT
ATOM      1  S   UNL     1      -0.072  10.811  19.458  0.00  0.00    +0.000 S 
ATOM      2  O   UNL     1      -0.244   9.902  20.574  0.00  0.00    +0.000 OA
ATOM      3  O   UNL     1       0.325  12.182  19.700  0.00  0.00    +0.000 OA
ENDROOT
BRANCH   1   4
ATOM      4  C   UNL     1      -1.620  10.880  18.575  0.00  0.00    +0.000 A 
ATOM      5  C   UNL     1      -1.711  10.243  17.309  0.00  0.00    +0.000 A 
ATOM      6  C   UNL     1      -2.882  10.311  16.531  0.00  0.00    +0.000 A 
ATOM      7  C   UNL     1      -3.919  11.041  17.079  0.00  0.00    +0.000 A 
ATOM      8  C   UNL     1      -3.815  11.645  18.310  0.00  0.00    +0.000 A 
ATOM      9  C   UNL     1      -5.008  12.299  18.578  0.00  0.00    +0.000 A 
ATOM     10  C   UNL     1      -5.164  12.992  19.773  0.00  0.00    +0.000 A 
ATOM     11  C   UNL     1      -4.074  12.975  20.657  0.00  0.00    +0.000 A 
ATOM     12  C   UNL     1      -2.875  12.296  20.352  0.00  0.00    +0.000 A 
ATOM     13  C   UNL     1      -2.719  11.603  19.122  0.00  0.00    +0.000 A 
ATOM     14  C   UNL     1      -5.929  12.113  17.471  0.00  0.00    +0.000 C 
ATOM     15  O   UNL     1      -7.067  12.507  17.268  0.00  0.00    +0.000 OA
ATOM     16  N   UNL     1      -5.180  11.324  16.587  0.00  0.00    +0.000 N 
ATOM     17  H   UNL     1      -5.560  11.013  15.704  0.00  0.00    +0.000 HD
ENDBRANCH   1   4
BRANCH   1  18
ATOM     18  N   UNL     1       0.965  10.144  18.388  0.00  0.00    +0.000 N 
ATOM     19  H   UNL     1       1.376  10.797  17.740  0.00  0.00    +0.000 HD
BRANCH  18  22
ATOM     20  C   UNL     1       2.702   7.039  18.365  0.00  0.00    +0.000 A 
ATOM     21  C   UNL     1       2.205   8.177  17.675  0.00  0.00    +0.000 A 
ATOM     22  C   UNL     1       1.600   8.947  18.631  0.00  0.00    +0.000 A 
ATOM     23  N   UNL     1       1.777   8.295  19.817  0.00  0.00    +0.000 N 
ATOM     24  N   UNL     1       2.460   7.146  19.683  0.00  0.00    +0.000 NA
ATOM     25  H   UNL     1       1.463   8.560  20.746  0.00  0.00    +0.000 HD
BRANCH  20  32
ATOM     26  C   UNL     1       6.227   5.237  15.330  0.00  0.00    +0.000 C 
ATOM     27  C   UNL     1       5.105   4.993  16.296  0.00  0.00    +0.000 A 
ATOM     28  C   UNL     1       4.697   3.695  16.621  0.00  0.00    +0.000 A 
ATOM     29  C   UNL     1       3.638   3.479  17.511  0.00  0.00    +0.000 A 
ATOM     30  C   UNL     1       3.197   2.086  17.856  0.00  0.00    +0.000 C 
ATOM     31  C   UNL     1       2.982   4.580  18.081  0.00  0.00    +0.000 A 
ATOM     32  C   UNL     1       3.378   5.887  17.773  0.00  0.00    +0.000 A 
ATOM     33  C   UNL     1       4.443   6.081  16.878  0.00  0.00    +0.000 A 
ENDBRANCH  20  32
ENDBRANCH  18  22
ENDBRANCH   1  18
TORSDOF 4
ENDMDL
MODEL 6
REMARK VINA RESULT:      -9.1      0.206      1.589
REMARK  Name = 
REMARK  6 active torsions:
REMARK  status: ('A' for Active; 'I' for Inactive)
REMARK    1  A    between atoms: C_1  and  C_2
REMARK    2  A    between atoms: C_4  and  C_5
REMARK    3  A    between atoms: C_7  and  C_8
REMARK    4  A    between atoms: C_10  and  N_11
REMARK    5  A    between atoms: N_11  and  S_12
REMARK    6  A    between atoms: S_12  and  C_15
REMARK                            x       y       z     vdW  Elec       q    Type
REMARK                         _______ _______ _______ _____ _____    ______ ____
ROOT
ATOM      1  S   UNL     1       6.683   5.963  18.248  0.00  0.00    +0.000 S 
ATOM      2  O   UNL     1       7.114   5.757  19.617  0.00  0.00    +0.000 OA
ATOM      3  O   UNL     1       6.817   7.268  17.638  0.00  0.00    +0.000 OA
ENDROOT
BRANCH   1   4
ATOM      4  C   UNL     1       4.954   5.535  18.157  0.00  0.00    +0.000 A 
ATOM      5  C   UNL     1       4.033   6.510  17.689  0.00  0.00    +0.000 A 
ATOM      6  C   UNL     1       2.649   6.261  17.651  0.00  0.00    +0.000 A 
ATOM      7  C   UNL     1       2.256   5.017  18.105  0.00  0.00    +0.000 A 
ATOM      8  C   UNL     1       3.162   4.081  18.549  0.00  0.00    +0.000 A 
ATOM      9  C   UNL     1       2.465   2.948  18.939  0.00  0.00    +0.000 A 
ATOM     10  C   UNL     1       3.156   1.845  19.428  0.00  0.00    +0.000 A 
ATOM     11  C   UNL     1       4.554   1.954  19.487  0.00  0.00    +0.000 A 
ATOM     12  C   UNL     1       5.230   3.124  19.079  0.00  0.00    +0.000 A 
ATOM     13  C   UNL     1       4.515   4.252  18.595  0.00  0.00    +0.000 A 
ATOM     14  C   UNL     1       1.042   3.155  18.741  0.00  0.00    +0.000 C 
ATOM     15  O   UNL     1       0.067   2.449  18.951  0.00  0.00    +0.000 OA
ATOM     16  N   UNL     1       0.996   4.457  18.223  0.00  0.00    +0.000 N 
ATOM     17  H   UNL     1       0.122   4.896  17.970  0.00  0.00    +0.000 HD
ENDBRANCH   1   4
BRANCH   1  18
ATOM     18  N   UNL     1       7.414   4.858  17.293  0.00  0.00    +0.000 N 
ATOM     19  H   UNL     1       7.724   4.028  17.773  0.00  0.00    +0.000 HD
BRANCH  18  22
ATOM     20  C   UNL     1       6.501   4.198  13.918  0.00  0.00    +0.000 A 
ATOM     21  C   UNL     1       6.414   3.885  15.301  0.00  0.00    +0.000 A 
ATOM     22  C   UNL     1       7.201   4.809  15.934  0.00  0.00    +0.000 A 
ATOM     23  N   UNL     1       7.683   5.634  14.959  0.00  0.00    +0.000 N 
ATOM     24  N   UNL     1       7.257   5.294  13.731  0.00  0.00    +0.000 NA
ATOM     25  H   UNL     1       8.304   6.433  15.046  0.00  0.00    +0.000 HD
BRANCH  20  32
ATOM     26  C   UNL     1       3.111   4.003  10.264  0.00  0.00    +0.000 C 
ATOM     27  C   UNL     1       4.235   3.358  11.020  0.00  0.00    +0.000 A 
ATOM     28  C   UNL     1       4.683   2.073  10.696  0.00  0.00    +0.000 A 
ATOM     29  C   UNL     1       5.721   1.473  11.419  0.00  0.00    +0.000 A 
ATOM     30  C   UNL     1       6.200   0.093  11.074  0.00  0.00    +0.000 C 
ATOM     31  C   UNL     1       6.316   2.173  12.479  0.00  0.00    +0.000 A 
ATOM     32  C   UNL     1       5.885   3.461  12.817  0.00  0.00    +0.000 A 
ATOM     33  C   UNL     1       4.842   4.045  12.079  0.00  0.00    +0.000 A 
ENDBRANCH  20  32
ENDBRANCH  18  22
ENDBRANCH   1  18
TORSDOF 4
ENDMDL
MODEL 7
REMARK VINA RESULT:      -8.9      4.150      6.870
REMARK  Name = 
REMARK  6 active torsions:
REMARK  status: ('A' for Active; 'I' for Inactive)
REMARK    1  A    between atoms: C_1  and  C_2
REMARK    2  A    between atoms: C_4  and  C_5
REMARK    3  A    between atoms: C_7  and  C_8
REMARK    4  A    between atoms: C_10  and  N_11
REMARK    5  A    between atoms: N_11  and  S_12
REMARK    6  A    between atoms: S_12  and  C_15
REMARK                            x       y       z     vdW  Elec       q    Type
REMARK                         _______ _______ _______ _____ _____    ______ ____
ROOT
ATOM      1  S   UNL     1       5.305   5.713  15.860  0.00  0.00    +0.000 S 
ATOM      2  O   UNL     1       5.264   7.080  15.377  0.00  0.00    +0.000 OA
ATOM      3  O   UNL     1       4.999   4.621  14.962  0.00  0.00    +0.000 OA
ENDROOT
BRANCH   1   4
ATOM      4  C   UNL     1       4.159   5.588  17.221  0.00  0.00    +0.000 A 
ATOM      5  C   UNL     1       3.669   6.783  17.812  0.00  0.00    +0.000 A 
ATOM      6  C   UNL     1       2.811   6.757  18.928  0.00  0.00    +0.000 A 
ATOM      7  C   UNL     1       2.493   5.501  19.404  0.00  0.00    +0.000 A 
ATOM      8  C   UNL     1       2.971   4.353  18.814  0.00  0.00    +0.000 A 
ATOM      9  C   UNL     1       2.482   3.263  19.519  0.00  0.00    +0.000 A 
ATOM     10  C   UNL     1       2.819   1.975  19.120  0.00  0.00    +0.000 A 
ATOM     11  C   UNL     1       3.648   1.861  17.993  0.00  0.00    +0.000 A 
ATOM     12  C   UNL     1       4.125   2.994  17.299  0.00  0.00    +0.000 A 
ATOM     13  C   UNL     1       3.789   4.307  17.723  0.00  0.00    +0.000 A 
ATOM     14  C   UNL     1       1.650   3.721  20.616  0.00  0.00    +0.000 C 
ATOM     15  O   UNL     1       1.032   3.128  21.488  0.00  0.00    +0.000 OA
ATOM     16  N   UNL     1       1.707   5.115  20.476  0.00  0.00    +0.000 N 
ATOM     17  H   UNL     1       1.209   5.731  21.103  0.00  0.00    +0.000 HD
ENDBRANCH   1   4
BRANCH   1  18
ATOM     18  N   UNL     1       6.762   5.439  16.545  0.00  0.00    +0.000 N 
ATOM     19  H   UNL     1       7.331   4.761  16.063  0.00  0.00    +0.000 HD
BRANCH  18  22
ATOM     20  C   UNL     1       8.178   8.245  18.213  0.00  0.00    +0.000 A 
ATOM     21  C   UNL     1       7.470   7.696  17.110  0.00  0.00    +0.000 A 
ATOM     22  C   UNL     1       7.367   6.358  17.373  0.00  0.00    +0.000 A 
ATOM     23  N   UNL     1       7.956   6.159  18.589  0.00  0.00    +0.000 N 
ATOM     24  N   UNL     1       8.438   7.293  19.126  0.00  0.00    +0.000 NA
ATOM     25  H   UNL     1       8.075   5.295  19.109  0.00  0.00    +0.000 HD
BRANCH  20  32
ATOM     26  C   UNL     1       7.634  13.051  16.992  0.00  0.00    +0.000 C 
ATOM     27  C   UNL     1       8.334  11.992  17.792  0.00  0.00    +0.000 A 
ATOM     28  C   UNL     1       9.375  12.315  18.668  0.00  0.00    +0.000 A 
ATOM     29  C   UNL     1      10.033  11.317  19.397  0.00  0.00    +0.000 A 
ATOM     30  C   UNL     1      11.153  11.662  20.335  0.00  0.00    +0.000 C 
ATOM     31  C   UNL     1       9.639   9.979  19.244  0.00  0.00    +0.000 A 
ATOM     32  C   UNL     1       8.596   9.636  18.376  0.00  0.00    +0.000 A 
ATOM     33  C   UNL     1       7.950  10.652  17.654  0.00  0.00    +0.000 A 
ENDBRANCH  20  32
ENDBRANCH  18  22
ENDBRANCH   1  18
TORSDOF 4
ENDMDL
MODEL 8
REMARK VINA RESULT:      -8.9      4.150      6.714
REMARK  Name = 
REMARK  6 active torsions:
REMARK  status: ('A' for Active; 'I' for Inactive)
REMARK    1  A    between atoms: C_1  and  C_2
REMARK    2  A    between atoms: C_4  and  C_5
REMARK    3  A    between atoms: C_7  and  C_8
REMARK    4  A    between atoms: C_10  and  N_11
REMARK    5  A    between atoms: N_11  and  S_12
REMARK    6  A    between atoms: S_12  and  C_15
REMARK                            x       y       z     vdW  Elec       q    Type
REMARK                         _______ _______ _______ _____ _____    ______ ____
ROOT
ATOM      1  S   UNL     1       5.322   5.627  15.852  0.00  0.00    +0.000 S 
ATOM      2  O   UNL     1       5.260   6.976  15.324  0.00  0.00    +0.000 OA
ATOM      3  O   UNL     1       5.016   4.503  14.993  0.00  0.00    +0.000 OA
ENDROOT
BRANCH   1   4
ATOM      4  C   UNL     1       4.193   5.535  17.230  0.00  0.00    +0.000 A 
ATOM      5  C   UNL     1       3.775   6.742  17.851  0.00  0.00    +0.000 A 
ATOM      6  C   UNL     1       2.935   6.739  18.980  0.00  0.00    +0.000 A 
ATOM      7  C   UNL     1       2.561   5.492  19.440  0.00  0.00    +0.000 A 
ATOM      8  C   UNL     1       2.969   4.333  18.821  0.00  0.00    +0.000 A 
ATOM      9  C   UNL     1       2.437   3.256  19.514  0.00  0.00    +0.000 A 
ATOM     10  C   UNL     1       2.700   1.960  19.087  0.00  0.00    +0.000 A 
ATOM     11  C   UNL     1       3.504   1.825  17.944  0.00  0.00    +0.000 A 
ATOM     12  C   UNL     1       4.027   2.945  17.262  0.00  0.00    +0.000 A 
ATOM     13  C   UNL     1       3.766   4.265  17.715  0.00  0.00    +0.000 A 
ATOM     14  C   UNL     1       1.647   3.736  20.634  0.00  0.00    +0.000 C 
ATOM     15  O   UNL     1       1.014   3.159  21.505  0.00  0.00    +0.000 OA
ATOM     16  N   UNL     1       1.774   5.127  20.517  0.00  0.00    +0.000 N 
ATOM     17  H   UNL     1       1.318   5.756  21.164  0.00  0.00    +0.000 HD
ENDBRANCH   1   4
BRANCH   1  18
ATOM     18  N   UNL     1       6.789   5.390  16.527  0.00  0.00    +0.000 N 
ATOM     19  H   UNL     1       7.372   4.727  16.041  0.00  0.00    +0.000 HD
BRANCH  18  22
ATOM     20  C   UNL     1       8.175   8.223  18.174  0.00  0.00    +0.000 A 
ATOM     21  C   UNL     1       7.498   7.654  17.063  0.00  0.00    +0.000 A 
ATOM     22  C   UNL     1       7.375   6.323  17.353  0.00  0.00    +0.000 A 
ATOM     23  N   UNL     1       7.924   6.148  18.592  0.00  0.00    +0.000 N 
ATOM     24  N   UNL     1       8.398   7.290  19.117  0.00  0.00    +0.000 NA
ATOM     25  H   UNL     1       8.019   5.296  19.135  0.00  0.00    +0.000 HD
BRANCH  20  32
ATOM     26  C   UNL     1      11.274  11.566  20.199  0.00  0.00    +0.000 C 
ATOM     27  C   UNL     1      10.115  11.258  19.297  0.00  0.00    +0.000 A 
ATOM     28  C   UNL     1       9.438  12.274  18.614  0.00  0.00    +0.000 A 
ATOM     29  C   UNL     1       8.346  11.978  17.789  0.00  0.00    +0.000 A 
ATOM     30  C   UNL     1       7.618  13.068  17.059  0.00  0.00    +0.000 C 
ATOM     31  C   UNL     1       7.932  10.645  17.647  0.00  0.00    +0.000 A 
ATOM     32  C   UNL     1       8.599   9.614  18.319  0.00  0.00    +0.000 A 
ATOM     33  C   UNL     1       9.691   9.933  19.142  0.00  0.00    +0.000 A 
ENDBRANCH  20  32
ENDBRANCH  18  22
ENDBRANCH   1  18
TORSDOF 4
ENDMDL
MODEL 9
REMARK VINA RESULT:      -8.7      6.374      8.641
REMARK  Name = 
REMARK  6 active torsions:
REMARK  status: ('A' for Active; 'I' for Inactive)
REMARK    1  A    between atoms: C_1  and  C_2
REMARK    2  A    between atoms: C_4  and  C_5
REMARK    3  A    between atoms: C_7  and  C_8
REMARK    4  A    between atoms: C_10  and  N_11
REMARK    5  A    between atoms: N_11  and  S_12
REMARK    6  A    between atoms: S_12  and  C_15
REMARK                            x       y       z     vdW  Elec       q    Type
REMARK                         _______ _______ _______ _____ _____    ______ ____
ROOT
ATOM      1  S   UNL     1       0.341  10.763  20.825  0.00  0.00    +0.000 S 
ATOM      2  O   UNL     1       0.032   9.725  21.789  0.00  0.00    +0.000 OA
ATOM      3  O   UNL     1       1.181  11.877  21.210  0.00  0.00    +0.000 OA
ENDROOT
BRANCH   1   4
ATOM      4  C   UNL     1      -1.204  11.461  20.270  0.00  0.00    +0.000 A 
ATOM      5  C   UNL     1      -1.877  12.384  21.112  0.00  0.00    +0.000 A 
ATOM      6  C   UNL     1      -3.129  12.926  20.765  0.00  0.00    +0.000 A 
ATOM      7  C   UNL     1      -3.651  12.490  19.563  0.00  0.00    +0.000 A 
ATOM      8  C   UNL     1      -2.982  11.599  18.755  0.00  0.00    +0.000 A 
ATOM      9  C   UNL     1      -3.760  11.357  17.633  0.00  0.00    +0.000 A 
ATOM     10  C   UNL     1      -3.303  10.486  16.651  0.00  0.00    +0.000 A 
ATOM     11  C   UNL     1      -2.045   9.900  16.863  0.00  0.00    +0.000 A 
ATOM     12  C   UNL     1      -1.280  10.173  18.017  0.00  0.00    +0.000 A 
ATOM     13  C   UNL     1      -1.760  11.053  19.024  0.00  0.00    +0.000 A 
ATOM     14  C   UNL     1      -4.990  12.122  17.714  0.00  0.00    +0.000 C 
ATOM     15  O   UNL     1      -5.958  12.212  16.973  0.00  0.00    +0.000 OA
ATOM     16  N   UNL     1      -4.846  12.796  18.935  0.00  0.00    +0.000 N 
ATOM     17  H   UNL     1      -5.554  13.430  19.277  0.00  0.00    +0.000 HD
ENDBRANCH   1   4
BRANCH   1  18
ATOM     18  N   UNL     1       0.966  10.070  19.485  0.00  0.00    +0.000 N 
ATOM     19  H   UNL     1       1.219  10.719  18.756  0.00  0.00    +0.000 HD
BRANCH  18  22
ATOM     20  C   UNL     1       2.574   6.950  18.904  0.00  0.00    +0.000 A 
ATOM     21  C   UNL     1       2.123   8.210  18.428  0.00  0.00    +0.000 A 
ATOM     22  C   UNL     1       1.551   8.824  19.509  0.00  0.00    +0.000 A 
ATOM     23  N   UNL     1       1.705   7.969  20.562  0.00  0.00    +0.000 N 
ATOM     24  N   UNL     1       2.339   6.834  20.223  0.00  0.00    +0.000 NA
ATOM     25  H   UNL     1       1.404   8.079  21.526  0.00  0.00    +0.000 HD
BRANCH  20  32
ATOM     26  C   UNL     1       2.868   2.125  17.675  0.00  0.00    +0.000 C 
ATOM     27  C   UNL     1       3.349   3.535  17.498  0.00  0.00    +0.000 A 
ATOM     28  C   UNL     1       4.383   3.842  16.608  0.00  0.00    +0.000 A 
ATOM     29  C   UNL     1       4.836   5.160  16.463  0.00  0.00    +0.000 A 
ATOM     30  C   UNL     1       5.948   5.489  15.511  0.00  0.00    +0.000 C 
ATOM     31  C   UNL     1       4.240   6.179  17.220  0.00  0.00    +0.000 A 
ATOM     32  C   UNL     1       3.201   5.893  18.113  0.00  0.00    +0.000 A 
ATOM     33  C   UNL     1       2.762   4.565  18.243  0.00  0.00    +0.000 A 
ENDBRANCH  20  32
ENDBRANCH  18  22
ENDBRANCH   1  18
TORSDOF 4
ENDMDL
