MODEL 1
REMARK VINA RESULT:      -9.2      0.000      0.000
REMARK  Name = 
REMARK  4 active torsions:
REMARK  status: ('A' for Active; 'I' for Inactive)
REMARK    1  A    between atoms: N_3  and  C_4
REMARK    2  A    between atoms: C_7  and  C_8
REMARK    3  A    between atoms: C_18  and  C_19
REMARK    4  A    between atoms: N_27  and  C_28
REMARK                            x       y       z     vdW  Elec       q    Type
REMARK                         _______ _______ _______ _____ _____    ______ ____
ROOT
ATOM      1  C   UNL     1       2.173   8.107  18.329  0.00  0.00    +0.000 C 
ATOM      2  O   UNL     1       2.387   8.608  17.236  0.00  0.00    +0.000 OA
ATOM      3  N   UNL     1       2.766   6.909  18.758  0.00  0.00    +0.000 N 
ATOM      4  C   UNL     1       2.656   6.309  20.100  0.00  0.00    +0.000 C 
ATOM      5  C   UNL     1       1.873   4.998  20.034  0.00  0.00    +0.000 C 
ATOM      6  N   UNL     1       2.290   4.193  18.901  0.00  0.00    +0.000 N 
ATOM      7  C   UNL     1       2.039   2.861  18.739  0.00  0.00    +0.000 A 
ATOM      8  C   UNL     1       2.578   2.479  17.531  0.00  0.00    +0.000 A 
ATOM      9  C   UNL     1       3.164   3.628  16.945  0.00  0.00    +0.000 A 
ATOM     10  C   UNL     1       2.993   4.683  17.825  0.00  0.00    +0.000 A 
ATOM     11  C   UNL     1       3.533   6.103  17.788  0.00  0.00    +0.000 C 
ENDROOT
BRANCH   1  15
ATOM     12  C   UNL     1      -0.181  10.510  21.024  0.00  0.00    +0.000 A 
ATOM     13  C   UNL     1       0.629   9.495  21.510  0.00  0.00    +0.000 A 
ATOM     14  C   UNL     1       1.274   8.623  20.636  0.00  0.00    +0.000 A 
ATOM     15  C   UNL     1       1.253   8.843  19.261  0.00  0.00    +0.000 A 
ATOM     16  C   UNL     1       0.363   9.792  18.754  0.00  0.00    +0.000 A 
ATOM     17  C   UNL     1      -0.370  10.610  19.635  0.00  0.00    +0.000 A 
BRANCH  12  20
ATOM     18  O   UNL     1       0.654  13.236  21.746  0.00  0.00    +0.000 OA
ATOM     19  C   UNL     1      -0.356  12.702  22.191  0.00  0.00    +0.000 C 
ATOM     20  N   UNL     1      -0.827  11.433  21.875  0.00  0.00    +0.000 N 
ATOM     21  N   UNL     1      -1.191  13.343  23.084  0.00  0.00    +0.000 N 
ATOM     22  H   UNL     1      -1.769  11.217  22.144  0.00  0.00    +0.000 HD
ATOM     23  H   UNL     1      -2.012  12.862  23.420  0.00  0.00    +0.000 HD
BRANCH  21  24
ATOM     24  C   UNL     1      -0.945  14.673  23.555  0.00  0.00    +0.000 C 
ATOM     25  C   UNL     1      -1.518  15.145  24.863  0.00  0.00    +0.000 C 
ATOM     26  C   UNL     1      -2.065  15.677  23.571  0.00  0.00    +0.000 C 
ENDBRANCH  21  24
ENDBRANCH  12  20
ENDBRANCH   1  15
BRANCH  11  27
ATOM     27  C   UNL     1       5.043   6.129  18.067  0.00  0.00    +0.000 A 
ATOM     28  C   UNL     1       5.586   5.359  19.107  0.00  0.00    +0.000 A 
ATOM     29  C   UNL     1       6.953   5.422  19.401  0.00  0.00    +0.000 A 
ATOM     30  C   UNL     1       7.803   6.232  18.648  0.00  0.00    +0.000 A 
ATOM     31  C   UNL     1       7.291   6.982  17.597  0.00  0.00    +0.000 A 
ATOM     32  C   UNL     1       5.927   6.932  17.315  0.00  0.00    +0.000 A 
ENDBRANCH  11  27
TORSDOF 4
ENDMDL
MODEL 2
REMARK VINA RESULT:      -9.1      1.235      1.235
REMARK  Name = 
REMARK  4 active torsions:
REMARK  status: ('A' for Active; 'I' for Inactive)
REMARK    1  A    between atoms: N_3  and  C_4
REMARK    2  A    between atoms: C_7  and  C_8
REMARK    3  A    between atoms: C_18  and  C_19
REMARK    4  A    between atoms: N_27  and  C_28
REMARK                            x       y       z     vdW  Elec       q    Type
REMARK                         _______ _______ _______ _____ _____    ______ ____
ROOT
ATOM      1  C   UNL     1       2.133   8.222  18.166  0.00  0.00    +0.000 C 
ATOM      2  O   UNL     1       2.364   8.637  17.040  0.00  0.00    +0.000 OA
ATOM      3  N   UNL     1       2.683   7.037  18.679  0.00  0.00    +0.000 N 
ATOM      4  C   UNL     1       2.551   6.537  20.059  0.00  0.00    +0.000 C 
ATOM      5  C   UNL     1       1.722   5.253  20.083  0.00  0.00    +0.000 C 
ATOM      6  N   UNL     1       2.110   4.356  19.010  0.00  0.00    +0.000 N 
ATOM      7  C   UNL     1       1.811   3.025  18.941  0.00  0.00    +0.000 A 
ATOM      8  C   UNL     1       2.336   2.541  17.764  0.00  0.00    +0.000 A 
ATOM      9  C   UNL     1       2.963   3.625  17.101  0.00  0.00    +0.000 A 
ATOM     10  C   UNL     1       2.829   4.744  17.904  0.00  0.00    +0.000 A 
ATOM     11  C   UNL     1       3.420   6.137  17.769  0.00  0.00    +0.000 C 
ENDROOT
BRANCH   1  15
ATOM     12  C   UNL     1      -0.198  10.930  20.576  0.00  0.00    +0.000 A 
ATOM     13  C   UNL     1       0.835  10.195  21.140  0.00  0.00    +0.000 A 
ATOM     14  C   UNL     1       1.492   9.214  20.402  0.00  0.00    +0.000 A 
ATOM     15  C   UNL     1       1.240   9.054  19.042  0.00  0.00    +0.000 A 
ATOM     16  C   UNL     1       0.138   9.709  18.489  0.00  0.00    +0.000 A 
ATOM     17  C   UNL     1      -0.594  10.630  19.262  0.00  0.00    +0.000 A 
BRANCH  12  20
ATOM     18  O   UNL     1      -1.541  10.782  23.189  0.00  0.00    +0.000 OA
ATOM     19  C   UNL     1      -1.504  11.801  22.507  0.00  0.00    +0.000 C 
ATOM     20  N   UNL     1      -0.867  11.954  21.281  0.00  0.00    +0.000 N 
ATOM     21  N   UNL     1      -2.103  12.976  22.914  0.00  0.00    +0.000 N 
ATOM     22  H   UNL     1      -0.737  12.891  20.949  0.00  0.00    +0.000 HD
ATOM     23  H   UNL     1      -2.043  13.790  22.319  0.00  0.00    +0.000 HD
BRANCH  21  24
ATOM     24  C   UNL     1      -2.809  13.096  24.155  0.00  0.00    +0.000 C 
ATOM     25  C   UNL     1      -4.256  12.700  24.260  0.00  0.00    +0.000 C 
ATOM     26  C   UNL     1      -3.871  14.149  24.310  0.00  0.00    +0.000 C 
ENDBRANCH  21  24
ENDBRANCH  12  20
ENDBRANCH   1  15
BRANCH  11  27
ATOM     27  C   UNL     1       4.930   6.129  18.049  0.00  0.00    +0.000 A 
ATOM     28  C   UNL     1       5.453   5.359  19.099  0.00  0.00    +0.000 A 
ATOM     29  C   UNL     1       6.822   5.391  19.393  0.00  0.00    +0.000 A 
ATOM     30  C   UNL     1       7.692   6.170  18.631  0.00  0.00    +0.000 A 
ATOM     31  C   UNL     1       7.199   6.919  17.570  0.00  0.00    +0.000 A 
ATOM     32  C   UNL     1       5.835   6.900  17.287  0.00  0.00    +0.000 A 
ENDBRANCH  11  27
TORSDOF 4
ENDMDL
MODEL 3
REMARK VINA RESULT:      -9.0      1.362      1.776
REMARK  Name = 
REMARK  4 active torsions:
REMARK  status: ('A' for Active; 'I' for Inactive)
REMARK    1  A    between atoms: N_3  and  C_4
REMARK    2  A    between atoms: C_7  and  C_8
REMARK    3  A    between atoms: C_18  and  C_19
REMARK    4  A    between atoms: N_27  and  C_28
REMARK                            x       y       z     vdW  Elec       q    Type
REMARK                         _______ _______ _______ _____ _____    ______ ____
ROOT
ATOM      1  C   UNL     1       2.104   8.410  18.200  0.00  0.00    +0.000 C 
ATOM      2  O   UNL     1       2.301   8.732  17.037  0.00  0.00    +0.000 OA
ATOM      3  N   UNL     1       2.614   7.233  18.770  0.00  0.00    +0.000 N 
ATOM      4  C   UNL     1       2.525   6.838  20.187  0.00  0.00    +0.000 C 
ATOM      5  C   UNL     1       1.629   5.610  20.343  0.00  0.00    +0.000 C 
ATOM      6  N   UNL     1       1.911   4.620  19.321  0.00  0.00    +0.000 N 
ATOM      7  C   UNL     1       1.536   3.307  19.362  0.00  0.00    +0.000 A 
ATOM      8  C   UNL     1       1.973   2.713  18.199  0.00  0.00    +0.000 A 
ATOM      9  C   UNL     1       2.624   3.709  17.431  0.00  0.00    +0.000 A 
ATOM     10  C   UNL     1       2.594   4.887  18.157  0.00  0.00    +0.000 A 
ATOM     11  C   UNL     1       3.253   6.231  17.894  0.00  0.00    +0.000 C 
ENDROOT
BRANCH   1  15
ATOM     12  C   UNL     1      -0.491  11.071  20.381  0.00  0.00    +0.000 A 
ATOM     13  C   UNL     1       0.434  11.572  19.478  0.00  0.00    +0.000 A 
ATOM     14  C   UNL     1       1.371  10.732  18.883  0.00  0.00    +0.000 A 
ATOM     15  C   UNL     1       1.305   9.351  19.054  0.00  0.00    +0.000 A 
ATOM     16  C   UNL     1       0.451   8.845  20.036  0.00  0.00    +0.000 A 
ATOM     17  C   UNL     1      -0.431   9.707  20.714  0.00  0.00    +0.000 A 
BRANCH  12  20
ATOM     18  O   UNL     1      -0.979  11.552  23.241  0.00  0.00    +0.000 OA
ATOM     19  C   UNL     1      -1.664  12.043  22.349  0.00  0.00    +0.000 C 
ATOM     20  N   UNL     1      -1.477  11.884  20.981  0.00  0.00    +0.000 N 
ATOM     21  N   UNL     1      -2.737  12.868  22.620  0.00  0.00    +0.000 N 
ATOM     22  H   UNL     1      -1.974  12.512  20.377  0.00  0.00    +0.000 HD
ATOM     23  H   UNL     1      -3.269  13.249  21.851  0.00  0.00    +0.000 HD
BRANCH  21  24
ATOM     24  C   UNL     1      -3.131  13.213  23.953  0.00  0.00    +0.000 C 
ATOM     25  C   UNL     1      -4.291  12.522  24.617  0.00  0.00    +0.000 C 
ATOM     26  C   UNL     1      -4.421  13.952  24.181  0.00  0.00    +0.000 C 
ENDBRANCH  21  24
ENDBRANCH  12  20
ENDBRANCH   1  15
BRANCH  11  27
ATOM     27  C   UNL     1       4.773   6.154  18.103  0.00  0.00    +0.000 A 
ATOM     28  C   UNL     1       5.642   6.857  17.255  0.00  0.00    +0.000 A 
ATOM     29  C   UNL     1       7.029   6.746  17.406  0.00  0.00    +0.000 A 
ATOM     30  C   UNL     1       7.570   5.956  18.420  0.00  0.00    +0.000 A 
ATOM     31  C   UNL     1       6.727   5.273  19.288  0.00  0.00    +0.000 A 
ATOM     32  C   UNL     1       5.347   5.369  19.127  0.00  0.00    +0.000 A 
ENDBRANCH  11  27
TORSDOF 4
ENDMDL
MODEL 4
REMARK VINA RESULT:      -8.8      1.141      1.496
REMARK  Name = 
REMARK  4 active torsions:
REMARK  status: ('A' for Active; 'I' for Inactive)
REMARK    1  A    between atoms: N_3  and  C_4
REMARK    2  A    between atoms: C_7  and  C_8
REMARK    3  A    between atoms: C_18  and  C_19
REMARK    4  A    between atoms: N_27  and  C_28
REMARK                            x       y       z     vdW  Elec       q    Type
REMARK                         _______ _______ _______ _____ _____    ______ ____
ROOT
ATOM      1  C   UNL     1       1.834   8.391  18.424  0.00  0.00    +0.000 C 
ATOM      2  O   UNL     1       2.018   8.754  17.272  0.00  0.00    +0.000 OA
ATOM      3  N   UNL     1       2.327   7.180  18.938  0.00  0.00    +0.000 N 
ATOM      4  C   UNL     1       2.254   6.732  20.340  0.00  0.00    +0.000 C 
ATOM      5  C   UNL     1       1.332   5.518  20.463  0.00  0.00    +0.000 C 
ATOM      6  N   UNL     1       1.575   4.564  19.397  0.00  0.00    +0.000 N 
ATOM      7  C   UNL     1       1.170   3.259  19.393  0.00  0.00    +0.000 A 
ATOM      8  C   UNL     1       1.574   2.702  18.200  0.00  0.00    +0.000 A 
ATOM      9  C   UNL     1       2.234   3.714  17.460  0.00  0.00    +0.000 A 
ATOM     10  C   UNL     1       2.243   4.863  18.233  0.00  0.00    +0.000 A 
ATOM     11  C   UNL     1       2.928   6.201  18.011  0.00  0.00    +0.000 C 
ENDROOT
BRANCH   1  15
ATOM     12  C   UNL     1      -0.070  11.323  20.944  0.00  0.00    +0.000 A 
ATOM     13  C   UNL     1       0.806  10.393  21.483  0.00  0.00    +0.000 A 
ATOM     14  C   UNL     1       1.307   9.355  20.701  0.00  0.00    +0.000 A 
ATOM     15  C   UNL     1       1.071   9.314  19.330  0.00  0.00    +0.000 A 
ATOM     16  C   UNL     1       0.113  10.177  18.795  0.00  0.00    +0.000 A 
ATOM     17  C   UNL     1      -0.474  11.167  19.607  0.00  0.00    +0.000 A 
BRANCH  12  20
ATOM     18  O   UNL     1      -2.094  11.291  23.078  0.00  0.00    +0.000 OA
ATOM     19  C   UNL     1      -1.557  12.317  22.675  0.00  0.00    +0.000 C 
ATOM     20  N   UNL     1      -0.575  12.407  21.694  0.00  0.00    +0.000 N 
ATOM     21  N   UNL     1      -1.866  13.558  23.194  0.00  0.00    +0.000 N 
ATOM     22  H   UNL     1      -0.079  13.276  21.624  0.00  0.00    +0.000 HD
ATOM     23  H   UNL     1      -1.395  14.374  22.831  0.00  0.00    +0.000 HD
BRANCH  21  24
ATOM     24  C   UNL     1      -2.831  13.742  24.236  0.00  0.00    +0.000 C 
ATOM     25  C   UNL     1      -3.783  14.907  24.209  0.00  0.00    +0.000 C 
ATOM     26  C   UNL     1      -2.668  14.875  25.212  0.00  0.00    +0.000 C 
ENDBRANCH  21  24
ENDBRANCH  12  20
ENDBRANCH   1  15
BRANCH  11  27
ATOM     27  C   UNL     1       4.448   6.082  18.189  0.00  0.00    +0.000 A 
ATOM     28  C   UNL     1       5.319   6.775  17.334  0.00  0.00    +0.000 A 
ATOM     29  C   UNL     1       6.706   6.627  17.456  0.00  0.00    +0.000 A 
ATOM     30  C   UNL     1       7.246   5.808  18.448  0.00  0.00    +0.000 A 
ATOM     31  C   UNL     1       6.402   5.135  19.323  0.00  0.00    +0.000 A 
ATOM     32  C   UNL     1       5.022   5.268  19.190  0.00  0.00    +0.000 A 
ENDBRANCH  11  27
TORSDOF 4
ENDMDL
MODEL 5
REMARK VINA RESULT:      -8.8      0.748      1.139
REMARK  Name = 
REMARK  4 active torsions:
REMARK  status: ('A' for Active; 'I' for Inactive)
REMARK    1  A    between atoms: N_3  and  C_4
REMARK    2  A    between atoms: C_7  and  C_8
REMARK    3  A    between atoms: C_18  and  C_19
REMARK    4  A    between atoms: N_27  and  C_28
REMARK                            x       y       z     vdW  Elec       q    Type
REMARK                         _______ _______ _______ _____ _____    ______ ____
ROOT
ATOM      1  C   UNL     1       2.081   8.366  18.334  0.00  0.00    +0.000 C 
ATOM      2  O   UNL     1       2.230   8.713  17.172  0.00  0.00    +0.000 OA
ATOM      3  N   UNL     1       2.587   7.162  18.849  0.00  0.00    +0.000 N 
ATOM      4  C   UNL     1       2.556   6.732  20.258  0.00  0.00    +0.000 C 
ATOM      5  C   UNL     1       1.637   5.522  20.425  0.00  0.00    +0.000 C 
ATOM      6  N   UNL     1       1.846   4.553  19.366  0.00  0.00    +0.000 N 
ATOM      7  C   UNL     1       1.441   3.249  19.391  0.00  0.00    +0.000 A 
ATOM      8  C   UNL     1       1.807   2.675  18.195  0.00  0.00    +0.000 A 
ATOM      9  C   UNL     1       2.446   3.676  17.422  0.00  0.00    +0.000 A 
ATOM     10  C   UNL     1       2.479   4.835  18.178  0.00  0.00    +0.000 A 
ATOM     11  C   UNL     1       3.159   6.169  17.918  0.00  0.00    +0.000 C 
ENDROOT
BRANCH   1  15
ATOM     12  C   UNL     1      -0.370  10.867  20.847  0.00  0.00    +0.000 A 
ATOM     13  C   UNL     1      -0.012  11.283  19.573  0.00  0.00    +0.000 A 
ATOM     14  C   UNL     1       0.897  10.548  18.817  0.00  0.00    +0.000 A 
ATOM     15  C   UNL     1       1.346   9.303  19.249  0.00  0.00    +0.000 A 
ATOM     16  C   UNL     1       1.080   8.922  20.566  0.00  0.00    +0.000 A 
ATOM     17  C   UNL     1       0.240   9.714  21.371  0.00  0.00    +0.000 A 
BRANCH  12  20
ATOM     18  O   UNL     1       0.024  13.309  22.437  0.00  0.00    +0.000 OA
ATOM     19  C   UNL     1      -1.043  12.707  22.382  0.00  0.00    +0.000 C 
ATOM     20  N   UNL     1      -1.311  11.567  21.633  0.00  0.00    +0.000 N 
ATOM     21  N   UNL     1      -2.159  13.129  23.075  0.00  0.00    +0.000 N 
ATOM     22  H   UNL     1      -2.275  11.314  21.516  0.00  0.00    +0.000 HD
ATOM     23  H   UNL     1      -3.016  12.600  22.996  0.00  0.00    +0.000 HD
BRANCH  21  24
ATOM     24  C   UNL     1      -2.159  14.295  23.907  0.00  0.00    +0.000 C 
ATOM     25  C   UNL     1      -3.212  14.489  24.963  0.00  0.00    +0.000 C 
ATOM     26  C   UNL     1      -3.227  15.339  23.727  0.00  0.00    +0.000 C 
ENDBRANCH  21  24
ENDBRANCH  12  20
ENDBRANCH   1  15
BRANCH  11  27
ATOM     27  C   UNL     1       4.684   6.050  18.051  0.00  0.00    +0.000 A 
ATOM     28  C   UNL     1       5.249   5.279  19.078  0.00  0.00    +0.000 A 
ATOM     29  C   UNL     1       6.638   5.212  19.238  0.00  0.00    +0.000 A 
ATOM     30  C   UNL     1       7.485   5.891  18.362  0.00  0.00    +0.000 A 
ATOM     31  C   UNL     1       6.947   6.638  17.322  0.00  0.00    +0.000 A 
ATOM     32  C   UNL     1       5.564   6.719  17.173  0.00  0.00    +0.000 A 
ENDBRANCH  11  27
TORSDOF 4
ENDMDL
MODEL 6
REMARK VINA RESULT:      -8.6      1.532      1.781
REMARK  Name = 
REMARK  4 active torsions:
REMARK  status: ('A' for Active; 'I' for Inactive)
REMARK    1  A    between atoms: N_3  and  C_4
REMARK    2  A    between atoms: C_7  and  C_8
REMARK    3  A    between atoms: C_18  and  C_19
REMARK    4  A    between atoms: N_27  and  C_28
REMARK                            x       y       z     vdW  Elec       q    Type
REMARK                         _______ _______ _______ _____ _____    ______ ____
ROOT
ATOM      1  C   UNL     1       1.764   8.388  18.842  0.00  0.00    +0.000 C 
ATOM      2  O   UNL     1       1.792   8.828  17.703  0.00  0.00    +0.000 OA
ATOM      3  N   UNL     1       2.333   7.156  19.206  0.00  0.00    +0.000 N 
ATOM      4  C   UNL     1       2.449   6.616  20.573  0.00  0.00    +0.000 C 
ATOM      5  C   UNL     1       1.564   5.380  20.733  0.00  0.00    +0.000 C 
ATOM      6  N   UNL     1       1.676   4.501  19.584  0.00  0.00    +0.000 N 
ATOM      7  C   UNL     1       1.289   3.192  19.545  0.00  0.00    +0.000 A 
ATOM      8  C   UNL     1       1.538   2.722  18.275  0.00  0.00    +0.000 A 
ATOM      9  C   UNL     1       2.085   3.792  17.525  0.00  0.00    +0.000 A 
ATOM     10  C   UNL     1       2.183   4.888  18.365  0.00  0.00    +0.000 A 
ATOM     11  C   UNL     1       2.818   6.250  18.146  0.00  0.00    +0.000 C 
ENDROOT
BRANCH   1  15
ATOM     12  C   UNL     1      -0.443  10.782  21.665  0.00  0.00    +0.000 A 
ATOM     13  C   UNL     1       0.267  11.382  20.635  0.00  0.00    +0.000 A 
ATOM     14  C   UNL     1       1.098  10.626  19.813  0.00  0.00    +0.000 A 
ATOM     15  C   UNL     1       1.117   9.236  19.899  0.00  0.00    +0.000 A 
ATOM     16  C   UNL     1       0.493   8.630  20.991  0.00  0.00    +0.000 A 
ATOM     17  C   UNL     1      -0.268   9.406  21.886  0.00  0.00    +0.000 A 
BRANCH  12  20
ATOM     18  O   UNL     1      -2.758  12.428  20.905  0.00  0.00    +0.000 OA
ATOM     19  C   UNL     1      -2.383  12.290  22.064  0.00  0.00    +0.000 C 
ATOM     20  N   UNL     1      -1.319  11.508  22.500  0.00  0.00    +0.000 N 
ATOM     21  N   UNL     1      -3.022  12.908  23.120  0.00  0.00    +0.000 N 
ATOM     22  H   UNL     1      -1.266  11.320  23.485  0.00  0.00    +0.000 HD
ATOM     23  H   UNL     1      -2.676  12.761  24.057  0.00  0.00    +0.000 HD
BRANCH  21  24
ATOM     24  C   UNL     1      -4.165  13.752  22.944  0.00  0.00    +0.000 C 
ATOM     25  C   UNL     1      -4.540  14.769  23.988  0.00  0.00    +0.000 C 
ATOM     26  C   UNL     1      -5.384  13.544  23.801  0.00  0.00    +0.000 C 
ENDBRANCH  21  24
ENDBRANCH  12  20
ENDBRANCH   1  15
BRANCH  11  27
ATOM     27  C   UNL     1       4.350   6.150  18.117  0.00  0.00    +0.000 A 
ATOM     28  C   UNL     1       5.027   5.344  19.045  0.00  0.00    +0.000 A 
ATOM     29  C   UNL     1       6.425   5.292  19.059  0.00  0.00    +0.000 A 
ATOM     30  C   UNL     1       7.170   6.021  18.132  0.00  0.00    +0.000 A 
ATOM     31  C   UNL     1       6.520   6.804  17.186  0.00  0.00    +0.000 A 
ATOM     32  C   UNL     1       5.128   6.869  17.184  0.00  0.00    +0.000 A 
ENDBRANCH  11  27
TORSDOF 4
ENDMDL
MODEL 7
REMARK VINA RESULT:      -8.5      1.765      2.208
REMARK  Name = 
REMARK  4 active torsions:
REMARK  status: ('A' for Active; 'I' for Inactive)
REMARK    1  A    between atoms: N_3  and  C_4
REMARK    2  A    between atoms: C_7  and  C_8
REMARK    3  A    between atoms: C_18  and  C_19
REMARK    4  A    between atoms: N_27  and  C_28
REMARK                            x       y       z     vdW  Elec       q    Type
REMARK                         _______ _______ _______ _____ _____    ______ ____
ROOT
ATOM      1  C   UNL     1       1.980   8.543  18.296  0.00  0.00    +0.000 C 
ATOM      2  O   UNL     1       2.123   8.844  17.120  0.00  0.00    +0.000 OA
ATOM      3  N   UNL     1       2.471   7.351  18.852  0.00  0.00    +0.000 N 
ATOM      4  C   UNL     1       2.446   6.975  20.276  0.00  0.00    +0.000 C 
ATOM      5  C   UNL     1       1.509   5.788  20.498  0.00  0.00    +0.000 C 
ATOM      6  N   UNL     1       1.691   4.776  19.474  0.00  0.00    +0.000 N 
ATOM      7  C   UNL     1       1.264   3.481  19.553  0.00  0.00    +0.000 A 
ATOM      8  C   UNL     1       1.609   2.857  18.375  0.00  0.00    +0.000 A 
ATOM      9  C   UNL     1       2.257   3.817  17.559  0.00  0.00    +0.000 A 
ATOM     10  C   UNL     1       2.317   5.002  18.270  0.00  0.00    +0.000 A 
ATOM     11  C   UNL     1       3.017   6.314  17.954  0.00  0.00    +0.000 C 
ENDROOT
BRANCH   1  15
ATOM     12  C   UNL     1      -0.372  11.340  20.581  0.00  0.00    +0.000 A 
ATOM     13  C   UNL     1       0.538  11.791  19.637  0.00  0.00    +0.000 A 
ATOM     14  C   UNL     1       1.402  10.901  19.003  0.00  0.00    +0.000 A 
ATOM     15  C   UNL     1       1.270   9.526  19.182  0.00  0.00    +0.000 A 
ATOM     16  C   UNL     1       0.435   9.066  20.202  0.00  0.00    +0.000 A 
ATOM     17  C   UNL     1      -0.369   9.975  20.916  0.00  0.00    +0.000 A 
BRANCH  12  20
ATOM     18  O   UNL     1      -3.032  12.199  19.669  0.00  0.00    +0.000 OA
ATOM     19  C   UNL     1      -2.521  12.587  20.714  0.00  0.00    +0.000 C 
ATOM     20  N   UNL     1      -1.285  12.205  21.222  0.00  0.00    +0.000 N 
ATOM     21  N   UNL     1      -3.160  13.476  21.556  0.00  0.00    +0.000 N 
ATOM     22  H   UNL     1      -1.096  12.432  22.181  0.00  0.00    +0.000 HD
ATOM     23  H   UNL     1      -2.699  13.764  22.406  0.00  0.00    +0.000 HD
BRANCH  21  24
ATOM     24  C   UNL     1      -4.460  14.008  21.277  0.00  0.00    +0.000 C 
ATOM     25  C   UNL     1      -5.042  15.106  22.125  0.00  0.00    +0.000 C 
ATOM     26  C   UNL     1      -5.601  13.716  22.212  0.00  0.00    +0.000 C 
ENDBRANCH  21  24
ENDBRANCH  12  20
ENDBRANCH   1  15
BRANCH  11  27
ATOM     27  C   UNL     1       4.541   6.174  18.078  0.00  0.00    +0.000 A 
ATOM     28  C   UNL     1       5.390   6.848  17.188  0.00  0.00    +0.000 A 
ATOM     29  C   UNL     1       6.778   6.681  17.261  0.00  0.00    +0.000 A 
ATOM     30  C   UNL     1       7.341   5.861  18.238  0.00  0.00    +0.000 A 
ATOM     31  C   UNL     1       6.521   5.206  19.148  0.00  0.00    +0.000 A 
ATOM     32  C   UNL     1       5.138   5.359  19.064  0.00  0.00    +0.000 A 
ENDBRANCH  11  27
TORSDOF 4
ENDMDL
MODEL 8
REMARK VINA RESULT:      -8.5      2.429      4.150
REMARK  Name = 
REMARK  4 active torsions:
REMARK  status: ('A' for Active; 'I' for Inactive)
REMARK    1  A    between atoms: N_3  and  C_4
REMARK    2  A    between atoms: C_7  and  C_8
REMARK    3  A    between atoms: C_18  and  C_19
REMARK    4  A    between atoms: N_27  and  C_28
REMARK                            x       y       z     vdW  Elec       q    Type
REMARK                         _______ _______ _______ _____ _____    ______ ____
ROOT
ATOM      1  C   UNL     1       1.797   8.028  19.854  0.00  0.00    +0.000 C 
ATOM      2  O   UNL     1       1.659   7.852  21.055  0.00  0.00    +0.000 OA
ATOM      3  N   UNL     1       2.407   7.092  19.003  0.00  0.00    +0.000 N 
ATOM      4  C   UNL     1       2.500   7.175  17.535  0.00  0.00    +0.000 C 
ATOM      5  C   UNL     1       3.954   7.364  17.104  0.00  0.00    +0.000 C 
ATOM      6  N   UNL     1       4.841   6.488  17.848  0.00  0.00    +0.000 N 
ATOM      7  C   UNL     1       6.122   6.171  17.496  0.00  0.00    +0.000 A 
ATOM      8  C   UNL     1       6.627   5.338  18.469  0.00  0.00    +0.000 A 
ATOM      9  C   UNL     1       5.613   5.160  19.443  0.00  0.00    +0.000 A 
ATOM     10  C   UNL     1       4.500   5.869  19.027  0.00  0.00    +0.000 A 
ATOM     11  C   UNL     1       3.092   5.926  19.595  0.00  0.00    +0.000 C 
ENDROOT
BRANCH   1  15
ATOM     12  C   UNL     1       0.326  11.857  18.532  0.00  0.00    +0.000 A 
ATOM     13  C   UNL     1      -0.534  10.930  19.103  0.00  0.00    +0.000 A 
ATOM     14  C   UNL     1      -0.095   9.642  19.395  0.00  0.00    +0.000 A 
ATOM     15  C   UNL     1       1.249   9.299  19.271  0.00  0.00    +0.000 A 
ATOM     16  C   UNL     1       2.101  10.182  18.604  0.00  0.00    +0.000 A 
ATOM     17  C   UNL     1       1.633  11.452  18.215  0.00  0.00    +0.000 A 
BRANCH  12  20
ATOM     18  O   UNL     1       0.322  14.191  20.322  0.00  0.00    +0.000 OA
ATOM     19  C   UNL     1      -0.070  14.233  19.161  0.00  0.00    +0.000 C 
ATOM     20  N   UNL     1      -0.072  13.182  18.251  0.00  0.00    +0.000 N 
ATOM     21  N   UNL     1      -0.557  15.393  18.593  0.00  0.00    +0.000 N 
ATOM     22  H   UNL     1      -0.216  13.415  17.286  0.00  0.00    +0.000 HD
ATOM     23  H   UNL     1      -0.867  15.377  17.633  0.00  0.00    +0.000 HD
BRANCH  21  24
ATOM     24  C   UNL     1      -0.641  16.630  19.311  0.00  0.00    +0.000 C 
ATOM     25  C   UNL     1      -1.974  17.207  19.699  0.00  0.00    +0.000 C 
ATOM     26  C   UNL     1      -1.163  17.859  18.619  0.00  0.00    +0.000 C 
ENDBRANCH  21  24
ENDBRANCH  12  20
ENDBRANCH   1  15
BRANCH  11  27
ATOM     27  C   UNL     1       2.337   4.612  19.343  0.00  0.00    +0.000 A 
ATOM     28  C   UNL     1       1.318   4.200  20.215  0.00  0.00    +0.000 A 
ATOM     29  C   UNL     1       0.665   2.978  20.021  0.00  0.00    +0.000 A 
ATOM     30  C   UNL     1       0.999   2.160  18.941  0.00  0.00    +0.000 A 
ATOM     31  C   UNL     1       1.986   2.562  18.049  0.00  0.00    +0.000 A 
ATOM     32  C   UNL     1       2.648   3.771  18.252  0.00  0.00    +0.000 A 
ENDBRANCH  11  27
TORSDOF 4
ENDMDL
MODEL 9
REMARK VINA RESULT:      -8.5      2.544      9.945
REMARK  Name = 
REMARK  4 active torsions:
REMARK  status: ('A' for Active; 'I' for Inactive)
REMARK    1  A    between atoms: N_3  and  C_4
REMARK    2  A    between atoms: C_7  and  C_8
REMARK    3  A    between atoms: C_18  and  C_19
REMARK    4  A    between atoms: N_27  and  C_28
REMARK                            x       y       z     vdW  Elec       q    Type
REMARK                         _______ _______ _______ _____ _____    ______ ____
ROOT
ATOM      1  C   UNL     1      -0.174  10.776  19.391  0.00  0.00    +0.000 C 
ATOM      2  O   UNL     1      -1.303  10.552  18.981  0.00  0.00    +0.000 OA
ATOM      3  N   UNL     1       0.199  11.984  20.000  0.00  0.00    +0.000 N 
ATOM      4  C   UNL     1       1.499  12.283  20.627  0.00  0.00    +0.000 C 
ATOM      5  C   UNL     1       2.245  13.348  19.824  0.00  0.00    +0.000 C 
ATOM      6  N   UNL     1       1.356  14.425  19.427  0.00  0.00    +0.000 N 
ATOM      7  C   UNL     1       1.749  15.660  18.996  0.00  0.00    +0.000 A 
ATOM      8  C   UNL     1       0.612  16.377  18.697  0.00  0.00    +0.000 A 
ATOM      9  C   UNL     1      -0.500  15.535  18.947  0.00  0.00    +0.000 A 
ATOM     10  C   UNL     1      -0.016  14.329  19.422  0.00  0.00    +0.000 A 
ATOM     11  C   UNL     1      -0.746  13.119  19.979  0.00  0.00    +0.000 C 
ENDROOT
BRANCH   1  15
ATOM     12  C   UNL     1       2.436   7.383  18.890  0.00  0.00    +0.000 A 
ATOM     13  C   UNL     1       1.893   7.677  20.132  0.00  0.00    +0.000 A 
ATOM     14  C   UNL     1       1.171   8.851  20.330  0.00  0.00    +0.000 A 
ATOM     15  C   UNL     1       0.842   9.678  19.258  0.00  0.00    +0.000 A 
ATOM     16  C   UNL     1       1.466   9.452  18.030  0.00  0.00    +0.000 A 
ATOM     17  C   UNL     1       2.280   8.318  17.852  0.00  0.00    +0.000 A 
BRANCH  12  20
ATOM     18  O   UNL     1       1.423   4.831  17.837  0.00  0.00    +0.000 OA
ATOM     19  C   UNL     1       2.592   5.007  18.164  0.00  0.00    +0.000 C 
ATOM     20  N   UNL     1       3.147   6.189  18.641  0.00  0.00    +0.000 N 
ATOM     21  N   UNL     1       3.538   4.007  18.068  0.00  0.00    +0.000 N 
ATOM     22  H   UNL     1       4.149   6.247  18.660  0.00  0.00    +0.000 HD
ATOM     23  H   UNL     1       4.489   4.202  18.348  0.00  0.00    +0.000 HD
BRANCH  21  24
ATOM     24  C   UNL     1       3.231   2.696  17.583  0.00  0.00    +0.000 C 
ATOM     25  C   UNL     1       2.232   1.824  18.294  0.00  0.00    +0.000 C 
ATOM     26  C   UNL     1       3.693   1.489  18.353  0.00  0.00    +0.000 C 
ENDBRANCH  21  24
ENDBRANCH  12  20
ENDBRANCH   1  15
BRANCH  11  27
ATOM     27  C   UNL     1      -1.335  13.416  21.366  0.00  0.00    +0.000 A 
ATOM     28  C   UNL     1      -2.479  12.737  21.811  0.00  0.00    +0.000 A 
ATOM     29  C   UNL     1      -3.053  13.043  23.051  0.00  0.00    +0.000 A 
ATOM     30  C   UNL     1      -2.480  14.010  23.876  0.00  0.00    +0.000 A 
ATOM     31  C   UNL     1      -1.331  14.675  23.467  0.00  0.00    +0.000 A 
ATOM     32  C   UNL     1      -0.770  14.383  22.226  0.00  0.00    +0.000 A 
ENDBRANCH  11  27
TORSDOF 4
ENDMDL
