MODEL 1
REMARK VINA RESULT:      -9.1      0.000      0.000
REMARK  Name = 
REMARK  4 active torsions:
REMARK  status: ('A' for Active; 'I' for Inactive)
REMARK    1  A    between atoms: C_5  and  C_6
REMARK    2  A    between atoms: C_12  and  C_13
REMARK    3  A    between atoms: N_19  and  C_20
REMARK    4  A    between atoms: C_24  and  C_25
REMARK                            x       y       z     vdW  Elec       q    Type
REMARK                         _______ _______ _______ _____ _____    ______ ____
ROOT
ATOM      1  O   UNL     1       4.500   7.571  17.339  0.00  0.00    +0.000 OA
ATOM      2  C   UNL     1       4.042   6.465  17.558  0.00  0.00    +0.000 C 
ATOM      3  C   UNL     1       3.071   6.236  18.631  0.00  0.00    +0.000 A 
ATOM      4  C   UNL     1       2.554   7.160  19.520  0.00  0.00    +0.000 A 
ATOM      5  C   UNL     1       1.658   6.712  20.499  0.00  0.00    +0.000 A 
ATOM      6  C   UNL     1       1.322   5.337  20.537  0.00  0.00    +0.000 A 
ATOM      7  C   UNL     1       1.860   4.405  19.623  0.00  0.00    +0.000 A 
ATOM      8  C   UNL     1       2.741   4.888  18.660  0.00  0.00    +0.000 A 
ATOM      9  C   UNL     1       3.478   4.175  17.569  0.00  0.00    +0.000 C 
ATOM     10  N   UNL     1       4.268   5.231  16.942  0.00  0.00    +0.000 N 
ENDROOT
BRANCH  10  11
ATOM     11  C   UNL     1       5.214   4.970  15.911  0.00  0.00    +0.000 A 
ATOM     12  C   UNL     1       6.563   5.316  16.058  0.00  0.00    +0.000 A 
ATOM     13  C   UNL     1       7.505   5.003  15.075  0.00  0.00    +0.000 A 
ATOM     14  C   UNL     1       7.109   4.349  13.913  0.00  0.00    +0.000 A 
ATOM     15  C   UNL     1       5.769   4.013  13.724  0.00  0.00    +0.000 A 
ATOM     16  C   UNL     1       4.830   4.325  14.722  0.00  0.00    +0.000 A 
BRANCH  15  17
ATOM     17  C   UNL     1       5.367   3.357  12.529  0.00  0.00    +0.000 C 
ATOM     18  C   UNL     1       5.527   2.453  11.605  0.00  0.00    +0.000 C 
ATOM     19  C   UNL     1       4.385   3.312  11.479  0.00  0.00    +0.000 C 
ENDBRANCH  15  17
ENDBRANCH  10  11
BRANCH   5  20
ATOM     20  C   UNL     1       1.063   7.655  21.520  0.00  0.00    +0.000 C 
ATOM     21  C   UNL     1      -0.431   7.934  21.334  0.00  0.00    +0.000 C 
ATOM     22  C   UNL     1      -0.683   9.240  22.086  0.00  0.00    +0.000 C 
ATOM     23  C   UNL     1       0.683   9.895  22.296  0.00  0.00    +0.000 C 
ATOM     24  C   UNL     1       1.676   9.057  21.503  0.00  0.00    +0.000 C 
ENDBRANCH   5  20
BRANCH   7  25
ATOM     25  C   UNL     1       1.506   2.946  19.704  0.00  0.00    +0.000 C 
ATOM     26  F   UNL     1       0.796   2.494  18.634  0.00  0.00    +0.000 F 
ATOM     27  F   UNL     1       2.607   2.150  19.789  0.00  0.00    +0.000 F 
ATOM     28  F   UNL     1       0.754   2.658  20.802  0.00  0.00    +0.000 F 
ENDBRANCH   7  25
TORSDOF 4
ENDMDL
MODEL 2
REMARK VINA RESULT:      -9.1      0.760      1.058
REMARK  Name = 
REMARK  4 active torsions:
REMARK  status: ('A' for Active; 'I' for Inactive)
REMARK    1  A    between atoms: C_5  and  C_6
REMARK    2  A    between atoms: C_12  and  C_13
REMARK    3  A    between atoms: N_19  and  C_20
REMARK    4  A    between atoms: C_24  and  C_25
REMARK                            x       y       z     vdW  Elec       q    Type
REMARK                         _______ _______ _______ _____ _____    ______ ____
ROOT
ATOM      1  O   UNL     1       3.962   7.761  17.031  0.00  0.00    +0.000 OA
ATOM      2  C   UNL     1       3.780   6.671  17.538  0.00  0.00    +0.000 C 
ATOM      3  C   UNL     1       2.892   6.501  18.691  0.00  0.00    +0.000 A 
ATOM      4  C   UNL     1       2.171   7.473  19.360  0.00  0.00    +0.000 A 
ATOM      5  C   UNL     1       1.409   7.090  20.470  0.00  0.00    +0.000 A 
ATOM      6  C   UNL     1       1.409   5.729  20.861  0.00  0.00    +0.000 A 
ATOM      7  C   UNL     1       2.152   4.748  20.169  0.00  0.00    +0.000 A 
ATOM      8  C   UNL     1       2.892   5.164  19.066  0.00  0.00    +0.000 A 
ATOM      9  C   UNL     1       3.775   4.389  18.138  0.00  0.00    +0.000 C 
ATOM     10  N   UNL     1       4.291   5.408  17.228  0.00  0.00    +0.000 N 
ENDROOT
BRANCH  10  11
ATOM     11  C   UNL     1       5.270   5.121  16.235  0.00  0.00    +0.000 A 
ATOM     12  C   UNL     1       6.624   5.414  16.444  0.00  0.00    +0.000 A 
ATOM     13  C   UNL     1       7.595   5.076  15.499  0.00  0.00    +0.000 A 
ATOM     14  C   UNL     1       7.226   4.450  14.313  0.00  0.00    +0.000 A 
ATOM     15  C   UNL     1       5.883   4.168  14.062  0.00  0.00    +0.000 A 
ATOM     16  C   UNL     1       4.915   4.506  15.023  0.00  0.00    +0.000 A 
BRANCH  15  17
ATOM     17  C   UNL     1       5.509   3.542  12.843  0.00  0.00    +0.000 C 
ATOM     18  C   UNL     1       5.726   2.707  11.866  0.00  0.00    +0.000 C 
ATOM     19  C   UNL     1       4.506   3.459  11.815  0.00  0.00    +0.000 C 
ENDBRANCH  15  17
ENDBRANCH  10  11
BRANCH   5  20
ATOM     20  C   UNL     1       0.608   8.096  21.266  0.00  0.00    +0.000 C 
ATOM     21  C   UNL     1      -0.047   9.196  20.427  0.00  0.00    +0.000 C 
ATOM     22  C   UNL     1      -0.328  10.328  21.414  0.00  0.00    +0.000 C 
ATOM     23  C   UNL     1       0.535  10.059  22.646  0.00  0.00    +0.000 C 
ATOM     24  C   UNL     1       1.436   8.888  22.280  0.00  0.00    +0.000 C 
ENDBRANCH   5  20
BRANCH   7  25
ATOM     25  C   UNL     1       2.155   3.314  20.623  0.00  0.00    +0.000 C 
ATOM     26  F   UNL     1       3.398   2.825  20.884  0.00  0.00    +0.000 F 
ATOM     27  F   UNL     1       1.430   3.129  21.760  0.00  0.00    +0.000 F 
ATOM     28  F   UNL     1       1.611   2.479  19.696  0.00  0.00    +0.000 F 
ENDBRANCH   7  25
TORSDOF 4
ENDMDL
MODEL 3
REMARK VINA RESULT:      -8.9      1.887      7.741
REMARK  Name = 
REMARK  4 active torsions:
REMARK  status: ('A' for Active; 'I' for Inactive)
REMARK    1  A    between atoms: C_5  and  C_6
REMARK    2  A    between atoms: C_12  and  C_13
REMARK    3  A    between atoms: N_19  and  C_20
REMARK    4  A    between atoms: C_24  and  C_25
REMARK                            x       y       z     vdW  Elec       q    Type
REMARK                         _______ _______ _______ _____ _____    ______ ____
ROOT
ATOM      1  O   UNL     1       3.808   8.275  17.447  0.00  0.00    +0.000 OA
ATOM      2  C   UNL     1       3.428   7.231  17.942  0.00  0.00    +0.000 C 
ATOM      3  C   UNL     1       3.904   5.934  17.454  0.00  0.00    +0.000 A 
ATOM      4  C   UNL     1       4.788   5.687  16.420  0.00  0.00    +0.000 A 
ATOM      5  C   UNL     1       5.078   4.356  16.095  0.00  0.00    +0.000 A 
ATOM      6  C   UNL     1       4.453   3.324  16.835  0.00  0.00    +0.000 A 
ATOM      7  C   UNL     1       3.550   3.591  17.887  0.00  0.00    +0.000 A 
ATOM      8  C   UNL     1       3.292   4.925  18.186  0.00  0.00    +0.000 A 
ATOM      9  C   UNL     1       2.397   5.536  19.219  0.00  0.00    +0.000 C 
ATOM     10  N   UNL     1       2.538   6.971  18.987  0.00  0.00    +0.000 N 
ENDROOT
BRANCH  10  11
ATOM     11  C   UNL     1       1.764   7.939  19.689  0.00  0.00    +0.000 A 
ATOM     12  C   UNL     1       1.603   7.873  21.079  0.00  0.00    +0.000 A 
ATOM     13  C   UNL     1       0.899   8.856  21.777  0.00  0.00    +0.000 A 
ATOM     14  C   UNL     1       0.324   9.921  21.091  0.00  0.00    +0.000 A 
ATOM     15  C   UNL     1       0.443  10.004  19.704  0.00  0.00    +0.000 A 
ATOM     16  C   UNL     1       1.161   9.013  19.012  0.00  0.00    +0.000 A 
BRANCH  15  17
ATOM     17  C   UNL     1      -0.157  11.086  19.007  0.00  0.00    +0.000 C 
ATOM     18  C   UNL     1      -0.207  12.339  18.654  0.00  0.00    +0.000 C 
ATOM     19  C   UNL     1      -1.239  11.483  18.146  0.00  0.00    +0.000 C 
ENDBRANCH  15  17
ENDBRANCH  10  11
BRANCH   5  20
ATOM     20  C   UNL     1       6.019   4.003  14.967  0.00  0.00    +0.000 C 
ATOM     21  C   UNL     1       7.038   5.093  14.622  0.00  0.00    +0.000 C 
ATOM     22  C   UNL     1       7.495   4.769  13.201  0.00  0.00    +0.000 C 
ATOM     23  C   UNL     1       6.453   3.817  12.613  0.00  0.00    +0.000 C 
ATOM     24  C   UNL     1       5.321   3.755  13.628  0.00  0.00    +0.000 C 
ENDBRANCH   5  20
BRANCH   7  25
ATOM     25  C   UNL     1       2.880   2.473  18.638  0.00  0.00    +0.000 C 
ATOM     26  F   UNL     1       1.525   2.458  18.504  0.00  0.00    +0.000 F 
ATOM     27  F   UNL     1       3.313   1.247  18.236  0.00  0.00    +0.000 F 
ATOM     28  F   UNL     1       3.123   2.532  19.976  0.00  0.00    +0.000 F 
ENDBRANCH   7  25
TORSDOF 4
ENDMDL
MODEL 4
REMARK VINA RESULT:      -8.8      2.167      8.172
REMARK  Name = 
REMARK  4 active torsions:
REMARK  status: ('A' for Active; 'I' for Inactive)
REMARK    1  A    between atoms: C_5  and  C_6
REMARK    2  A    between atoms: C_12  and  C_13
REMARK    3  A    between atoms: N_19  and  C_20
REMARK    4  A    between atoms: C_24  and  C_25
REMARK                            x       y       z     vdW  Elec       q    Type
REMARK                         _______ _______ _______ _____ _____    ______ ____
ROOT
ATOM      1  O   UNL     1       2.301   9.157  18.587  0.00  0.00    +0.000 OA
ATOM      2  C   UNL     1       2.091   8.177  19.276  0.00  0.00    +0.000 C 
ATOM      3  C   UNL     1       2.647   6.865  18.934  0.00  0.00    +0.000 A 
ATOM      4  C   UNL     1       3.437   6.534  17.849  0.00  0.00    +0.000 A 
ATOM      5  C   UNL     1       3.830   5.199  17.694  0.00  0.00    +0.000 A 
ATOM      6  C   UNL     1       3.402   4.248  18.652  0.00  0.00    +0.000 A 
ATOM      7  C   UNL     1       2.593   4.601  19.754  0.00  0.00    +0.000 A 
ATOM      8  C   UNL     1       2.228   5.938  19.878  0.00  0.00    +0.000 A 
ATOM      9  C   UNL     1       1.389   6.626  20.910  0.00  0.00    +0.000 C 
ATOM     10  N   UNL     1       1.350   8.011  20.449  0.00  0.00    +0.000 N 
ENDROOT
BRANCH  10  11
ATOM     11  C   UNL     1       0.557   9.008  21.087  0.00  0.00    +0.000 A 
ATOM     12  C   UNL     1       0.385   9.021  22.477  0.00  0.00    +0.000 A 
ATOM     13  C   UNL     1      -0.338  10.034  23.110  0.00  0.00    +0.000 A 
ATOM     14  C   UNL     1      -0.922  11.048  22.359  0.00  0.00    +0.000 A 
ATOM     15  C   UNL     1      -0.793  11.051  20.970  0.00  0.00    +0.000 A 
ATOM     16  C   UNL     1      -0.055  10.031  20.343  0.00  0.00    +0.000 A 
BRANCH  15  17
ATOM     17  C   UNL     1      -1.402  12.081  20.206  0.00  0.00    +0.000 C 
ATOM     18  C   UNL     1      -1.392  13.261  19.654  0.00  0.00    +0.000 C 
ATOM     19  C   UNL     1      -2.581  12.477  19.483  0.00  0.00    +0.000 C 
ENDBRANCH  15  17
ENDBRANCH  10  11
BRANCH   5  20
ATOM     20  C   UNL     1       4.678   4.752  16.525  0.00  0.00    +0.000 C 
ATOM     21  C   UNL     1       5.992   4.070  16.915  0.00  0.00    +0.000 C 
ATOM     22  C   UNL     1       6.877   4.185  15.674  0.00  0.00    +0.000 C 
ATOM     23  C   UNL     1       6.259   5.273  14.795  0.00  0.00    +0.000 C 
ATOM     24  C   UNL     1       5.143   5.896  15.621  0.00  0.00    +0.000 C 
ENDBRANCH   5  20
BRANCH   7  25
ATOM     25  C   UNL     1       2.131   3.564  20.741  0.00  0.00    +0.000 C 
ATOM     26  F   UNL     1       2.507   3.822  22.023  0.00  0.00    +0.000 F 
ATOM     27  F   UNL     1       0.776   3.439  20.763  0.00  0.00    +0.000 F 
ATOM     28  F   UNL     1       2.614   2.325  20.451  0.00  0.00    +0.000 F 
ENDBRANCH   7  25
TORSDOF 4
ENDMDL
MODEL 5
REMARK VINA RESULT:      -8.8      2.846      8.058
REMARK  Name = 
REMARK  4 active torsions:
REMARK  status: ('A' for Active; 'I' for Inactive)
REMARK    1  A    between atoms: C_5  and  C_6
REMARK    2  A    between atoms: C_12  and  C_13
REMARK    3  A    between atoms: N_19  and  C_20
REMARK    4  A    between atoms: C_24  and  C_25
REMARK                            x       y       z     vdW  Elec       q    Type
REMARK                         _______ _______ _______ _____ _____    ______ ____
ROOT
ATOM      1  O   UNL     1       2.415   9.892  17.485  0.00  0.00    +0.000 OA
ATOM      2  C   UNL     1       2.140   9.041  18.309  0.00  0.00    +0.000 C 
ATOM      3  C   UNL     1       2.809   7.737  18.317  0.00  0.00    +0.000 A 
ATOM      4  C   UNL     1       3.783   7.276  17.451  0.00  0.00    +0.000 A 
ATOM      5  C   UNL     1       4.261   5.971  17.620  0.00  0.00    +0.000 A 
ATOM      6  C   UNL     1       3.726   5.180  18.665  0.00  0.00    +0.000 A 
ATOM      7  C   UNL     1       2.729   5.664  19.540  0.00  0.00    +0.000 A 
ATOM      8  C   UNL     1       2.284   6.968  19.346  0.00  0.00    +0.000 A 
ATOM      9  C   UNL     1       1.252   7.765  20.083  0.00  0.00    +0.000 C 
ATOM     10  N   UNL     1       1.223   9.035  19.364  0.00  0.00    +0.000 N 
ENDROOT
BRANCH  10  11
ATOM     11  C   UNL     1       0.288  10.065  19.667  0.00  0.00    +0.000 A 
ATOM     12  C   UNL     1       0.521  10.975  20.706  0.00  0.00    +0.000 A 
ATOM     13  C   UNL     1      -0.364  12.025  20.963  0.00  0.00    +0.000 A 
ATOM     14  C   UNL     1      -1.512  12.175  20.193  0.00  0.00    +0.000 A 
ATOM     15  C   UNL     1      -1.786  11.271  19.167  0.00  0.00    +0.000 A 
ATOM     16  C   UNL     1      -0.886  10.222  18.911  0.00  0.00    +0.000 A 
BRANCH  15  17
ATOM     17  C   UNL     1      -2.967  11.419  18.392  0.00  0.00    +0.000 C 
ATOM     18  C   UNL     1      -4.239  11.677  18.274  0.00  0.00    +0.000 C 
ATOM     19  C   UNL     1      -3.529  11.358  17.069  0.00  0.00    +0.000 C 
ENDBRANCH  15  17
ENDBRANCH  10  11
BRANCH   5  20
ATOM     20  C   UNL     1       5.312   5.387  16.703  0.00  0.00    +0.000 C 
ATOM     21  C   UNL     1       5.365   6.020  15.310  0.00  0.00    +0.000 C 
ATOM     22  C   UNL     1       6.073   4.986  14.436  0.00  0.00    +0.000 C 
ATOM     23  C   UNL     1       6.013   3.659  15.192  0.00  0.00    +0.000 C 
ATOM     24  C   UNL     1       5.113   3.902  16.396  0.00  0.00    +0.000 C 
ENDBRANCH   5  20
BRANCH   7  25
ATOM     25  C   UNL     1       2.159   4.791  20.625  0.00  0.00    +0.000 C 
ATOM     26  F   UNL     1       0.806   4.653  20.563  0.00  0.00    +0.000 F 
ATOM     27  F   UNL     1       2.669   3.530  20.596  0.00  0.00    +0.000 F 
ATOM     28  F   UNL     1       2.430   5.273  21.869  0.00  0.00    +0.000 F 
ENDBRANCH   7  25
TORSDOF 4
ENDMDL
MODEL 6
REMARK VINA RESULT:      -8.8      2.547      7.973
REMARK  Name = 
REMARK  4 active torsions:
REMARK  status: ('A' for Active; 'I' for Inactive)
REMARK    1  A    between atoms: C_5  and  C_6
REMARK    2  A    between atoms: C_12  and  C_13
REMARK    3  A    between atoms: N_19  and  C_20
REMARK    4  A    between atoms: C_24  and  C_25
REMARK                            x       y       z     vdW  Elec       q    Type
REMARK                         _______ _______ _______ _____ _____    ______ ____
ROOT
ATOM      1  O   UNL     1       2.540   9.415  17.565  0.00  0.00    +0.000 OA
ATOM      2  C   UNL     1       2.264   8.573  18.398  0.00  0.00    +0.000 C 
ATOM      3  C   UNL     1       2.847   7.229  18.352  0.00  0.00    +0.000 A 
ATOM      4  C   UNL     1       3.734   6.718  17.422  0.00  0.00    +0.000 A 
ATOM      5  C   UNL     1       4.136   5.383  17.550  0.00  0.00    +0.000 A 
ATOM      6  C   UNL     1       3.619   4.616  18.621  0.00  0.00    +0.000 A 
ATOM      7  C   UNL     1       2.712   5.150  19.562  0.00  0.00    +0.000 A 
ATOM      8  C   UNL     1       2.341   6.482  19.407  0.00  0.00    +0.000 A 
ATOM      9  C   UNL     1       1.410   7.333  20.215  0.00  0.00    +0.000 C 
ATOM     10  N   UNL     1       1.417   8.612  19.509  0.00  0.00    +0.000 N 
ENDROOT
BRANCH  10  11
ATOM     11  C   UNL     1       0.571   9.695  19.880  0.00  0.00    +0.000 A 
ATOM     12  C   UNL     1       0.877  10.516  20.972  0.00  0.00    +0.000 A 
ATOM     13  C   UNL     1       0.083  11.618  21.298  0.00  0.00    +0.000 A 
ATOM     14  C   UNL     1      -1.048  11.910  20.544  0.00  0.00    +0.000 A 
ATOM     15  C   UNL     1      -1.396  11.098  19.465  0.00  0.00    +0.000 A 
ATOM     16  C   UNL     1      -0.586   9.996  19.140  0.00  0.00    +0.000 A 
BRANCH  15  17
ATOM     17  C   UNL     1      -2.559  11.393  18.705  0.00  0.00    +0.000 C 
ATOM     18  C   UNL     1      -3.802  11.772  18.607  0.00  0.00    +0.000 C 
ATOM     19  C   UNL     1      -3.127  11.448  17.385  0.00  0.00    +0.000 C 
ENDBRANCH  15  17
ENDBRANCH  10  11
BRANCH   5  20
ATOM     20  C   UNL     1       5.088   4.746  16.563  0.00  0.00    +0.000 C 
ATOM     21  C   UNL     1       6.530   4.615  17.063  0.00  0.00    +0.000 C 
ATOM     22  C   UNL     1       7.371   4.458  15.797  0.00  0.00    +0.000 C 
ATOM     23  C   UNL     1       6.502   4.932  14.632  0.00  0.00    +0.000 C 
ATOM     24  C   UNL     1       5.249   5.528  15.259  0.00  0.00    +0.000 C 
ENDBRANCH   5  20
BRANCH   7  25
ATOM     25  C   UNL     1       2.158   4.302  20.674  0.00  0.00    +0.000 C 
ATOM     26  F   UNL     1       2.470   4.759  21.918  0.00  0.00    +0.000 F 
ATOM     27  F   UNL     1       0.801   4.217  20.632  0.00  0.00    +0.000 F 
ATOM     28  F   UNL     1       2.613   3.020  20.620  0.00  0.00    +0.000 F 
ENDBRANCH   7  25
TORSDOF 4
ENDMDL
MODEL 7
REMARK VINA RESULT:      -8.7      2.144      7.894
REMARK  Name = 
REMARK  4 active torsions:
REMARK  status: ('A' for Active; 'I' for Inactive)
REMARK    1  A    between atoms: C_5  and  C_6
REMARK    2  A    between atoms: C_12  and  C_13
REMARK    3  A    between atoms: N_19  and  C_20
REMARK    4  A    between atoms: C_24  and  C_25
REMARK                            x       y       z     vdW  Elec       q    Type
REMARK                         _______ _______ _______ _____ _____    ______ ____
ROOT
ATOM      1  O   UNL     1       2.676   8.734  18.291  0.00  0.00    +0.000 OA
ATOM      2  C   UNL     1       2.390   7.823  19.044  0.00  0.00    +0.000 C 
ATOM      3  C   UNL     1       2.927   6.473  18.853  0.00  0.00    +0.000 A 
ATOM      4  C   UNL     1       3.776   6.029  17.856  0.00  0.00    +0.000 A 
ATOM      5  C   UNL     1       4.137   4.676  17.842  0.00  0.00    +0.000 A 
ATOM      6  C   UNL     1       3.617   3.823  18.845  0.00  0.00    +0.000 A 
ATOM      7  C   UNL     1       2.749   4.289  19.855  0.00  0.00    +0.000 A 
ATOM      8  C   UNL     1       2.418   5.641  19.841  0.00  0.00    +0.000 A 
ATOM      9  C   UNL     1       1.534   6.437  20.751  0.00  0.00    +0.000 C 
ATOM     10  N   UNL     1       1.569   7.778  20.174  0.00  0.00    +0.000 N 
ENDROOT
BRANCH  10  11
ATOM     11  C   UNL     1       0.767   8.845  20.669  0.00  0.00    +0.000 A 
ATOM     12  C   UNL     1       0.670   9.105  22.042  0.00  0.00    +0.000 A 
ATOM     13  C   UNL     1      -0.064  10.190  22.527  0.00  0.00    +0.000 A 
ATOM     14  C   UNL     1      -0.732  11.030  21.643  0.00  0.00    +0.000 A 
ATOM     15  C   UNL     1      -0.678  10.784  20.271  0.00  0.00    +0.000 A 
ATOM     16  C   UNL     1       0.070   9.694  19.793  0.00  0.00    +0.000 A 
BRANCH  15  17
ATOM     17  C   UNL     1      -1.375  11.636  19.373  0.00  0.00    +0.000 C 
ATOM     18  C   UNL     1      -1.466  12.719  18.653  0.00  0.00    +0.000 C 
ATOM     19  C   UNL     1      -2.584  11.822  18.617  0.00  0.00    +0.000 C 
ENDBRANCH  15  17
ENDBRANCH  10  11
BRANCH   5  20
ATOM     20  C   UNL     1       5.045   4.109  16.775  0.00  0.00    +0.000 C 
ATOM     21  C   UNL     1       6.509   4.544  16.888  0.00  0.00    +0.000 C 
ATOM     22  C   UNL     1       7.096   4.313  15.497  0.00  0.00    +0.000 C 
ATOM     23  C   UNL     1       5.912   4.187  14.537  0.00  0.00    +0.000 C 
ATOM     24  C   UNL     1       4.674   4.532  15.352  0.00  0.00    +0.000 C 
ENDBRANCH   5  20
BRANCH   7  25
ATOM     25  C   UNL     1       2.190   3.354  20.892  0.00  0.00    +0.000 C 
ATOM     26  F   UNL     1       0.834   3.242  20.855  0.00  0.00    +0.000 F 
ATOM     27  F   UNL     1       2.676   2.089  20.764  0.00  0.00    +0.000 F 
ATOM     28  F   UNL     1       2.499   3.744  22.159  0.00  0.00    +0.000 F 
ENDBRANCH   7  25
TORSDOF 4
ENDMDL
MODEL 8
REMARK VINA RESULT:      -8.4      2.499      8.508
REMARK  Name = 
REMARK  4 active torsions:
REMARK  status: ('A' for Active; 'I' for Inactive)
REMARK    1  A    between atoms: C_5  and  C_6
REMARK    2  A    between atoms: C_12  and  C_13
REMARK    3  A    between atoms: N_19  and  C_20
REMARK    4  A    between atoms: C_24  and  C_25
REMARK                            x       y       z     vdW  Elec       q    Type
REMARK                         _______ _______ _______ _____ _____    ______ ____
ROOT
ATOM      1  O   UNL     1       2.354   9.784  17.291  0.00  0.00    +0.000 OA
ATOM      2  C   UNL     1       2.060   8.960  18.135  0.00  0.00    +0.000 C 
ATOM      3  C   UNL     1       2.760   7.676  18.230  0.00  0.00    +0.000 A 
ATOM      4  C   UNL     1       3.789   7.208  17.433  0.00  0.00    +0.000 A 
ATOM      5  C   UNL     1       4.290   5.924  17.680  0.00  0.00    +0.000 A 
ATOM      6  C   UNL     1       3.724   5.162  18.729  0.00  0.00    +0.000 A 
ATOM      7  C   UNL     1       2.672   5.652  19.533  0.00  0.00    +0.000 A 
ATOM      8  C   UNL     1       2.204   6.935  19.263  0.00  0.00    +0.000 A 
ATOM      9  C   UNL     1       1.116   7.732  19.915  0.00  0.00    +0.000 C 
ATOM     10  N   UNL     1       1.091   8.971  19.142  0.00  0.00    +0.000 N 
ENDROOT
BRANCH  10  11
ATOM     11  C   UNL     1       0.116   9.986  19.356  0.00  0.00    +0.000 A 
ATOM     12  C   UNL     1      -0.676  10.465  18.304  0.00  0.00    +0.000 A 
ATOM     13  C   UNL     1      -1.677  11.414  18.523  0.00  0.00    +0.000 A 
ATOM     14  C   UNL     1      -1.895  11.917  19.801  0.00  0.00    +0.000 A 
ATOM     15  C   UNL     1      -1.107  11.479  20.866  0.00  0.00    +0.000 A 
ATOM     16  C   UNL     1      -0.107  10.518  20.637  0.00  0.00    +0.000 A 
BRANCH  15  17
ATOM     17  C   UNL     1      -1.324  12.006  22.167  0.00  0.00    +0.000 C 
ATOM     18  C   UNL     1      -1.166  12.927  23.075  0.00  0.00    +0.000 C 
ATOM     19  C   UNL     1      -1.947  11.782  23.444  0.00  0.00    +0.000 C 
ENDBRANCH  15  17
ENDBRANCH  10  11
BRANCH   5  20
ATOM     20  C   UNL     1       5.401   5.333  16.842  0.00  0.00    +0.000 C 
ATOM     21  C   UNL     1       5.602   6.009  15.482  0.00  0.00    +0.000 C 
ATOM     22  C   UNL     1       6.353   4.980  14.639  0.00  0.00    +0.000 C 
ATOM     23  C   UNL     1       6.181   3.631  15.338  0.00  0.00    +0.000 C 
ATOM     24  C   UNL     1       5.183   3.867  16.464  0.00  0.00    +0.000 C 
ENDBRANCH   5  20
BRANCH   7  25
ATOM     25  C   UNL     1       2.071   4.809  20.624  0.00  0.00    +0.000 C 
ATOM     26  F   UNL     1       0.738   4.578  20.466  0.00  0.00    +0.000 F 
ATOM     27  F   UNL     1       2.657   3.585  20.715  0.00  0.00    +0.000 F 
ATOM     28  F   UNL     1       2.209   5.379  21.852  0.00  0.00    +0.000 F 
ENDBRANCH   7  25
TORSDOF 4
ENDMDL
MODEL 9
REMARK VINA RESULT:      -8.4      3.771      5.757
REMARK  Name = 
REMARK  4 active torsions:
REMARK  status: ('A' for Active; 'I' for Inactive)
REMARK    1  A    between atoms: C_5  and  C_6
REMARK    2  A    between atoms: C_12  and  C_13
REMARK    3  A    between atoms: N_19  and  C_20
REMARK    4  A    between atoms: C_24  and  C_25
REMARK                            x       y       z     vdW  Elec       q    Type
REMARK                         _______ _______ _______ _____ _____    ______ ____
ROOT
ATOM      1  O   UNL     1       2.599   8.534  17.176  0.00  0.00    +0.000 OA
ATOM      2  C   UNL     1       2.162   8.412  18.304  0.00  0.00    +0.000 C 
ATOM      3  C   UNL     1       1.459   9.509  18.976  0.00  0.00    +0.000 A 
ATOM      4  C   UNL     1       1.199  10.777  18.489  0.00  0.00    +0.000 A 
ATOM      5  C   UNL     1       0.539  11.688  19.322  0.00  0.00    +0.000 A 
ATOM      6  C   UNL     1       0.168  11.274  20.624  0.00  0.00    +0.000 A 
ATOM      7  C   UNL     1       0.442   9.977  21.109  0.00  0.00    +0.000 A 
ATOM      8  C   UNL     1       1.093   9.096  20.250  0.00  0.00    +0.000 A 
ATOM      9  C   UNL     1       1.526   7.678  20.455  0.00  0.00    +0.000 C 
ATOM     10  N   UNL     1       2.189   7.339  19.199  0.00  0.00    +0.000 N 
ENDROOT
BRANCH  10  11
ATOM     11  C   UNL     1       2.859   6.098  18.997  0.00  0.00    +0.000 A 
ATOM     12  C   UNL     1       2.195   4.877  19.173  0.00  0.00    +0.000 A 
ATOM     13  C   UNL     1       2.830   3.661  18.914  0.00  0.00    +0.000 A 
ATOM     14  C   UNL     1       4.154   3.642  18.488  0.00  0.00    +0.000 A 
ATOM     15  C   UNL     1       4.852   4.839  18.327  0.00  0.00    +0.000 A 
ATOM     16  C   UNL     1       4.201   6.058  18.583  0.00  0.00    +0.000 A 
BRANCH  15  17
ATOM     17  C   UNL     1       6.208   4.815  17.905  0.00  0.00    +0.000 C 
ATOM     18  C   UNL     1       7.485   4.935  18.135  0.00  0.00    +0.000 C 
ATOM     19  C   UNL     1       7.097   4.609  16.793  0.00  0.00    +0.000 C 
ENDBRANCH  15  17
ENDBRANCH  10  11
BRANCH   5  20
ATOM     20  C   UNL     1       0.235  13.098  18.871  0.00  0.00    +0.000 C 
ATOM     21  C   UNL     1       1.458  14.015  18.781  0.00  0.00    +0.000 C 
ATOM     22  C   UNL     1       0.890  15.433  18.831  0.00  0.00    +0.000 C 
ATOM     23  C   UNL     1      -0.532  15.316  19.379  0.00  0.00    +0.000 C 
ATOM     24  C   UNL     1      -0.697  13.865  19.810  0.00  0.00    +0.000 C 
ENDBRANCH   5  20
BRANCH   7  25
ATOM     25  C   UNL     1       0.060   9.574  22.507  0.00  0.00    +0.000 C 
ATOM     26  F   UNL     1      -0.805   8.524  22.557  0.00  0.00    +0.000 F 
ATOM     27  F   UNL     1       1.138   9.210  23.254  0.00  0.00    +0.000 F 
ATOM     28  F   UNL     1      -0.540  10.587  23.190  0.00  0.00    +0.000 F 
ENDBRANCH   7  25
TORSDOF 4
ENDMDL
