MODEL 1
REMARK VINA RESULT:      -9.3      0.000      0.000
REMARK  Name = 
REMARK  4 active torsions:
REMARK  status: ('A' for Active; 'I' for Inactive)
REMARK    1  A    between atoms: C_2  and  C_15
REMARK    2  A    between atoms: C_6  and  C_7
REMARK    3  A    between atoms: C_17  and  S_18
REMARK    4  A    between atoms: S_18  and  N_21
REMARK                            x       y       z     vdW  Elec       q    Type
REMARK                         _______ _______ _______ _____ _____    ______ ____
ROOT
ATOM      1  C   UNL     1       3.446   6.093  17.900  0.00  0.00    +0.000 A 
ATOM      2  C   UNL     1       4.707   6.239  17.284  0.00  0.00    +0.000 A 
ATOM      3  C   UNL     1       5.523   5.121  17.069  0.00  0.00    +0.000 A 
ATOM      4  C   UNL     1       5.060   3.855  17.410  0.00  0.00    +0.000 A 
ATOM      5  C   UNL     1       3.798   3.700  17.987  0.00  0.00    +0.000 A 
ATOM      6  C   UNL     1       2.986   4.813  18.230  0.00  0.00    +0.000 A 
ATOM      7 CL   UNL     1       1.458   4.472  18.971  0.00  0.00    +0.000 Cl
ENDROOT
BRANCH   1   9
ATOM      8  O   UNL     1       2.867   8.293  17.495  0.00  0.00    +0.000 OA
ATOM      9  C   UNL     1       2.748   7.354  18.273  0.00  0.00    +0.000 C 
ATOM     10  N   UNL     1       2.085   7.361  19.478  0.00  0.00    +0.000 N 
ATOM     11  C   UNL     1       1.543   8.511  19.963  0.00  0.00    +0.000 A 
ATOM     12  N   UNL     1       1.261   9.598  19.304  0.00  0.00    +0.000 NA
ATOM     13  C   UNL     1       0.845  10.578  20.183  0.00  0.00    +0.000 A 
ATOM     14  C   UNL     1       0.821  10.194  21.511  0.00  0.00    +0.000 A 
ATOM     15  S   UNL     1       1.245   8.531  21.641  0.00  0.00    +0.000 S 
ATOM     16  H   UNL     1       2.184   6.601  20.136  0.00  0.00    +0.000 HD
BRANCH  13  17
ATOM     17  C   UNL     1       0.483  11.901  19.697  0.00  0.00    +0.000 A 
ATOM     18  C   UNL     1       1.446  12.696  19.077  0.00  0.00    +0.000 A 
ATOM     19  C   UNL     1       1.072  13.956  18.607  0.00  0.00    +0.000 A 
ATOM     20  C   UNL     1      -0.239  14.376  18.781  0.00  0.00    +0.000 A 
ATOM     21  C   UNL     1      -1.132  13.520  19.407  0.00  0.00    +0.000 A 
ATOM     22  N   UNL     1      -0.806  12.295  19.870  0.00  0.00    +0.000 NA
ENDBRANCH  13  17
ENDBRANCH   1   9
BRANCH   3  23
ATOM     23  S   UNL     1       7.108   5.314  16.252  0.00  0.00    +0.000 S 
ATOM     24  O   UNL     1       7.489   6.702  16.420  0.00  0.00    +0.000 OA
ATOM     25  O   UNL     1       7.960   4.244  16.722  0.00  0.00    +0.000 OA
BRANCH  23  26
ATOM     26  N   UNL     1       6.768   5.048  14.589  0.00  0.00    +0.000 NA
ATOM     27  C   UNL     1       7.896   5.335  13.665  0.00  0.00    +0.000 C 
ATOM     28  C   UNL     1       7.548   5.099  12.199  0.00  0.00    +0.000 C 
ATOM     29  C   UNL     1       6.899   3.743  11.991  0.00  0.00    +0.000 C 
ATOM     30  C   UNL     1       5.633   3.668  12.823  0.00  0.00    +0.000 C 
ATOM     31  C   UNL     1       5.926   3.860  14.306  0.00  0.00    +0.000 C 
ENDBRANCH  23  26
ENDBRANCH   3  23
TORSDOF 4
ENDMDL
MODEL 2
REMARK VINA RESULT:      -9.1      1.588      2.267
REMARK  Name = 
REMARK  4 active torsions:
REMARK  status: ('A' for Active; 'I' for Inactive)
REMARK    1  A    between atoms: C_2  and  C_15
REMARK    2  A    between atoms: C_6  and  C_7
REMARK    3  A    between atoms: C_17  and  S_18
REMARK    4  A    between atoms: S_18  and  N_21
REMARK                            x       y       z     vdW  Elec       q    Type
REMARK                         _______ _______ _______ _____ _____    ______ ____
ROOT
ATOM      1  C   UNL     1       3.289   5.585  18.056  0.00  0.00    +0.000 A 
ATOM      2  C   UNL     1       4.537   5.904  17.481  0.00  0.00    +0.000 A 
ATOM      3  C   UNL     1       5.361   4.891  16.974  0.00  0.00    +0.000 A 
ATOM      4  C   UNL     1       4.918   3.573  16.984  0.00  0.00    +0.000 A 
ATOM      5  C   UNL     1       3.669   3.255  17.519  0.00  0.00    +0.000 A 
ATOM      6  C   UNL     1       2.849   4.256  18.052  0.00  0.00    +0.000 A 
ATOM      7 CL   UNL     1       1.338   3.714  18.702  0.00  0.00    +0.000 Cl
ENDROOT
BRANCH   1   9
ATOM      8  O   UNL     1       1.886   6.384  19.709  0.00  0.00    +0.000 OA
ATOM      9  C   UNL     1       2.584   6.697  18.751  0.00  0.00    +0.000 C 
ATOM     10  N   UNL     1       2.738   7.956  18.219  0.00  0.00    +0.000 N 
ATOM     11  C   UNL     1       2.017   9.004  18.702  0.00  0.00    +0.000 A 
ATOM     12  N   UNL     1       1.400   9.086  19.846  0.00  0.00    +0.000 NA
ATOM     13  C   UNL     1       0.680  10.263  19.900  0.00  0.00    +0.000 A 
ATOM     14  C   UNL     1       0.779  11.056  18.771  0.00  0.00    +0.000 A 
ATOM     15  S   UNL     1       1.877  10.342  17.655  0.00  0.00    +0.000 S 
ATOM     16  H   UNL     1       3.190   8.096  17.327  0.00  0.00    +0.000 HD
BRANCH  13  17
ATOM     17  C   UNL     1      -0.115  10.589  21.074  0.00  0.00    +0.000 A 
ATOM     18  C   UNL     1      -0.050   9.771  22.202  0.00  0.00    +0.000 A 
ATOM     19  C   UNL     1      -0.811  10.112  23.320  0.00  0.00    +0.000 A 
ATOM     20  C   UNL     1      -1.611  11.245  23.270  0.00  0.00    +0.000 A 
ATOM     21  C   UNL     1      -1.613  12.003  22.108  0.00  0.00    +0.000 A 
ATOM     22  N   UNL     1      -0.888  11.706  21.011  0.00  0.00    +0.000 NA
ENDBRANCH  13  17
ENDBRANCH   1   9
BRANCH   3  23
ATOM     23  S   UNL     1       6.929   5.311  16.211  0.00  0.00    +0.000 S 
ATOM     24  O   UNL     1       7.116   6.733  16.416  0.00  0.00    +0.000 OA
ATOM     25  O   UNL     1       7.903   4.354  16.689  0.00  0.00    +0.000 OA
BRANCH  23  26
ATOM     26  N   UNL     1       6.678   5.038  14.533  0.00  0.00    +0.000 NA
ATOM     27  C   UNL     1       7.854   5.317  13.669  0.00  0.00    +0.000 C 
ATOM     28  C   UNL     1       7.584   5.075  12.189  0.00  0.00    +0.000 C 
ATOM     29  C   UNL     1       6.942   3.720  11.952  0.00  0.00    +0.000 C 
ATOM     30  C   UNL     1       5.633   3.654  12.717  0.00  0.00    +0.000 C 
ATOM     31  C   UNL     1       5.847   3.852  14.212  0.00  0.00    +0.000 C 
ENDBRANCH  23  26
ENDBRANCH   3  23
TORSDOF 4
ENDMDL
MODEL 3
REMARK VINA RESULT:      -8.9      2.410      9.331
REMARK  Name = 
REMARK  4 active torsions:
REMARK  status: ('A' for Active; 'I' for Inactive)
REMARK    1  A    between atoms: C_2  and  C_15
REMARK    2  A    between atoms: C_6  and  C_7
REMARK    3  A    between atoms: C_17  and  S_18
REMARK    4  A    between atoms: S_18  and  N_21
REMARK                            x       y       z     vdW  Elec       q    Type
REMARK                         _______ _______ _______ _____ _____    ______ ____
ROOT
ATOM      1  C   UNL     1       2.459   7.391  19.303  0.00  0.00    +0.000 A 
ATOM      2  C   UNL     1       1.984   8.701  19.088  0.00  0.00    +0.000 A 
ATOM      3  C   UNL     1       0.948   9.218  19.877  0.00  0.00    +0.000 A 
ATOM      4  C   UNL     1       0.428   8.454  20.916  0.00  0.00    +0.000 A 
ATOM      5  C   UNL     1       0.919   7.169  21.158  0.00  0.00    +0.000 A 
ATOM      6  C   UNL     1       1.935   6.635  20.360  0.00  0.00    +0.000 A 
ATOM      7 CL   UNL     1       2.427   5.023  20.760  0.00  0.00    +0.000 Cl
ENDROOT
BRANCH   1   9
ATOM      8  O   UNL     1       2.948   6.641  17.173  0.00  0.00    +0.000 OA
ATOM      9  C   UNL     1       3.409   6.861  18.288  0.00  0.00    +0.000 C 
ATOM     10  N   UNL     1       4.695   6.617  18.711  0.00  0.00    +0.000 N 
ATOM     11  C   UNL     1       5.588   5.999  17.891  0.00  0.00    +0.000 A 
ATOM     12  N   UNL     1       5.523   5.870  16.596  0.00  0.00    +0.000 NA
ATOM     13  C   UNL     1       6.558   5.069  16.159  0.00  0.00    +0.000 A 
ATOM     14  C   UNL     1       7.398   4.608  17.156  0.00  0.00    +0.000 A 
ATOM     15  S   UNL     1       6.921   5.276  18.669  0.00  0.00    +0.000 S 
ATOM     16  H   UNL     1       4.942   6.661  19.689  0.00  0.00    +0.000 HD
BRANCH  13  17
ATOM     17  C   UNL     1       6.702   4.755  14.745  0.00  0.00    +0.000 A 
ATOM     18  C   UNL     1       5.859   3.812  14.157  0.00  0.00    +0.000 A 
ATOM     19  C   UNL     1       6.008   3.538  12.797  0.00  0.00    +0.000 A 
ATOM     20  C   UNL     1       6.992   4.204  12.080  0.00  0.00    +0.000 A 
ATOM     21  C   UNL     1       7.786   5.128  12.744  0.00  0.00    +0.000 A 
ATOM     22  N   UNL     1       7.667   5.420  14.056  0.00  0.00    +0.000 NA
ENDBRANCH  13  17
ENDBRANCH   1   9
BRANCH   3  23
ATOM     23  S   UNL     1       0.379  10.899  19.618  0.00  0.00    +0.000 S 
ATOM     24  O   UNL     1       0.252  11.496  20.931  0.00  0.00    +0.000 OA
ATOM     25  O   UNL     1       1.237  11.485  18.611  0.00  0.00    +0.000 OA
BRANCH  23  26
ATOM     26  N   UNL     1      -1.196  10.721  18.953  0.00  0.00    +0.000 NA
ATOM     27  C   UNL     1      -2.101  11.880  19.168  0.00  0.00    +0.000 C 
ATOM     28  C   UNL     1      -3.491  11.675  18.576  0.00  0.00    +0.000 C 
ATOM     29  C   UNL     1      -3.419  11.196  17.137  0.00  0.00    +0.000 C 
ATOM     30  C   UNL     1      -2.658   9.884  17.091  0.00  0.00    +0.000 C 
ATOM     31  C   UNL     1      -1.244  10.038  17.637  0.00  0.00    +0.000 C 
ENDBRANCH  23  26
ENDBRANCH   3  23
TORSDOF 4
ENDMDL
MODEL 4
REMARK VINA RESULT:      -8.6      2.071      2.553
REMARK  Name = 
REMARK  4 active torsions:
REMARK  status: ('A' for Active; 'I' for Inactive)
REMARK    1  A    between atoms: C_2  and  C_15
REMARK    2  A    between atoms: C_6  and  C_7
REMARK    3  A    between atoms: C_17  and  S_18
REMARK    4  A    between atoms: S_18  and  N_21
REMARK                            x       y       z     vdW  Elec       q    Type
REMARK                         _______ _______ _______ _____ _____    ______ ____
ROOT
ATOM      1  C   UNL     1       3.009   5.726  19.518  0.00  0.00    +0.000 A 
ATOM      2  C   UNL     1       4.256   5.978  18.909  0.00  0.00    +0.000 A 
ATOM      3  C   UNL     1       5.166   4.933  18.701  0.00  0.00    +0.000 A 
ATOM      4  C   UNL     1       4.811   3.633  19.044  0.00  0.00    +0.000 A 
ATOM      5  C   UNL     1       3.564   3.372  19.615  0.00  0.00    +0.000 A 
ATOM      6  C   UNL     1       2.658   4.412  19.850  0.00  0.00    +0.000 A 
ATOM      7 CL   UNL     1       1.161   3.944  20.584  0.00  0.00    +0.000 Cl
ENDROOT
BRANCH   1   9
ATOM      8  O   UNL     1       1.519   6.831  20.896  0.00  0.00    +0.000 OA
ATOM      9  C   UNL     1       2.203   6.924  19.884  0.00  0.00    +0.000 C 
ATOM     10  N   UNL     1       2.261   7.994  19.022  0.00  0.00    +0.000 N 
ATOM     11  C   UNL     1       1.448   9.071  19.201  0.00  0.00    +0.000 A 
ATOM     12  N   UNL     1       0.809   9.415  20.283  0.00  0.00    +0.000 NA
ATOM     13  C   UNL     1      -0.006  10.496  20.014  0.00  0.00    +0.000 A 
ATOM     14  C   UNL     1       0.043  10.951  18.709  0.00  0.00    +0.000 A 
ATOM     15  S   UNL     1       1.214  10.050  17.826  0.00  0.00    +0.000 S 
ATOM     16  H   UNL     1       2.713   7.920  18.122  0.00  0.00    +0.000 HD
BRANCH  13  17
ATOM     17  C   UNL     1      -0.844  11.067  21.059  0.00  0.00    +0.000 A 
ATOM     18  C   UNL     1      -1.762  12.066  20.739  0.00  0.00    +0.000 A 
ATOM     19  C   UNL     1      -2.563  12.588  21.756  0.00  0.00    +0.000 A 
ATOM     20  C   UNL     1      -2.412  12.104  23.047  0.00  0.00    +0.000 A 
ATOM     21  C   UNL     1      -1.475  11.107  23.276  0.00  0.00    +0.000 A 
ATOM     22  N   UNL     1      -0.688  10.577  22.317  0.00  0.00    +0.000 NA
ENDBRANCH  13  17
ENDBRANCH   1   9
BRANCH   3  23
ATOM     23  S   UNL     1       6.733   5.258  17.892  0.00  0.00    +0.000 S 
ATOM     24  O   UNL     1       7.061   6.641  18.174  0.00  0.00    +0.000 OA
ATOM     25  O   UNL     1       7.631   4.187  18.263  0.00  0.00    +0.000 OA
BRANCH  23  26
ATOM     26  N   UNL     1       6.386   5.120  16.214  0.00  0.00    +0.000 NA
ATOM     27  C   UNL     1       7.579   5.040  15.332  0.00  0.00    +0.000 C 
ATOM     28  C   UNL     1       7.227   4.933  13.853  0.00  0.00    +0.000 C 
ATOM     29  C   UNL     1       6.191   3.851  13.602  0.00  0.00    +0.000 C 
ATOM     30  C   UNL     1       4.937   4.177  14.392  0.00  0.00    +0.000 C 
ATOM     31  C   UNL     1       5.223   4.260  15.886  0.00  0.00    +0.000 C 
ENDBRANCH  23  26
ENDBRANCH   3  23
TORSDOF 4
ENDMDL
MODEL 5
REMARK VINA RESULT:      -8.4      3.177      9.444
REMARK  Name = 
REMARK  4 active torsions:
REMARK  status: ('A' for Active; 'I' for Inactive)
REMARK    1  A    between atoms: C_2  and  C_15
REMARK    2  A    between atoms: C_6  and  C_7
REMARK    3  A    between atoms: C_17  and  S_18
REMARK    4  A    between atoms: S_18  and  N_21
REMARK                            x       y       z     vdW  Elec       q    Type
REMARK                         _______ _______ _______ _____ _____    ______ ____
ROOT
ATOM      1  C   UNL     1       0.565  10.738  18.801  0.00  0.00    +0.000 A 
ATOM      2  C   UNL     1       1.064  11.792  19.595  0.00  0.00    +0.000 A 
ATOM      3  C   UNL     1       0.327  12.974  19.745  0.00  0.00    +0.000 A 
ATOM      4  C   UNL     1      -0.927  13.083  19.156  0.00  0.00    +0.000 A 
ATOM      5  C   UNL     1      -1.442  12.030  18.397  0.00  0.00    +0.000 A 
ATOM      6  C   UNL     1      -0.704  10.855  18.220  0.00  0.00    +0.000 A 
ATOM      7 CL   UNL     1      -1.456   9.644  17.238  0.00  0.00    +0.000 Cl
ENDROOT
BRANCH   1   9
ATOM      8  O   UNL     1       2.088   9.637  17.455  0.00  0.00    +0.000 OA
ATOM      9  C   UNL     1       1.506   9.615  18.534  0.00  0.00    +0.000 C 
ATOM     10  N   UNL     1       1.588   8.636  19.496  0.00  0.00    +0.000 N 
ATOM     11  C   UNL     1       2.311   7.504  19.271  0.00  0.00    +0.000 A 
ATOM     12  N   UNL     1       3.239   7.317  18.377  0.00  0.00    +0.000 NA
ATOM     13  C   UNL     1       3.635   5.995  18.391  0.00  0.00    +0.000 A 
ATOM     14  C   UNL     1       2.983   5.203  19.319  0.00  0.00    +0.000 A 
ATOM     15  S   UNL     1       1.912   6.171  20.255  0.00  0.00    +0.000 S 
ATOM     16  H   UNL     1       0.944   8.608  20.273  0.00  0.00    +0.000 HD
BRANCH  13  17
ATOM     17  C   UNL     1       4.656   5.520  17.470  0.00  0.00    +0.000 A 
ATOM     18  C   UNL     1       4.410   4.392  16.687  0.00  0.00    +0.000 A 
ATOM     19  C   UNL     1       5.400   3.964  15.801  0.00  0.00    +0.000 A 
ATOM     20  C   UNL     1       6.594   4.667  15.736  0.00  0.00    +0.000 A 
ATOM     21  C   UNL     1       6.754   5.779  16.550  0.00  0.00    +0.000 A 
ATOM     22  N   UNL     1       5.818   6.223  17.414  0.00  0.00    +0.000 NA
ENDBRANCH  13  17
ENDBRANCH   1   9
BRANCH   3  23
ATOM     23  S   UNL     1       0.954  14.292  20.787  0.00  0.00    +0.000 S 
ATOM     24  O   UNL     1      -0.156  15.193  21.021  0.00  0.00    +0.000 OA
ATOM     25  O   UNL     1       1.650  13.664  21.889  0.00  0.00    +0.000 OA
BRANCH  23  26
ATOM     26  N   UNL     1       2.109  15.103  19.807  0.00  0.00    +0.000 NA
ATOM     27  C   UNL     1       3.355  14.337  19.542  0.00  0.00    +0.000 C 
ATOM     28  C   UNL     1       4.357  15.098  18.681  0.00  0.00    +0.000 C 
ATOM     29  C   UNL     1       3.701  15.675  17.439  0.00  0.00    +0.000 C 
ATOM     30  C   UNL     1       2.588  16.616  17.861  0.00  0.00    +0.000 C 
ATOM     31  C   UNL     1       1.534  15.899  18.695  0.00  0.00    +0.000 C 
ENDBRANCH  23  26
ENDBRANCH   3  23
TORSDOF 4
ENDMDL
MODEL 6
REMARK VINA RESULT:      -8.4      3.071      9.887
REMARK  Name = 
REMARK  4 active torsions:
REMARK  status: ('A' for Active; 'I' for Inactive)
REMARK    1  A    between atoms: C_2  and  C_15
REMARK    2  A    between atoms: C_6  and  C_7
REMARK    3  A    between atoms: C_17  and  S_18
REMARK    4  A    between atoms: S_18  and  N_21
REMARK                            x       y       z     vdW  Elec       q    Type
REMARK                         _______ _______ _______ _____ _____    ______ ____
ROOT
ATOM      1  C   UNL     1       0.550  10.674  18.910  0.00  0.00    +0.000 A 
ATOM      2  C   UNL     1       1.104  11.633  19.784  0.00  0.00    +0.000 A 
ATOM      3  C   UNL     1       0.419  12.825  20.052  0.00  0.00    +0.000 A 
ATOM      4  C   UNL     1      -0.840  13.036  19.501  0.00  0.00    +0.000 A 
ATOM      5  C   UNL     1      -1.410  12.075  18.663  0.00  0.00    +0.000 A 
ATOM      6  C   UNL     1      -0.723  10.892  18.368  0.00  0.00    +0.000 A 
ATOM      7 CL   UNL     1      -1.541   9.803  17.298  0.00  0.00    +0.000 Cl
ENDROOT
BRANCH   1   9
ATOM      8  O   UNL     1       1.872   9.557  17.380  0.00  0.00    +0.000 OA
ATOM      9  C   UNL     1       1.439   9.544  18.526  0.00  0.00    +0.000 C 
ATOM     10  N   UNL     1       1.642   8.568  19.474  0.00  0.00    +0.000 N 
ATOM     11  C   UNL     1       2.321   7.430  19.161  0.00  0.00    +0.000 A 
ATOM     12  N   UNL     1       3.120   7.232  18.151  0.00  0.00    +0.000 NA
ATOM     13  C   UNL     1       3.506   5.907  18.120  0.00  0.00    +0.000 A 
ATOM     14  C   UNL     1       2.978   5.124  19.130  0.00  0.00    +0.000 A 
ATOM     15  S   UNL     1       2.048   6.105  20.196  0.00  0.00    +0.000 S 
ATOM     16  H   UNL     1       1.107   8.548  20.330  0.00  0.00    +0.000 HD
BRANCH  13  17
ATOM     17  C   UNL     1       4.392   5.421  17.073  0.00  0.00    +0.000 A 
ATOM     18  C   UNL     1       4.680   4.059  16.988  0.00  0.00    +0.000 A 
ATOM     19  C   UNL     1       5.521   3.616  15.968  0.00  0.00    +0.000 A 
ATOM     20  C   UNL     1       6.049   4.542  15.080  0.00  0.00    +0.000 A 
ATOM     21  C   UNL     1       5.709   5.878  15.237  0.00  0.00    +0.000 A 
ATOM     22  N   UNL     1       4.896   6.341  16.208  0.00  0.00    +0.000 NA
ENDBRANCH  13  17
ENDBRANCH   1   9
BRANCH   3  23
ATOM     23  S   UNL     1       1.117  14.020  21.194  0.00  0.00    +0.000 S 
ATOM     24  O   UNL     1       0.112  14.248  22.212  0.00  0.00    +0.000 OA
ATOM     25  O   UNL     1       2.440  13.548  21.543  0.00  0.00    +0.000 OA
BRANCH  23  26
ATOM     26  N   UNL     1       1.280  15.457  20.266  0.00  0.00    +0.000 NA
ATOM     27  C   UNL     1       1.975  15.287  18.964  0.00  0.00    +0.000 C 
ATOM     28  C   UNL     1       2.111  16.587  18.180  0.00  0.00    +0.000 C 
ATOM     29  C   UNL     1       0.787  17.325  18.090  0.00  0.00    +0.000 C 
ATOM     30  C   UNL     1       0.298  17.636  19.493  0.00  0.00    +0.000 C 
ATOM     31  C   UNL     1       0.108  16.366  20.312  0.00  0.00    +0.000 C 
ENDBRANCH  23  26
ENDBRANCH   3  23
TORSDOF 4
ENDMDL
MODEL 7
REMARK VINA RESULT:      -8.4      2.621      3.498
REMARK  Name = 
REMARK  4 active torsions:
REMARK  status: ('A' for Active; 'I' for Inactive)
REMARK    1  A    between atoms: C_2  and  C_15
REMARK    2  A    between atoms: C_6  and  C_7
REMARK    3  A    between atoms: C_17  and  S_18
REMARK    4  A    between atoms: S_18  and  N_21
REMARK                            x       y       z     vdW  Elec       q    Type
REMARK                         _______ _______ _______ _____ _____    ______ ____
ROOT
ATOM      1  C   UNL     1       2.549   5.125  18.443  0.00  0.00    +0.000 A 
ATOM      2  C   UNL     1       3.622   5.318  17.548  0.00  0.00    +0.000 A 
ATOM      3  C   UNL     1       4.340   4.219  17.057  0.00  0.00    +0.000 A 
ATOM      4  C   UNL     1       3.953   2.931  17.407  0.00  0.00    +0.000 A 
ATOM      5  C   UNL     1       2.869   2.732  18.265  0.00  0.00    +0.000 A 
ATOM      6  C   UNL     1       2.161   3.822  18.781  0.00  0.00    +0.000 A 
ATOM      7 CL   UNL     1       0.857   3.426  19.849  0.00  0.00    +0.000 Cl
ENDROOT
BRANCH   1   9
ATOM      8  O   UNL     1       1.189   6.182  19.982  0.00  0.00    +0.000 OA
ATOM      9  C   UNL     1       1.986   6.353  19.067  0.00  0.00    +0.000 C 
ATOM     10  N   UNL     1       2.371   7.556  18.523  0.00  0.00    +0.000 N 
ATOM     11  C   UNL     1       1.796   8.718  18.936  0.00  0.00    +0.000 A 
ATOM     12  N   UNL     1       1.129   8.930  20.035  0.00  0.00    +0.000 NA
ATOM     13  C   UNL     1       0.603  10.206  20.018  0.00  0.00    +0.000 A 
ATOM     14  C   UNL     1       0.896  10.940  18.884  0.00  0.00    +0.000 A 
ATOM     15  S   UNL     1       1.936  10.030  17.857  0.00  0.00    +0.000 S 
ATOM     16  H   UNL     1       2.894   7.598  17.660  0.00  0.00    +0.000 HD
BRANCH  13  17
ATOM     17  C   UNL     1      -0.202  10.687  21.131  0.00  0.00    +0.000 A 
ATOM     18  C   UNL     1      -0.291   9.929  22.298  0.00  0.00    +0.000 A 
ATOM     19  C   UNL     1      -1.058  10.419  23.356  0.00  0.00    +0.000 A 
ATOM     20  C   UNL     1      -1.712  11.633  23.208  0.00  0.00    +0.000 A 
ATOM     21  C   UNL     1      -1.568  12.322  22.012  0.00  0.00    +0.000 A 
ATOM     22  N   UNL     1      -0.832  11.881  20.971  0.00  0.00    +0.000 NA
ENDBRANCH  13  17
ENDBRANCH   1   9
BRANCH   3  23
ATOM     23  S   UNL     1       5.679   4.475  15.890  0.00  0.00    +0.000 S 
ATOM     24  O   UNL     1       6.196   3.161  15.566  0.00  0.00    +0.000 OA
ATOM     25  O   UNL     1       5.177   5.355  14.858  0.00  0.00    +0.000 OA
BRANCH  23  26
ATOM     26  N   UNL     1       6.876   5.318  16.789  0.00  0.00    +0.000 NA
ATOM     27  C   UNL     1       6.773   6.799  16.735  0.00  0.00    +0.000 C 
ATOM     28  C   UNL     1       7.861   7.508  17.533  0.00  0.00    +0.000 C 
ATOM     29  C   UNL     1       7.985   6.940  18.936  0.00  0.00    +0.000 C 
ATOM     30  C   UNL     1       8.315   5.461  18.842  0.00  0.00    +0.000 C 
ATOM     31  C   UNL     1       7.238   4.695  18.085  0.00  0.00    +0.000 C 
ENDBRANCH  23  26
ENDBRANCH   3  23
TORSDOF 4
ENDMDL
MODEL 8
REMARK VINA RESULT:      -8.4      3.887     10.363
REMARK  Name = 
REMARK  4 active torsions:
REMARK  status: ('A' for Active; 'I' for Inactive)
REMARK    1  A    between atoms: C_2  and  C_15
REMARK    2  A    between atoms: C_6  and  C_7
REMARK    3  A    between atoms: C_17  and  S_18
REMARK    4  A    between atoms: S_18  and  N_21
REMARK                            x       y       z     vdW  Elec       q    Type
REMARK                         _______ _______ _______ _____ _____    ______ ____
ROOT
ATOM      1  C   UNL     1       0.139  10.391  18.643  0.00  0.00    +0.000 A 
ATOM      2  C   UNL     1      -1.067  10.112  17.967  0.00  0.00    +0.000 A 
ATOM      3  C   UNL     1      -2.208  10.890  18.204  0.00  0.00    +0.000 A 
ATOM      4  C   UNL     1      -2.132  11.979  19.065  0.00  0.00    +0.000 A 
ATOM      5  C   UNL     1      -0.932  12.282  19.710  0.00  0.00    +0.000 A 
ATOM      6  C   UNL     1       0.207  11.496  19.500  0.00  0.00    +0.000 A 
ATOM      7 CL   UNL     1       1.616  11.975  20.384  0.00  0.00    +0.000 Cl
ENDROOT
BRANCH   1   9
ATOM      8  O   UNL     1       1.841   9.416  17.424  0.00  0.00    +0.000 OA
ATOM      9  C   UNL     1       1.228   9.389  18.484  0.00  0.00    +0.000 C 
ATOM     10  N   UNL     1       1.402   8.496  19.516  0.00  0.00    +0.000 N 
ATOM     11  C   UNL     1       2.275   7.458  19.393  0.00  0.00    +0.000 A 
ATOM     12  N   UNL     1       3.252   7.337  18.541  0.00  0.00    +0.000 NA
ATOM     13  C   UNL     1       3.818   6.084  18.661  0.00  0.00    +0.000 A 
ATOM     14  C   UNL     1       3.241   5.276  19.624  0.00  0.00    +0.000 A 
ATOM     15  S   UNL     1       2.018   6.154  20.459  0.00  0.00    +0.000 S 
ATOM     16  H   UNL     1       0.739   8.435  20.275  0.00  0.00    +0.000 HD
BRANCH  13  17
ATOM     17  C   UNL     1       4.926   5.689  17.804  0.00  0.00    +0.000 A 
ATOM     18  C   UNL     1       6.057   5.097  18.367  0.00  0.00    +0.000 A 
ATOM     19  C   UNL     1       7.100   4.714  17.524  0.00  0.00    +0.000 A 
ATOM     20  C   UNL     1       6.983   4.943  16.160  0.00  0.00    +0.000 A 
ATOM     21  C   UNL     1       5.822   5.536  15.686  0.00  0.00    +0.000 A 
ATOM     22  N   UNL     1       4.792   5.915  16.471  0.00  0.00    +0.000 NA
ENDBRANCH  13  17
ENDBRANCH   1   9
BRANCH   3  23
ATOM     23  S   UNL     1      -3.725  10.549  17.310  0.00  0.00    +0.000 S 
ATOM     24  O   UNL     1      -3.494  10.958  15.939  0.00  0.00    +0.000 OA
ATOM     25  O   UNL     1      -4.108   9.191  17.629  0.00  0.00    +0.000 OA
BRANCH  23  26
ATOM     26  N   UNL     1      -4.881  11.616  18.002  0.00  0.00    +0.000 NA
ATOM     27  C   UNL     1      -5.598  12.480  17.029  0.00  0.00    +0.000 C 
ATOM     28  C   UNL     1      -6.602  13.420  17.686  0.00  0.00    +0.000 C 
ATOM     29  C   UNL     1      -7.510  12.680  18.652  0.00  0.00    +0.000 C 
ATOM     30  C   UNL     1      -6.660  12.027  19.726  0.00  0.00    +0.000 C 
ATOM     31  C   UNL     1      -5.660  11.046  19.128  0.00  0.00    +0.000 C 
ENDBRANCH  23  26
ENDBRANCH   3  23
TORSDOF 4
ENDMDL
MODEL 9
REMARK VINA RESULT:      -8.3      3.323      9.947
REMARK  Name = 
REMARK  4 active torsions:
REMARK  status: ('A' for Active; 'I' for Inactive)
REMARK    1  A    between atoms: C_2  and  C_15
REMARK    2  A    between atoms: C_6  and  C_7
REMARK    3  A    between atoms: C_17  and  S_18
REMARK    4  A    between atoms: S_18  and  N_21
REMARK                            x       y       z     vdW  Elec       q    Type
REMARK                         _______ _______ _______ _____ _____    ______ ____
ROOT
ATOM      1  C   UNL     1       0.510  11.013  18.800  0.00  0.00    +0.000 A 
ATOM      2  C   UNL     1       1.193  12.189  19.175  0.00  0.00    +0.000 A 
ATOM      3  C   UNL     1       0.501  13.402  19.291  0.00  0.00    +0.000 A 
ATOM      4  C   UNL     1      -0.876  13.431  19.094  0.00  0.00    +0.000 A 
ATOM      5  C   UNL     1      -1.562  12.263  18.758  0.00  0.00    +0.000 A 
ATOM      6  C   UNL     1      -0.877  11.052  18.614  0.00  0.00    +0.000 A 
ATOM      7 CL   UNL     1      -1.853   9.692  18.171  0.00  0.00    +0.000 Cl
ENDROOT
BRANCH   1   9
ATOM      8  O   UNL     1       1.808   9.752  17.363  0.00  0.00    +0.000 OA
ATOM      9  C   UNL     1       1.360   9.828  18.501  0.00  0.00    +0.000 C 
ATOM     10  N   UNL     1       1.515   8.907  19.511  0.00  0.00    +0.000 N 
ATOM     11  C   UNL     1       2.154   7.727  19.281  0.00  0.00    +0.000 A 
ATOM     12  N   UNL     1       2.957   7.436  18.298  0.00  0.00    +0.000 NA
ATOM     13  C   UNL     1       3.292   6.098  18.355  0.00  0.00    +0.000 A 
ATOM     14  C   UNL     1       2.723   5.401  19.405  0.00  0.00    +0.000 A 
ATOM     15  S   UNL     1       1.817   6.481  20.393  0.00  0.00    +0.000 S 
ATOM     16  H   UNL     1       0.969   8.962  20.359  0.00  0.00    +0.000 HD
BRANCH  13  17
ATOM     17  C   UNL     1       4.172   5.514  17.354  0.00  0.00    +0.000 A 
ATOM     18  C   UNL     1       4.831   6.342  16.445  0.00  0.00    +0.000 A 
ATOM     19  C   UNL     1       5.680   5.759  15.504  0.00  0.00    +0.000 A 
ATOM     20  C   UNL     1       5.833   4.379  15.498  0.00  0.00    +0.000 A 
ATOM     21  C   UNL     1       5.141   3.632  16.440  0.00  0.00    +0.000 A 
ATOM     22  N   UNL     1       4.315   4.162  17.366  0.00  0.00    +0.000 NA
ENDBRANCH  13  17
ENDBRANCH   1   9
BRANCH   3  23
ATOM     23  S   UNL     1       1.372  14.883  19.805  0.00  0.00    +0.000 S 
ATOM     24  O   UNL     1       0.686  15.374  20.983  0.00  0.00    +0.000 OA
ATOM     25  O   UNL     1       2.780  14.553  19.844  0.00  0.00    +0.000 OA
BRANCH  23  26
ATOM     26  N   UNL     1       1.111  16.000  18.526  0.00  0.00    +0.000 NA
ATOM     27  C   UNL     1      -0.128  16.812  18.645  0.00  0.00    +0.000 C 
ATOM     28  C   UNL     1      -0.328  17.778  17.483  0.00  0.00    +0.000 C 
ATOM     29  C   UNL     1       0.926  18.589  17.210  0.00  0.00    +0.000 C 
ATOM     30  C   UNL     1       2.064  17.641  16.881  0.00  0.00    +0.000 C 
ATOM     31  C   UNL     1       2.335  16.673  18.026  0.00  0.00    +0.000 C 
ENDBRANCH  23  26
ENDBRANCH   3  23
TORSDOF 4
ENDMDL
