MODEL 1
REMARK VINA RESULT:      -8.4      0.000      0.000
REMARK  Name = 
REMARK  3 active torsions:
REMARK  status: ('A' for Active; 'I' for Inactive)
REMARK    1  A    between atoms: C_2  and  C_12
REMARK    2  A    between atoms: C_16  and  N_17
REMARK    3  A    between atoms: C_18  and  C_20
REMARK                            x       y       z     vdW  Elec       q    Type
REMARK                         _______ _______ _______ _____ _____    ______ ____
ROOT
ATOM      1  C   UNL     1       5.163   5.649  18.066  0.00  0.00    +0.000 A 
ATOM      2  C   UNL     1       6.343   5.432  18.784  0.00  0.00    +0.000 A 
ATOM      3  C   UNL     1       7.442   4.873  18.148  0.00  0.00    +0.000 A 
ATOM      4  C   UNL     1       7.360   4.495  16.806  0.00  0.00    +0.000 A 
ATOM      5  C   UNL     1       6.175   4.647  16.077  0.00  0.00    +0.000 A 
ATOM      6  C   UNL     1       5.073   5.238  16.718  0.00  0.00    +0.000 A 
ENDROOT
BRANCH   1   8
ATOM      7  O   UNL     1       3.516   5.732  19.713  0.00  0.00    +0.000 OA
ATOM      8  C   UNL     1       3.993   6.294  18.735  0.00  0.00    +0.000 C 
ATOM      9  N   UNL     1       3.547   7.440  18.103  0.00  0.00    +0.000 N 
ATOM     10  C   UNL     1       2.482   8.219  18.509  0.00  0.00    +0.000 A 
ATOM     11  C   UNL     1       1.864   9.200  17.659  0.00  0.00    +0.000 A 
ATOM     12  C   UNL     1       0.809   9.665  18.393  0.00  0.00    +0.000 A 
ATOM     13  N   UNL     1       0.912   9.059  19.594  0.00  0.00    +0.000 N 
ATOM     14  N   UNL     1       1.887   8.172  19.709  0.00  0.00    +0.000 NA
ATOM     15  C   UNL     1      -0.096   9.427  20.562  0.00  0.00    +0.000 C 
ATOM     16  C   UNL     1      -0.962  10.430  19.770  0.00  0.00    +0.000 C 
ATOM     17  C   UNL     1      -0.367  10.543  18.337  0.00  0.00    +0.000 C 
ATOM     18  H   UNL     1       3.921   7.672  17.197  0.00  0.00    +0.000 HD
ENDBRANCH   1   8
BRANCH   5  19
ATOM     19  N   UNL     1       6.040   4.204  14.732  0.00  0.00    +0.000 N 
ATOM     20  C   UNL     1       6.780   4.641  13.635  0.00  0.00    +0.000 C 
ATOM     21  O   UNL     1       7.609   5.548  13.646  0.00  0.00    +0.000 OA
ATOM     22  H   UNL     1       5.359   3.476  14.576  0.00  0.00    +0.000 HD
BRANCH  20  23
ATOM     23  C   UNL     1       6.480   3.877  12.334  0.00  0.00    +0.000 C 
ATOM     24  C   UNL     1       5.068   3.279  12.383  0.00  0.00    +0.000 C 
ATOM     25  C   UNL     1       4.753   2.434  11.152  0.00  0.00    +0.000 C 
ATOM     26  C   UNL     1       5.790   1.339  10.935  0.00  0.00    +0.000 C 
ATOM     27  C   UNL     1       7.194   1.924  10.851  0.00  0.00    +0.000 C 
ATOM     28  C   UNL     1       7.524   2.764  12.084  0.00  0.00    +0.000 C 
ENDBRANCH  20  23
ENDBRANCH   5  19
TORSDOF 3
ENDMDL
MODEL 2
REMARK VINA RESULT:      -8.2      1.978      3.235
REMARK  Name = 
REMARK  3 active torsions:
REMARK  status: ('A' for Active; 'I' for Inactive)
REMARK    1  A    between atoms: C_2  and  C_12
REMARK    2  A    between atoms: C_16  and  N_17
REMARK    3  A    between atoms: C_18  and  C_20
REMARK                            x       y       z     vdW  Elec       q    Type
REMARK                         _______ _______ _______ _____ _____    ______ ____
ROOT
ATOM      1  C   UNL     1       2.904   6.277  19.033  0.00  0.00    +0.000 A 
ATOM      2  C   UNL     1       2.782   5.294  20.020  0.00  0.00    +0.000 A 
ATOM      3  C   UNL     1       3.445   4.085  19.872  0.00  0.00    +0.000 A 
ATOM      4  C   UNL     1       4.203   3.835  18.726  0.00  0.00    +0.000 A 
ATOM      5  C   UNL     1       4.296   4.775  17.695  0.00  0.00    +0.000 A 
ATOM      6  C   UNL     1       3.646   6.010  17.861  0.00  0.00    +0.000 A 
ENDROOT
BRANCH   1   8
ATOM      7  O   UNL     1       2.460   8.471  18.386  0.00  0.00    +0.000 OA
ATOM      8  C   UNL     1       2.229   7.598  19.211  0.00  0.00    +0.000 C 
ATOM      9  N   UNL     1       1.461   7.685  20.359  0.00  0.00    +0.000 N 
ATOM     10  C   UNL     1       0.743   8.792  20.763  0.00  0.00    +0.000 A 
ATOM     11  C   UNL     1       0.230   8.945  22.097  0.00  0.00    +0.000 A 
ATOM     12  C   UNL     1      -0.318  10.197  22.106  0.00  0.00    +0.000 A 
ATOM     13  N   UNL     1      -0.207  10.647  20.839  0.00  0.00    +0.000 N 
ATOM     14  N   UNL     1       0.436   9.851  20.000  0.00  0.00    +0.000 NA
ATOM     15  C   UNL     1      -0.757  11.961  20.598  0.00  0.00    +0.000 C 
ATOM     16  C   UNL     1      -1.276  12.362  21.995  0.00  0.00    +0.000 C 
ATOM     17  C   UNL     1      -0.946  11.200  22.976  0.00  0.00    +0.000 C 
ATOM     18  H   UNL     1       1.523   6.947  21.042  0.00  0.00    +0.000 HD
ENDBRANCH   1   8
BRANCH   5  19
ATOM     19  N   UNL     1       4.999   4.520  16.484  0.00  0.00    +0.000 N 
ATOM     20  C   UNL     1       6.276   4.971  16.154  0.00  0.00    +0.000 C 
ATOM     21  O   UNL     1       6.961   5.738  16.826  0.00  0.00    +0.000 OA
ATOM     22  H   UNL     1       4.528   3.924  15.821  0.00  0.00    +0.000 HD
BRANCH  20  23
ATOM     23  C   UNL     1       6.808   4.420  14.820  0.00  0.00    +0.000 C 
ATOM     24  C   UNL     1       7.553   5.519  14.051  0.00  0.00    +0.000 C 
ATOM     25  C   UNL     1       8.024   5.048  12.678  0.00  0.00    +0.000 C 
ATOM     26  C   UNL     1       6.875   4.497  11.843  0.00  0.00    +0.000 C 
ATOM     27  C   UNL     1       6.147   3.381  12.582  0.00  0.00    +0.000 C 
ATOM     28  C   UNL     1       5.663   3.844  13.955  0.00  0.00    +0.000 C 
ENDBRANCH  20  23
ENDBRANCH   5  19
TORSDOF 3
ENDMDL
MODEL 3
REMARK VINA RESULT:      -8.2      2.190      9.822
REMARK  Name = 
REMARK  3 active torsions:
REMARK  status: ('A' for Active; 'I' for Inactive)
REMARK    1  A    between atoms: C_2  and  C_12
REMARK    2  A    between atoms: C_16  and  N_17
REMARK    3  A    between atoms: C_18  and  C_20
REMARK                            x       y       z     vdW  Elec       q    Type
REMARK                         _______ _______ _______ _____ _____    ______ ____
ROOT
ATOM      1  C   UNL     1       3.530   5.631  18.442  0.00  0.00    +0.000 A 
ATOM      2  C   UNL     1       3.131   4.346  18.824  0.00  0.00    +0.000 A 
ATOM      3  C   UNL     1       2.217   4.189  19.857  0.00  0.00    +0.000 A 
ATOM      4  C   UNL     1       1.726   5.306  20.537  0.00  0.00    +0.000 A 
ATOM      5  C   UNL     1       2.152   6.599  20.216  0.00  0.00    +0.000 A 
ATOM      6  C   UNL     1       3.055   6.756  19.151  0.00  0.00    +0.000 A 
ENDROOT
BRANCH   1   8
ATOM      7  O   UNL     1       4.994   6.905  17.152  0.00  0.00    +0.000 OA
ATOM      8  C   UNL     1       4.477   5.806  17.300  0.00  0.00    +0.000 C 
ATOM      9  N   UNL     1       4.598   4.687  16.495  0.00  0.00    +0.000 N 
ATOM     10  C   UNL     1       5.397   4.586  15.374  0.00  0.00    +0.000 A 
ATOM     11  C   UNL     1       5.250   3.536  14.402  0.00  0.00    +0.000 A 
ATOM     12  C   UNL     1       6.147   3.856  13.422  0.00  0.00    +0.000 A 
ATOM     13  N   UNL     1       6.809   4.939  13.881  0.00  0.00    +0.000 N 
ATOM     14  N   UNL     1       6.387   5.425  15.037  0.00  0.00    +0.000 NA
ATOM     15  C   UNL     1       7.847   5.444  13.012  0.00  0.00    +0.000 C 
ATOM     16  C   UNL     1       7.767   4.480  11.809  0.00  0.00    +0.000 C 
ATOM     17  C   UNL     1       6.620   3.466  12.087  0.00  0.00    +0.000 C 
ATOM     18  H   UNL     1       3.961   3.918  16.632  0.00  0.00    +0.000 HD
ENDBRANCH   1   8
BRANCH   5  19
ATOM     19  N   UNL     1       1.726   7.749  20.938  0.00  0.00    +0.000 N 
ATOM     20  C   UNL     1       1.220   8.930  20.397  0.00  0.00    +0.000 C 
ATOM     21  O   UNL     1       1.149   9.196  19.200  0.00  0.00    +0.000 OA
ATOM     22  H   UNL     1       1.767   7.676  21.943  0.00  0.00    +0.000 HD
BRANCH  20  23
ATOM     23  C   UNL     1       0.731   9.940  21.449  0.00  0.00    +0.000 C 
ATOM     24  C   UNL     1      -0.389   9.323  22.297  0.00  0.00    +0.000 C 
ATOM     25  C   UNL     1      -0.973  10.317  23.297  0.00  0.00    +0.000 C 
ATOM     26  C   UNL     1      -1.459  11.590  22.615  0.00  0.00    +0.000 C 
ATOM     27  C   UNL     1      -0.345  12.230  21.796  0.00  0.00    +0.000 C 
ATOM     28  C   UNL     1       0.240  11.247  20.784  0.00  0.00    +0.000 C 
ENDBRANCH  20  23
ENDBRANCH   5  19
TORSDOF 3
ENDMDL
MODEL 4
REMARK VINA RESULT:      -8.0      2.039      2.834
REMARK  Name = 
REMARK  3 active torsions:
REMARK  status: ('A' for Active; 'I' for Inactive)
REMARK    1  A    between atoms: C_2  and  C_12
REMARK    2  A    between atoms: C_16  and  N_17
REMARK    3  A    between atoms: C_18  and  C_20
REMARK                            x       y       z     vdW  Elec       q    Type
REMARK                         _______ _______ _______ _____ _____    ______ ____
ROOT
ATOM      1  C   UNL     1       2.646   4.570  19.065  0.00  0.00    +0.000 A 
ATOM      2  C   UNL     1       2.304   3.327  19.606  0.00  0.00    +0.000 A 
ATOM      3  C   UNL     1       2.853   2.169  19.072  0.00  0.00    +0.000 A 
ATOM      4  C   UNL     1       3.716   2.242  17.976  0.00  0.00    +0.000 A 
ATOM      5  C   UNL     1       4.031   3.466  17.377  0.00  0.00    +0.000 A 
ATOM      6  C   UNL     1       3.494   4.637  17.937  0.00  0.00    +0.000 A 
ENDROOT
BRANCH   1   8
ATOM      7  O   UNL     1       1.520   5.729  20.744  0.00  0.00    +0.000 OA
ATOM      8  C   UNL     1       2.093   5.820  19.666  0.00  0.00    +0.000 C 
ATOM      9  N   UNL     1       2.247   6.941  18.870  0.00  0.00    +0.000 N 
ATOM     10  C   UNL     1       1.821   8.216  19.186  0.00  0.00    +0.000 A 
ATOM     11  C   UNL     1       1.716   9.267  18.210  0.00  0.00    +0.000 A 
ATOM     12  C   UNL     1       1.171  10.313  18.901  0.00  0.00    +0.000 A 
ATOM     13  N   UNL     1       1.088   9.895  20.181  0.00  0.00    +0.000 N 
ATOM     14  N   UNL     1       1.449   8.641  20.401  0.00  0.00    +0.000 NA
ATOM     15  C   UNL     1       0.563  10.863  21.116  0.00  0.00    +0.000 C 
ATOM     16  C   UNL     1       0.268  12.074  20.204  0.00  0.00    +0.000 C 
ATOM     17  C   UNL     1       0.645  11.676  18.749  0.00  0.00    +0.000 C 
ATOM     18  H   UNL     1       2.569   6.824  17.922  0.00  0.00    +0.000 HD
ENDBRANCH   1   8
BRANCH   5  19
ATOM     19  N   UNL     1       4.847   3.564  16.216  0.00  0.00    +0.000 N 
ATOM     20  C   UNL     1       6.035   4.282  16.094  0.00  0.00    +0.000 C 
ATOM     21  O   UNL     1       6.518   5.019  16.950  0.00  0.00    +0.000 OA
ATOM     22  H   UNL     1       4.541   3.028  15.417  0.00  0.00    +0.000 HD
BRANCH  20  23
ATOM     23  C   UNL     1       6.748   4.087  14.744  0.00  0.00    +0.000 C 
ATOM     24  C   UNL     1       7.457   5.382  14.327  0.00  0.00    +0.000 C 
ATOM     25  C   UNL     1       8.106   5.270  12.950  0.00  0.00    +0.000 C 
ATOM     26  C   UNL     1       7.103   4.842  11.885  0.00  0.00    +0.000 C 
ATOM     27  C   UNL     1       6.415   3.539  12.272  0.00  0.00    +0.000 C 
ATOM     28  C   UNL     1       5.755   3.643  13.645  0.00  0.00    +0.000 C 
ENDBRANCH  20  23
ENDBRANCH   5  19
TORSDOF 3
ENDMDL
MODEL 5
REMARK VINA RESULT:      -8.0      2.102      2.732
REMARK  Name = 
REMARK  3 active torsions:
REMARK  status: ('A' for Active; 'I' for Inactive)
REMARK    1  A    between atoms: C_2  and  C_12
REMARK    2  A    between atoms: C_16  and  N_17
REMARK    3  A    between atoms: C_18  and  C_20
REMARK                            x       y       z     vdW  Elec       q    Type
REMARK                         _______ _______ _______ _____ _____    ______ ____
ROOT
ATOM      1  C   UNL     1       2.752   4.501  19.464  0.00  0.00    +0.000 A 
ATOM      2  C   UNL     1       2.854   3.199  19.964  0.00  0.00    +0.000 A 
ATOM      3  C   UNL     1       3.526   2.232  19.232  0.00  0.00    +0.000 A 
ATOM      4  C   UNL     1       4.068   2.546  17.983  0.00  0.00    +0.000 A 
ATOM      5  C   UNL     1       3.931   3.823  17.430  0.00  0.00    +0.000 A 
ATOM      6  C   UNL     1       3.274   4.808  18.188  0.00  0.00    +0.000 A 
ENDROOT
BRANCH   1   8
ATOM      7  O   UNL     1       1.492   5.208  21.292  0.00  0.00    +0.000 OA
ATOM      8  C   UNL     1       2.070   5.557  20.271  0.00  0.00    +0.000 C 
ATOM      9  N   UNL     1       2.125   6.818  19.706  0.00  0.00    +0.000 N 
ATOM     10  C   UNL     1       1.571   7.964  20.241  0.00  0.00    +0.000 A 
ATOM     11  C   UNL     1       1.378   9.167  19.478  0.00  0.00    +0.000 A 
ATOM     12  C   UNL     1       0.723  10.007  20.334  0.00  0.00    +0.000 A 
ATOM     13  N   UNL     1       0.662   9.347  21.509  0.00  0.00    +0.000 N 
ATOM     14  N   UNL     1       1.141   8.113  21.502  0.00  0.00    +0.000 NA
ATOM     15  C   UNL     1       0.030  10.065  22.591  0.00  0.00    +0.000 C 
ATOM     16  C   UNL     1      -0.368  11.395  21.915  0.00  0.00    +0.000 C 
ATOM     17  C   UNL     1       0.068  11.319  20.424  0.00  0.00    +0.000 C 
ATOM     18  H   UNL     1       2.471   6.914  18.764  0.00  0.00    +0.000 HD
ENDBRANCH   1   8
BRANCH   5  19
ATOM     19  N   UNL     1       4.407   4.152  16.130  0.00  0.00    +0.000 N 
ATOM     20  C   UNL     1       5.700   4.548  15.795  0.00  0.00    +0.000 C 
ATOM     21  O   UNL     1       6.613   4.763  16.589  0.00  0.00    +0.000 OA
ATOM     22  H   UNL     1       3.740   4.051  15.380  0.00  0.00    +0.000 HD
BRANCH  20  23
ATOM     23  C   UNL     1       5.932   4.712  14.283  0.00  0.00    +0.000 C 
ATOM     24  C   UNL     1       5.499   3.442  13.539  0.00  0.00    +0.000 C 
ATOM     25  C   UNL     1       5.792   3.518  12.043  0.00  0.00    +0.000 C 
ATOM     26  C   UNL     1       7.259   3.824  11.767  0.00  0.00    +0.000 C 
ATOM     27  C   UNL     1       7.693   5.102  12.474  0.00  0.00    +0.000 C 
ATOM     28  C   UNL     1       7.413   5.033  13.975  0.00  0.00    +0.000 C 
ENDBRANCH  20  23
ENDBRANCH   5  19
TORSDOF 3
ENDMDL
MODEL 6
REMARK VINA RESULT:      -8.0      6.966     11.192
REMARK  Name = 
REMARK  3 active torsions:
REMARK  status: ('A' for Active; 'I' for Inactive)
REMARK    1  A    between atoms: C_2  and  C_12
REMARK    2  A    between atoms: C_16  and  N_17
REMARK    3  A    between atoms: C_18  and  C_20
REMARK                            x       y       z     vdW  Elec       q    Type
REMARK                         _______ _______ _______ _____ _____    ______ ____
ROOT
ATOM      1  C   UNL     1       9.501  10.585  19.043  0.00  0.00    +0.000 A 
ATOM      2  C   UNL     1      10.679  11.061  18.459  0.00  0.00    +0.000 A 
ATOM      3  C   UNL     1      11.543  11.853  19.202  0.00  0.00    +0.000 A 
ATOM      4  C   UNL     1      11.221  12.204  20.515  0.00  0.00    +0.000 A 
ATOM      5  C   UNL     1      10.022  11.791  21.107  0.00  0.00    +0.000 A 
ATOM      6  C   UNL     1       9.163  10.966  20.360  0.00  0.00    +0.000 A 
ENDROOT
BRANCH   1   8
ATOM      7  O   UNL     1       7.891  10.209  17.400  0.00  0.00    +0.000 OA
ATOM      8  C   UNL     1       8.592   9.694  18.261  0.00  0.00    +0.000 C 
ATOM      9  N   UNL     1       8.613   8.373  18.671  0.00  0.00    +0.000 N 
ATOM     10  C   UNL     1       7.865   7.349  18.124  0.00  0.00    +0.000 A 
ATOM     11  C   UNL     1       7.681   6.082  18.777  0.00  0.00    +0.000 A 
ATOM     12  C   UNL     1       6.812   5.408  17.966  0.00  0.00    +0.000 A 
ATOM     13  N   UNL     1       6.624   6.209  16.896  0.00  0.00    +0.000 N 
ATOM     14  N   UNL     1       7.219   7.390  16.950  0.00  0.00    +0.000 NA
ATOM     15  C   UNL     1       5.752   5.680  15.872  0.00  0.00    +0.000 C 
ATOM     16  C   UNL     1       5.340   4.316  16.464  0.00  0.00    +0.000 C 
ATOM     17  C   UNL     1       6.022   4.174  17.854  0.00  0.00    +0.000 C 
ATOM     18  H   UNL     1       9.098   8.135  19.521  0.00  0.00    +0.000 HD
ENDBRANCH   1   8
BRANCH   5  19
ATOM     19  N   UNL     1       9.633  12.192  22.415  0.00  0.00    +0.000 N 
ATOM     20  C   UNL     1       8.587  13.054  22.743  0.00  0.00    +0.000 C 
ATOM     21  O   UNL     1       7.892  13.674  21.942  0.00  0.00    +0.000 OA
ATOM     22  H   UNL     1      10.152  11.778  23.174  0.00  0.00    +0.000 HD
BRANCH  20  23
ATOM     23  C   UNL     1       8.341  13.192  24.255  0.00  0.00    +0.000 C 
ATOM     24  C   UNL     1       7.635  11.941  24.794  0.00  0.00    +0.000 C 
ATOM     25  C   UNL     1       7.286  12.065  26.275  0.00  0.00    +0.000 C 
ATOM     26  C   UNL     1       6.457  13.312  26.560  0.00  0.00    +0.000 C 
ATOM     27  C   UNL     1       7.164  14.565  26.058  0.00  0.00    +0.000 C 
ATOM     28  C   UNL     1       7.509  14.455  24.574  0.00  0.00    +0.000 C 
ENDBRANCH  20  23
ENDBRANCH   5  19
TORSDOF 3
ENDMDL
MODEL 7
REMARK VINA RESULT:      -8.0      1.736      2.355
REMARK  Name = 
REMARK  3 active torsions:
REMARK  status: ('A' for Active; 'I' for Inactive)
REMARK    1  A    between atoms: C_2  and  C_12
REMARK    2  A    between atoms: C_16  and  N_17
REMARK    3  A    between atoms: C_18  and  C_20
REMARK                            x       y       z     vdW  Elec       q    Type
REMARK                         _______ _______ _______ _____ _____    ______ ____
ROOT
ATOM      1  C   UNL     1       2.969   5.559  19.315  0.00  0.00    +0.000 A 
ATOM      2  C   UNL     1       3.276   4.460  20.123  0.00  0.00    +0.000 A 
ATOM      3  C   UNL     1       4.070   3.438  19.622  0.00  0.00    +0.000 A 
ATOM      4  C   UNL     1       4.531   3.488  18.305  0.00  0.00    +0.000 A 
ATOM      5  C   UNL     1       4.193   4.546  17.454  0.00  0.00    +0.000 A 
ATOM      6  C   UNL     1       3.412   5.592  17.974  0.00  0.00    +0.000 A 
ENDROOT
BRANCH   1   8
ATOM      7  O   UNL     1       1.546   6.486  20.911  0.00  0.00    +0.000 OA
ATOM      8  C   UNL     1       2.154   6.682  19.867  0.00  0.00    +0.000 C 
ATOM      9  N   UNL     1       2.138   7.810  19.065  0.00  0.00    +0.000 N 
ATOM     10  C   UNL     1       1.458   8.980  19.338  0.00  0.00    +0.000 A 
ATOM     11  C   UNL     1       1.212   9.989  18.343  0.00  0.00    +0.000 A 
ATOM     12  C   UNL     1       0.439  10.914  18.987  0.00  0.00    +0.000 A 
ATOM     13  N   UNL     1       0.362  10.492  20.266  0.00  0.00    +0.000 N 
ATOM     14  N   UNL     1       0.942   9.330  20.524  0.00  0.00    +0.000 NA
ATOM     15  C   UNL     1      -0.392  11.344  21.155  0.00  0.00    +0.000 C 
ATOM     16  C   UNL     1      -0.858  12.474  20.212  0.00  0.00    +0.000 C 
ATOM     17  C   UNL     1      -0.328  12.151  18.786  0.00  0.00    +0.000 C 
ATOM     18  H   UNL     1       2.531   7.753  18.139  0.00  0.00    +0.000 HD
ENDBRANCH   1   8
BRANCH   5  19
ATOM     19  N   UNL     1       4.586   4.588  16.088  0.00  0.00    +0.000 N 
ATOM     20  C   UNL     1       5.634   5.331  15.547  0.00  0.00    +0.000 C 
ATOM     21  O   UNL     1       6.329   6.139  16.159  0.00  0.00    +0.000 OA
ATOM     22  H   UNL     1       4.067   3.990  15.463  0.00  0.00    +0.000 HD
BRANCH  20  23
ATOM     23  C   UNL     1       5.884   5.064  14.053  0.00  0.00    +0.000 C 
ATOM     24  C   UNL     1       5.270   3.719  13.643  0.00  0.00    +0.000 C 
ATOM     25  C   UNL     1       5.567   3.365  12.189  0.00  0.00    +0.000 C 
ATOM     26  C   UNL     1       7.063   3.380  11.896  0.00  0.00    +0.000 C 
ATOM     27  C   UNL     1       7.680   4.723  12.268  0.00  0.00    +0.000 C 
ATOM     28  C   UNL     1       7.395   5.084  13.726  0.00  0.00    +0.000 C 
ENDBRANCH  20  23
ENDBRANCH   5  19
TORSDOF 3
ENDMDL
MODEL 8
REMARK VINA RESULT:      -8.0      4.737     10.706
REMARK  Name = 
REMARK  3 active torsions:
REMARK  status: ('A' for Active; 'I' for Inactive)
REMARK    1  A    between atoms: C_2  and  C_12
REMARK    2  A    between atoms: C_16  and  N_17
REMARK    3  A    between atoms: C_18  and  C_20
REMARK                            x       y       z     vdW  Elec       q    Type
REMARK                         _______ _______ _______ _____ _____    ______ ____
ROOT
ATOM      1  C   UNL     1       1.264  10.290  18.471  0.00  0.00    +0.000 A 
ATOM      2  C   UNL     1       2.030  11.456  18.373  0.00  0.00    +0.000 A 
ATOM      3  C   UNL     1       1.418  12.694  18.507  0.00  0.00    +0.000 A 
ATOM      4  C   UNL     1       0.037  12.778  18.703  0.00  0.00    +0.000 A 
ATOM      5  C   UNL     1      -0.763  11.632  18.747  0.00  0.00    +0.000 A 
ATOM      6  C   UNL     1      -0.136  10.379  18.638  0.00  0.00    +0.000 A 
ENDROOT
BRANCH   1   8
ATOM      7  O   UNL     1       2.490   8.674  17.324  0.00  0.00    +0.000 OA
ATOM      8  C   UNL     1       1.927   8.955  18.373  0.00  0.00    +0.000 C 
ATOM      9  N   UNL     1       1.754   8.161  19.492  0.00  0.00    +0.000 N 
ATOM     10  C   UNL     1       2.255   6.885  19.657  0.00  0.00    +0.000 A 
ATOM     11  C   UNL     1       1.789   5.991  20.682  0.00  0.00    +0.000 A 
ATOM     12  C   UNL     1       2.456   4.822  20.438  0.00  0.00    +0.000 A 
ATOM     13  N   UNL     1       3.301   5.096  19.422  0.00  0.00    +0.000 N 
ATOM     14  N   UNL     1       3.208   6.312  18.908  0.00  0.00    +0.000 NA
ATOM     15  C   UNL     1       4.145   4.000  19.007  0.00  0.00    +0.000 C 
ATOM     16  C   UNL     1       3.698   2.864  19.951  0.00  0.00    +0.000 C 
ATOM     17  C   UNL     1       2.564   3.419  20.859  0.00  0.00    +0.000 C 
ATOM     18  H   UNL     1       1.102   8.455  20.202  0.00  0.00    +0.000 HD
ENDBRANCH   1   8
BRANCH   5  19
ATOM     19  N   UNL     1      -2.179  11.689  18.871  0.00  0.00    +0.000 N 
ATOM     20  C   UNL     1      -3.111  11.487  17.854  0.00  0.00    +0.000 C 
ATOM     21  O   UNL     1      -2.849  11.316  16.666  0.00  0.00    +0.000 OA
ATOM     22  H   UNL     1      -2.532  11.860  19.800  0.00  0.00    +0.000 HD
BRANCH  20  23
ATOM     23  C   UNL     1      -4.573  11.493  18.335  0.00  0.00    +0.000 C 
ATOM     24  C   UNL     1      -5.490  12.049  17.238  0.00  0.00    +0.000 C 
ATOM     25  C   UNL     1      -6.941  12.161  17.698  0.00  0.00    +0.000 C 
ATOM     26  C   UNL     1      -7.071  12.986  18.972  0.00  0.00    +0.000 C 
ATOM     27  C   UNL     1      -6.189  12.424  20.080  0.00  0.00    +0.000 C 
ATOM     28  C   UNL     1      -4.731  12.317  19.634  0.00  0.00    +0.000 C 
ENDBRANCH  20  23
ENDBRANCH   5  19
TORSDOF 3
ENDMDL
MODEL 9
REMARK VINA RESULT:      -8.0      2.001      3.358
REMARK  Name = 
REMARK  3 active torsions:
REMARK  status: ('A' for Active; 'I' for Inactive)
REMARK    1  A    between atoms: C_2  and  C_12
REMARK    2  A    between atoms: C_16  and  N_17
REMARK    3  A    between atoms: C_18  and  C_20
REMARK                            x       y       z     vdW  Elec       q    Type
REMARK                         _______ _______ _______ _____ _____    ______ ____
ROOT
ATOM      1  C   UNL     1       2.730   7.149  18.571  0.00  0.00    +0.000 A 
ATOM      2  C   UNL     1       2.604   6.355  19.715  0.00  0.00    +0.000 A 
ATOM      3  C   UNL     1       3.282   5.147  19.792  0.00  0.00    +0.000 A 
ATOM      4  C   UNL     1       4.059   4.707  18.717  0.00  0.00    +0.000 A 
ATOM      5  C   UNL     1       4.157   5.452  17.537  0.00  0.00    +0.000 A 
ATOM      6  C   UNL     1       3.492   6.688  17.474  0.00  0.00    +0.000 A 
ENDROOT
BRANCH   1   8
ATOM      7  O   UNL     1       2.126   9.108  17.462  0.00  0.00    +0.000 OA
ATOM      8  C   UNL     1       2.039   8.472  18.504  0.00  0.00    +0.000 C 
ATOM      9  N   UNL     1       1.429   8.846  19.687  0.00  0.00    +0.000 N 
ATOM     10  C   UNL     1       0.733  10.020  19.897  0.00  0.00    +0.000 A 
ATOM     11  C   UNL     1       0.398  10.505  21.208  0.00  0.00    +0.000 A 
ATOM     12  C   UNL     1      -0.187  11.719  20.978  0.00  0.00    +0.000 A 
ATOM     13  N   UNL     1      -0.263  11.833  19.636  0.00  0.00    +0.000 N 
ATOM     14  N   UNL     1       0.289  10.850  18.942  0.00  0.00    +0.000 NA
ATOM     15  C   UNL     1      -0.886  13.043  19.151  0.00  0.00    +0.000 C 
ATOM     16  C   UNL     1      -1.228  13.784  20.461  0.00  0.00    +0.000 C 
ATOM     17  C   UNL     1      -0.729  12.910  21.647  0.00  0.00    +0.000 C 
ATOM     18  H   UNL     1       1.608   8.305  20.519  0.00  0.00    +0.000 HD
ENDBRANCH   1   8
BRANCH   5  19
ATOM     19  N   UNL     1       4.880   4.996  16.400  0.00  0.00    +0.000 N 
ATOM     20  C   UNL     1       6.119   5.460  15.962  0.00  0.00    +0.000 C 
ATOM     21  O   UNL     1       6.741   6.404  16.443  0.00  0.00    +0.000 OA
ATOM     22  H   UNL     1       4.458   4.236  15.887  0.00  0.00    +0.000 HD
BRANCH  20  23
ATOM     23  C   UNL     1       6.695   4.676  14.770  0.00  0.00    +0.000 C 
ATOM     24  C   UNL     1       7.546   5.599  13.888  0.00  0.00    +0.000 C 
ATOM     25  C   UNL     1       8.068   4.891  12.641  0.00  0.00    +0.000 C 
ATOM     26  C   UNL     1       6.939   4.268  11.829  0.00  0.00    +0.000 C 
ATOM     27  C   UNL     1       6.106   3.322  12.685  0.00  0.00    +0.000 C 
ATOM     28  C   UNL     1       5.571   4.024  13.933  0.00  0.00    +0.000 C 
ENDBRANCH  20  23
ENDBRANCH   5  19
TORSDOF 3
ENDMDL
