MODEL 1
REMARK VINA RESULT:      -8.7      0.000      0.000
REMARK  Name = 
REMARK  5 active torsions:
REMARK  status: ('A' for Active; 'I' for Inactive)
REMARK    1  A    between atoms: C_2  and  C_11
REMARK    2  A    between atoms: N_3  and  C_4
REMARK    3  A    between atoms: C_4  and  C_5
REMARK    4  A    between atoms: N_13  and  C_14
REMARK    5  A    between atoms: C_14  and  C_15
REMARK                            x       y       z     vdW  Elec       q    Type
REMARK                         _______ _______ _______ _____ _____    ______ ____
ROOT
ATOM      1  C   UNL     1       2.492   6.447  19.018  0.00  0.00    +0.000 A 
ATOM      2  N   UNL     1       3.399   6.781  18.141  0.00  0.00    +0.000 NA
ATOM      3  N   UNL     1       4.027   5.782  17.415  0.00  0.00    +0.000 N 
ATOM      4  C   UNL     1       3.751   4.424  17.553  0.00  0.00    +0.000 A 
ATOM      5  O   UNL     1       4.285   3.539  16.891  0.00  0.00    +0.000 OA
ATOM      6  C   UNL     1       2.744   4.056  18.562  0.00  0.00    +0.000 A 
ATOM      7  C   UNL     1       2.465   2.700  18.800  0.00  0.00    +0.000 A 
ATOM      8  C   UNL     1       1.514   2.337  19.751  0.00  0.00    +0.000 A 
ATOM      9  C   UNL     1       0.820   3.326  20.441  0.00  0.00    +0.000 A 
ATOM     10  C   UNL     1       1.089   4.676  20.193  0.00  0.00    +0.000 A 
ATOM     11  C   UNL     1       2.080   5.048  19.273  0.00  0.00    +0.000 A 
ENDROOT
BRANCH   1  13
ATOM     12  O   UNL     1       1.701   7.504  21.027  0.00  0.00    +0.000 OA
ATOM     13  C   UNL     1       1.862   7.600  19.819  0.00  0.00    +0.000 C 
ATOM     14  N   UNL     1       1.526   8.706  19.084  0.00  0.00    +0.000 N 
ATOM     15  H   UNL     1       1.900   8.780  18.142  0.00  0.00    +0.000 HD
BRANCH  14  16
ATOM     16  C   UNL     1       0.950   9.879  19.709  0.00  0.00    +0.000 C 
BRANCH  16  17
ATOM     17  C   UNL     1      -0.337  10.349  19.067  0.00  0.00    +0.000 A 
ATOM     18  C   UNL     1      -0.741   9.838  17.834  0.00  0.00    +0.000 A 
ATOM     19  C   UNL     1      -1.906  10.325  17.246  0.00  0.00    +0.000 A 
ATOM     20  C   UNL     1      -2.639  11.303  17.903  0.00  0.00    +0.000 A 
ATOM     21  C   UNL     1      -2.179  11.750  19.130  0.00  0.00    +0.000 A 
ATOM     22  N   UNL     1      -1.054  11.295  19.728  0.00  0.00    +0.000 NA
ENDBRANCH  16  17
ENDBRANCH  14  16
ENDBRANCH   1  13
BRANCH   3  23
ATOM     23  C   UNL     1       5.101   6.192  16.509  0.00  0.00    +0.000 C 
BRANCH  23  24
ATOM     24  C   UNL     1       6.326   6.680  17.253  0.00  0.00    +0.000 A 
ATOM     25  C   UNL     1       6.964   5.861  18.198  0.00  0.00    +0.000 A 
ATOM     26  C   UNL     1       8.052   6.336  18.932  0.00  0.00    +0.000 A 
ATOM     27  C   UNL     1       8.519   7.633  18.727  0.00  0.00    +0.000 A 
ATOM     28  C   UNL     1       7.904   8.451  17.779  0.00  0.00    +0.000 A 
ATOM     29  C   UNL     1       6.812   7.979  17.047  0.00  0.00    +0.000 A 
ENDBRANCH  23  24
ENDBRANCH   3  23
TORSDOF 5
ENDMDL
MODEL 2
REMARK VINA RESULT:      -8.4      2.441      7.080
REMARK  Name = 
REMARK  5 active torsions:
REMARK  status: ('A' for Active; 'I' for Inactive)
REMARK    1  A    between atoms: C_2  and  C_11
REMARK    2  A    between atoms: N_3  and  C_4
REMARK    3  A    between atoms: C_4  and  C_5
REMARK    4  A    between atoms: N_13  and  C_14
REMARK    5  A    between atoms: C_14  and  C_15
REMARK                            x       y       z     vdW  Elec       q    Type
REMARK                         _______ _______ _______ _____ _____    ______ ____
ROOT
ATOM      1  C   UNL     1       4.232   5.099  19.008  0.00  0.00    +0.000 A 
ATOM      2  N   UNL     1       3.812   6.133  19.686  0.00  0.00    +0.000 NA
ATOM      3  N   UNL     1       2.541   6.102  20.234  0.00  0.00    +0.000 N 
ATOM      4  C   UNL     1       1.664   5.026  20.115  0.00  0.00    +0.000 A 
ATOM      5  O   UNL     1       0.548   4.984  20.625  0.00  0.00    +0.000 OA
ATOM      6  C   UNL     1       2.137   3.875  19.328  0.00  0.00    +0.000 A 
ATOM      7  C   UNL     1       1.280   2.783  19.113  0.00  0.00    +0.000 A 
ATOM      8  C   UNL     1       1.714   1.687  18.370  0.00  0.00    +0.000 A 
ATOM      9  C   UNL     1       3.012   1.667  17.871  0.00  0.00    +0.000 A 
ATOM     10  C   UNL     1       3.870   2.748  18.098  0.00  0.00    +0.000 A 
ATOM     11  C   UNL     1       3.423   3.877  18.802  0.00  0.00    +0.000 A 
ENDROOT
BRANCH   1  13
ATOM     12  O   UNL     1       6.634   5.074  19.084  0.00  0.00    +0.000 OA
ATOM     13  C   UNL     1       5.637   5.214  18.392  0.00  0.00    +0.000 C 
ATOM     14  N   UNL     1       5.664   5.461  17.044  0.00  0.00    +0.000 N 
ATOM     15  H   UNL     1       4.802   5.337  16.522  0.00  0.00    +0.000 HD
BRANCH  14  16
ATOM     16  C   UNL     1       6.916   5.566  16.324  0.00  0.00    +0.000 C 
BRANCH  16  17
ATOM     17  C   UNL     1       6.855   5.047  14.903  0.00  0.00    +0.000 A 
ATOM     18  C   UNL     1       5.878   4.125  14.528  0.00  0.00    +0.000 A 
ATOM     19  C   UNL     1       5.875   3.631  13.225  0.00  0.00    +0.000 A 
ATOM     20  C   UNL     1       6.842   4.071  12.332  0.00  0.00    +0.000 A 
ATOM     21  C   UNL     1       7.769   4.997  12.777  0.00  0.00    +0.000 A 
ATOM     22  N   UNL     1       7.796   5.499  14.033  0.00  0.00    +0.000 NA
ENDBRANCH  16  17
ENDBRANCH  14  16
ENDBRANCH   1  13
BRANCH   3  23
ATOM     23  C   UNL     1       2.075   7.315  20.909  0.00  0.00    +0.000 C 
BRANCH  23  24
ATOM     24  C   UNL     1       1.504   8.328  19.939  0.00  0.00    +0.000 A 
ATOM     25  C   UNL     1       0.495   9.216  20.343  0.00  0.00    +0.000 A 
ATOM     26  C   UNL     1      -0.078  10.105  19.432  0.00  0.00    +0.000 A 
ATOM     27  C   UNL     1       0.354  10.118  18.106  0.00  0.00    +0.000 A 
ATOM     28  C   UNL     1       1.367   9.252  17.697  0.00  0.00    +0.000 A 
ATOM     29  C   UNL     1       1.938   8.360  18.607  0.00  0.00    +0.000 A 
ENDBRANCH  23  24
ENDBRANCH   3  23
TORSDOF 5
ENDMDL
MODEL 3
REMARK VINA RESULT:      -8.3      0.592      1.310
REMARK  Name = 
REMARK  5 active torsions:
REMARK  status: ('A' for Active; 'I' for Inactive)
REMARK    1  A    between atoms: C_2  and  C_11
REMARK    2  A    between atoms: N_3  and  C_4
REMARK    3  A    between atoms: C_4  and  C_5
REMARK    4  A    between atoms: N_13  and  C_14
REMARK    5  A    between atoms: C_14  and  C_15
REMARK                            x       y       z     vdW  Elec       q    Type
REMARK                         _______ _______ _______ _____ _____    ______ ____
ROOT
ATOM      1  C   UNL     1       2.571   6.241  18.896  0.00  0.00    +0.000 A 
ATOM      2  N   UNL     1       3.521   6.600  18.076  0.00  0.00    +0.000 NA
ATOM      3  N   UNL     1       4.161   5.627  17.327  0.00  0.00    +0.000 N 
ATOM      4  C   UNL     1       3.855   4.270  17.383  0.00  0.00    +0.000 A 
ATOM      5  O   UNL     1       4.400   3.408  16.699  0.00  0.00    +0.000 OA
ATOM      6  C   UNL     1       2.799   3.871  18.329  0.00  0.00    +0.000 A 
ATOM      7  C   UNL     1       2.485   2.511  18.484  0.00  0.00    +0.000 A 
ATOM      8  C   UNL     1       1.487   2.120  19.376  0.00  0.00    +0.000 A 
ATOM      9  C   UNL     1       0.783   3.087  20.085  0.00  0.00    +0.000 A 
ATOM     10  C   UNL     1       1.087   4.442  19.919  0.00  0.00    +0.000 A 
ATOM     11  C   UNL     1       2.123   4.840  19.061  0.00  0.00    +0.000 A 
ENDROOT
BRANCH   1  13
ATOM     12  O   UNL     1       1.705   7.207  20.919  0.00  0.00    +0.000 OA
ATOM     13  C   UNL     1       1.929   7.364  19.728  0.00  0.00    +0.000 C 
ATOM     14  N   UNL     1       1.656   8.517  19.040  0.00  0.00    +0.000 N 
ATOM     15  H   UNL     1       2.078   8.632  18.123  0.00  0.00    +0.000 HD
BRANCH  14  16
ATOM     16  C   UNL     1       1.077   9.669  19.700  0.00  0.00    +0.000 C 
BRANCH  16  17
ATOM     17  C   UNL     1      -0.165  10.207  19.023  0.00  0.00    +0.000 A 
ATOM     18  C   UNL     1      -0.911  11.224  19.618  0.00  0.00    +0.000 A 
ATOM     19  C   UNL     1      -2.075  11.667  18.993  0.00  0.00    +0.000 A 
ATOM     20  C   UNL     1      -2.461  11.089  17.792  0.00  0.00    +0.000 A 
ATOM     21  C   UNL     1      -1.660  10.095  17.259  0.00  0.00    +0.000 A 
ATOM     22  N   UNL     1      -0.523   9.646  17.839  0.00  0.00    +0.000 NA
ENDBRANCH  16  17
ENDBRANCH  14  16
ENDBRANCH   1  13
BRANCH   3  23
ATOM     23  C   UNL     1       5.280   6.060  16.488  0.00  0.00    +0.000 C 
BRANCH  23  24
ATOM     24  C   UNL     1       6.398   6.681  17.299  0.00  0.00    +0.000 A 
ATOM     25  C   UNL     1       6.787   8.012  17.080  0.00  0.00    +0.000 A 
ATOM     26  C   UNL     1       7.862   8.563  17.781  0.00  0.00    +0.000 A 
ATOM     27  C   UNL     1       8.557   7.792  18.711  0.00  0.00    +0.000 A 
ATOM     28  C   UNL     1       8.169   6.474  18.949  0.00  0.00    +0.000 A 
ATOM     29  C   UNL     1       7.097   5.920  18.246  0.00  0.00    +0.000 A 
ENDBRANCH  23  24
ENDBRANCH   3  23
TORSDOF 5
ENDMDL
MODEL 4
REMARK VINA RESULT:      -8.3      2.287      3.242
REMARK  Name = 
REMARK  5 active torsions:
REMARK  status: ('A' for Active; 'I' for Inactive)
REMARK    1  A    between atoms: C_2  and  C_11
REMARK    2  A    between atoms: N_3  and  C_4
REMARK    3  A    between atoms: C_4  and  C_5
REMARK    4  A    between atoms: N_13  and  C_14
REMARK    5  A    between atoms: C_14  and  C_15
REMARK                            x       y       z     vdW  Elec       q    Type
REMARK                         _______ _______ _______ _____ _____    ______ ____
ROOT
ATOM      1  C   UNL     1       3.297   6.313  18.608  0.00  0.00    +0.000 A 
ATOM      2  N   UNL     1       4.477   6.197  18.063  0.00  0.00    +0.000 NA
ATOM      3  N   UNL     1       5.197   5.032  18.267  0.00  0.00    +0.000 N 
ATOM      4  C   UNL     1       4.742   3.955  19.023  0.00  0.00    +0.000 A 
ATOM      5  O   UNL     1       5.366   2.909  19.182  0.00  0.00    +0.000 OA
ATOM      6  C   UNL     1       3.421   4.104  19.654  0.00  0.00    +0.000 A 
ATOM      7  C   UNL     1       2.929   3.082  20.483  0.00  0.00    +0.000 A 
ATOM      8  C   UNL     1       1.680   3.211  21.087  0.00  0.00    +0.000 A 
ATOM      9  C   UNL     1       0.909   4.341  20.838  0.00  0.00    +0.000 A 
ATOM     10  C   UNL     1       1.394   5.351  20.000  0.00  0.00    +0.000 A 
ATOM     11  C   UNL     1       2.671   5.252  19.429  0.00  0.00    +0.000 A 
ENDROOT
BRANCH   1  13
ATOM     12  O   UNL     1       2.571   8.175  17.274  0.00  0.00    +0.000 OA
ATOM     13  C   UNL     1       2.567   7.647  18.376  0.00  0.00    +0.000 C 
ATOM     14  N   UNL     1       1.925   8.160  19.473  0.00  0.00    +0.000 N 
ATOM     15  H   UNL     1       1.790   7.546  20.271  0.00  0.00    +0.000 HD
BRANCH  14  16
ATOM     16  C   UNL     1       1.172   9.395  19.395  0.00  0.00    +0.000 C 
BRANCH  16  17
ATOM     17  C   UNL     1       0.499   9.788  20.692  0.00  0.00    +0.000 A 
ATOM     18  C   UNL     1       0.547   8.941  21.800  0.00  0.00    +0.000 A 
ATOM     19  C   UNL     1      -0.122   9.310  22.965  0.00  0.00    +0.000 A 
ATOM     20  C   UNL     1      -0.815  10.511  22.998  0.00  0.00    +0.000 A 
ATOM     21  C   UNL     1      -0.804  11.302  21.862  0.00  0.00    +0.000 A 
ATOM     22  N   UNL     1      -0.162  10.975  20.717  0.00  0.00    +0.000 NA
ENDBRANCH  16  17
ENDBRANCH  14  16
ENDBRANCH   1  13
BRANCH   3  23
ATOM     23  C   UNL     1       6.552   4.980  17.714  0.00  0.00    +0.000 C 
BRANCH  23  24
ATOM     24  C   UNL     1       6.555   4.681  16.230  0.00  0.00    +0.000 A 
ATOM     25  C   UNL     1       7.478   5.304  15.375  0.00  0.00    +0.000 A 
ATOM     26  C   UNL     1       7.438   5.079  13.998  0.00  0.00    +0.000 A 
ATOM     27  C   UNL     1       6.477   4.224  13.459  0.00  0.00    +0.000 A 
ATOM     28  C   UNL     1       5.566   3.586  14.300  0.00  0.00    +0.000 A 
ATOM     29  C   UNL     1       5.602   3.814  15.677  0.00  0.00    +0.000 A 
ENDBRANCH  23  24
ENDBRANCH   3  23
TORSDOF 5
ENDMDL
MODEL 5
REMARK VINA RESULT:      -8.2      2.373      7.215
REMARK  Name = 
REMARK  5 active torsions:
REMARK  status: ('A' for Active; 'I' for Inactive)
REMARK    1  A    between atoms: C_2  and  C_11
REMARK    2  A    between atoms: N_3  and  C_4
REMARK    3  A    between atoms: C_4  and  C_5
REMARK    4  A    between atoms: N_13  and  C_14
REMARK    5  A    between atoms: C_14  and  C_15
REMARK                            x       y       z     vdW  Elec       q    Type
REMARK                         _______ _______ _______ _____ _____    ______ ____
ROOT
ATOM      1  C   UNL     1       3.830   5.747  18.155  0.00  0.00    +0.000 A 
ATOM      2  N   UNL     1       3.497   6.719  18.960  0.00  0.00    +0.000 NA
ATOM      3  N   UNL     1       2.475   6.512  19.871  0.00  0.00    +0.000 N 
ATOM      4  C   UNL     1       1.767   5.319  19.995  0.00  0.00    +0.000 A 
ATOM      5  O   UNL     1       0.880   5.123  20.822  0.00  0.00    +0.000 OA
ATOM      6  C   UNL     1       2.134   4.236  19.067  0.00  0.00    +0.000 A 
ATOM      7  C   UNL     1       1.417   3.029  19.093  0.00  0.00    +0.000 A 
ATOM      8  C   UNL     1       1.754   1.996  18.220  0.00  0.00    +0.000 A 
ATOM      9  C   UNL     1       2.824   2.157  17.346  0.00  0.00    +0.000 A 
ATOM     10  C   UNL     1       3.545   3.354  17.330  0.00  0.00    +0.000 A 
ATOM     11  C   UNL     1       3.181   4.417  18.171  0.00  0.00    +0.000 A 
ENDROOT
BRANCH   1  13
ATOM     12  O   UNL     1       4.819   6.964  16.334  0.00  0.00    +0.000 OA
ATOM     13  C   UNL     1       4.945   6.055  17.141  0.00  0.00    +0.000 C 
ATOM     14  N   UNL     1       6.054   5.255  17.233  0.00  0.00    +0.000 N 
ATOM     15  H   UNL     1       6.159   4.686  18.067  0.00  0.00    +0.000 HD
BRANCH  14  16
ATOM     16  C   UNL     1       7.194   5.447  16.361  0.00  0.00    +0.000 C 
BRANCH  16  17
ATOM     17  C   UNL     1       6.982   4.944  14.949  0.00  0.00    +0.000 A 
ATOM     18  C   UNL     1       6.049   3.941  14.689  0.00  0.00    +0.000 A 
ATOM     19  C   UNL     1       5.909   3.466  13.386  0.00  0.00    +0.000 A 
ATOM     20  C   UNL     1       6.699   4.004  12.380  0.00  0.00    +0.000 A 
ATOM     21  C   UNL     1       7.593   5.005  12.717  0.00  0.00    +0.000 A 
ATOM     22  N   UNL     1       7.749   5.491  13.970  0.00  0.00    +0.000 NA
ENDBRANCH  16  17
ENDBRANCH  14  16
ENDBRANCH   1  13
BRANCH   3  23
ATOM     23  C   UNL     1       2.071   7.655  20.692  0.00  0.00    +0.000 C 
BRANCH  23  24
ATOM     24  C   UNL     1       1.204   8.633  19.928  0.00  0.00    +0.000 A 
ATOM     25  C   UNL     1       1.467   8.922  18.580  0.00  0.00    +0.000 A 
ATOM     26  C   UNL     1       0.708   9.873  17.895  0.00  0.00    +0.000 A 
ATOM     27  C   UNL     1      -0.324  10.543  18.548  0.00  0.00    +0.000 A 
ATOM     28  C   UNL     1      -0.607  10.252  19.882  0.00  0.00    +0.000 A 
ATOM     29  C   UNL     1       0.155   9.305  20.570  0.00  0.00    +0.000 A 
ENDBRANCH  23  24
ENDBRANCH   3  23
TORSDOF 5
ENDMDL
MODEL 6
REMARK VINA RESULT:      -8.1      1.561      1.900
REMARK  Name = 
REMARK  5 active torsions:
REMARK  status: ('A' for Active; 'I' for Inactive)
REMARK    1  A    between atoms: C_2  and  C_11
REMARK    2  A    between atoms: N_3  and  C_4
REMARK    3  A    between atoms: C_4  and  C_5
REMARK    4  A    between atoms: N_13  and  C_14
REMARK    5  A    between atoms: C_14  and  C_15
REMARK                            x       y       z     vdW  Elec       q    Type
REMARK                         _______ _______ _______ _____ _____    ______ ____
ROOT
ATOM      1  C   UNL     1       2.398   6.469  19.165  0.00  0.00    +0.000 A 
ATOM      2  N   UNL     1       3.268   6.897  18.291  0.00  0.00    +0.000 NA
ATOM      3  N   UNL     1       3.887   5.980  17.458  0.00  0.00    +0.000 N 
ATOM      4  C   UNL     1       3.640   4.610  17.485  0.00  0.00    +0.000 A 
ATOM      5  O   UNL     1       4.166   3.797  16.728  0.00  0.00    +0.000 OA
ATOM      6  C   UNL     1       2.676   4.133  18.490  0.00  0.00    +0.000 A 
ATOM      7  C   UNL     1       2.430   2.756  18.616  0.00  0.00    +0.000 A 
ATOM      8  C   UNL     1       1.520   2.291  19.564  0.00  0.00    +0.000 A 
ATOM      9  C   UNL     1       0.834   3.201  20.361  0.00  0.00    +0.000 A 
ATOM     10  C   UNL     1       1.070   4.573  20.226  0.00  0.00    +0.000 A 
ATOM     11  C   UNL     1       2.021   5.045  19.309  0.00  0.00    +0.000 A 
ENDROOT
BRANCH   1  13
ATOM     12  O   UNL     1       1.722   7.356  21.294  0.00  0.00    +0.000 OA
ATOM     13  C   UNL     1       1.777   7.533  20.086  0.00  0.00    +0.000 C 
ATOM     14  N   UNL     1       1.324   8.660  19.453  0.00  0.00    +0.000 N 
ATOM     15  H   UNL     1       1.614   8.812  18.491  0.00  0.00    +0.000 HD
BRANCH  14  16
ATOM     16  C   UNL     1       0.741   9.758  20.196  0.00  0.00    +0.000 C 
BRANCH  16  17
ATOM     17  C   UNL     1       1.321  11.113  19.851  0.00  0.00    +0.000 A 
ATOM     18  C   UNL     1       1.731  11.395  18.548  0.00  0.00    +0.000 A 
ATOM     19  C   UNL     1       2.305  12.635  18.271  0.00  0.00    +0.000 A 
ATOM     20  C   UNL     1       2.451  13.558  19.296  0.00  0.00    +0.000 A 
ATOM     21  C   UNL     1       2.007  13.207  20.559  0.00  0.00    +0.000 A 
ATOM     22  N   UNL     1       1.443  12.015  20.859  0.00  0.00    +0.000 NA
ENDBRANCH  16  17
ENDBRANCH  14  16
ENDBRANCH   1  13
BRANCH   3  23
ATOM     23  C   UNL     1       4.920   6.490  16.555  0.00  0.00    +0.000 C 
BRANCH  23  24
ATOM     24  C   UNL     1       6.202   6.833  17.285  0.00  0.00    +0.000 A 
ATOM     25  C   UNL     1       6.791   5.914  18.168  0.00  0.00    +0.000 A 
ATOM     26  C   UNL     1       7.935   6.255  18.891  0.00  0.00    +0.000 A 
ATOM     27  C   UNL     1       8.507   7.517  18.737  0.00  0.00    +0.000 A 
ATOM     28  C   UNL     1       7.941   8.432  17.849  0.00  0.00    +0.000 A 
ATOM     29  C   UNL     1       6.794   8.093  17.129  0.00  0.00    +0.000 A 
ENDBRANCH  23  24
ENDBRANCH   3  23
TORSDOF 5
ENDMDL
MODEL 7
REMARK VINA RESULT:      -8.0      0.933      1.507
REMARK  Name = 
REMARK  5 active torsions:
REMARK  status: ('A' for Active; 'I' for Inactive)
REMARK    1  A    between atoms: C_2  and  C_11
REMARK    2  A    between atoms: N_3  and  C_4
REMARK    3  A    between atoms: C_4  and  C_5
REMARK    4  A    between atoms: N_13  and  C_14
REMARK    5  A    between atoms: C_14  and  C_15
REMARK                            x       y       z     vdW  Elec       q    Type
REMARK                         _______ _______ _______ _____ _____    ______ ____
ROOT
ATOM      1  C   UNL     1       2.469   6.333  19.039  0.00  0.00    +0.000 A 
ATOM      2  N   UNL     1       3.367   6.812  18.223  0.00  0.00    +0.000 NA
ATOM      3  N   UNL     1       3.990   5.953  17.333  0.00  0.00    +0.000 N 
ATOM      4  C   UNL     1       3.717   4.590  17.242  0.00  0.00    +0.000 A 
ATOM      5  O   UNL     1       4.246   3.831  16.435  0.00  0.00    +0.000 OA
ATOM      6  C   UNL     1       2.719   4.053  18.183  0.00  0.00    +0.000 A 
ATOM      7  C   UNL     1       2.444   2.676  18.191  0.00  0.00    +0.000 A 
ATOM      8  C   UNL     1       1.502   2.155  19.076  0.00  0.00    +0.000 A 
ATOM      9  C   UNL     1       0.814   3.011  19.928  0.00  0.00    +0.000 A 
ATOM     10  C   UNL     1       1.078   4.385  19.910  0.00  0.00    +0.000 A 
ATOM     11  C   UNL     1       2.061   4.910  19.058  0.00  0.00    +0.000 A 
ENDROOT
BRANCH   1  13
ATOM     12  O   UNL     1       1.682   7.027  21.201  0.00  0.00    +0.000 OA
ATOM     13  C   UNL     1       1.845   7.331  20.029  0.00  0.00    +0.000 C 
ATOM     14  N   UNL     1       1.516   8.551  19.497  0.00  0.00    +0.000 N 
ATOM     15  H   UNL     1       1.891   8.785  18.583  0.00  0.00    +0.000 HD
BRANCH  14  16
ATOM     16  C   UNL     1       0.946   9.600  20.317  0.00  0.00    +0.000 C 
BRANCH  16  17
ATOM     17  C   UNL     1       0.471  10.804  19.534  0.00  0.00    +0.000 A 
ATOM     18  C   UNL     1       1.361  11.822  19.191  0.00  0.00    +0.000 A 
ATOM     19  C   UNL     1       0.883  12.940  18.510  0.00  0.00    +0.000 A 
ATOM     20  C   UNL     1      -0.464  13.012  18.186  0.00  0.00    +0.000 A 
ATOM     21  C   UNL     1      -1.280  11.955  18.549  0.00  0.00    +0.000 A 
ATOM     22  N   UNL     1      -0.847  10.855  19.206  0.00  0.00    +0.000 NA
ENDBRANCH  16  17
ENDBRANCH  14  16
ENDBRANCH   1  13
BRANCH   3  23
ATOM     23  C   UNL     1       5.055   6.512  16.499  0.00  0.00    +0.000 C 
BRANCH  23  24
ATOM     24  C   UNL     1       6.258   6.938  17.314  0.00  0.00    +0.000 A 
ATOM     25  C   UNL     1       6.813   8.218  17.155  0.00  0.00    +0.000 A 
ATOM     26  C   UNL     1       7.962   8.587  17.858  0.00  0.00    +0.000 A 
ATOM     27  C   UNL     1       8.566   7.683  18.731  0.00  0.00    +0.000 A 
ATOM     28  C   UNL     1       8.013   6.416  18.910  0.00  0.00    +0.000 A 
ATOM     29  C   UNL     1       6.867   6.043  18.204  0.00  0.00    +0.000 A 
ENDBRANCH  23  24
ENDBRANCH   3  23
TORSDOF 5
ENDMDL
MODEL 8
REMARK VINA RESULT:      -7.9      2.331      3.256
REMARK  Name = 
REMARK  5 active torsions:
REMARK  status: ('A' for Active; 'I' for Inactive)
REMARK    1  A    between atoms: C_2  and  C_11
REMARK    2  A    between atoms: N_3  and  C_4
REMARK    3  A    between atoms: C_4  and  C_5
REMARK    4  A    between atoms: N_13  and  C_14
REMARK    5  A    between atoms: C_14  and  C_15
REMARK                            x       y       z     vdW  Elec       q    Type
REMARK                         _______ _______ _______ _____ _____    ______ ____
ROOT
ATOM      1  C   UNL     1       3.220   6.602  18.458  0.00  0.00    +0.000 A 
ATOM      2  N   UNL     1       4.369   6.561  17.839  0.00  0.00    +0.000 NA
ATOM      3  N   UNL     1       5.166   5.438  17.983  0.00  0.00    +0.000 N 
ATOM      4  C   UNL     1       4.822   4.328  18.750  0.00  0.00    +0.000 A 
ATOM      5  O   UNL     1       5.514   3.319  18.856  0.00  0.00    +0.000 OA
ATOM      6  C   UNL     1       3.536   4.394  19.464  0.00  0.00    +0.000 A 
ATOM      7  C   UNL     1       3.157   3.337  20.307  0.00  0.00    +0.000 A 
ATOM      8  C   UNL     1       1.942   3.386  20.988  0.00  0.00    +0.000 A 
ATOM      9  C   UNL     1       1.093   4.472  20.802  0.00  0.00    +0.000 A 
ATOM     10  C   UNL     1       1.466   5.517  19.951  0.00  0.00    +0.000 A 
ATOM     11  C   UNL     1       2.709   5.499  19.301  0.00  0.00    +0.000 A 
ENDROOT
BRANCH   1  13
ATOM     12  O   UNL     1       2.245   8.392  17.185  0.00  0.00    +0.000 OA
ATOM     13  C   UNL     1       2.401   7.894  18.289  0.00  0.00    +0.000 C 
ATOM     14  N   UNL     1       1.873   8.405  19.446  0.00  0.00    +0.000 N 
ATOM     15  H   UNL     1       1.867   7.807  20.267  0.00  0.00    +0.000 HD
BRANCH  14  16
ATOM     16  C   UNL     1       1.056   9.600  19.436  0.00  0.00    +0.000 C 
BRANCH  16  17
ATOM     17  C   UNL     1       0.342   9.870  20.743  0.00  0.00    +0.000 A 
ATOM     18  C   UNL     1      -0.258  11.106  20.979  0.00  0.00    +0.000 A 
ATOM     19  C   UNL     1      -0.867  11.340  22.211  0.00  0.00    +0.000 A 
ATOM     20  C   UNL     1      -0.865  10.338  23.169  0.00  0.00    +0.000 A 
ATOM     21  C   UNL     1      -0.260   9.133  22.853  0.00  0.00    +0.000 A 
ATOM     22  N   UNL     1       0.336   8.874  21.667  0.00  0.00    +0.000 NA
ENDBRANCH  16  17
ENDBRANCH  14  16
ENDBRANCH   1  13
BRANCH   3  23
ATOM     23  C   UNL     1       6.485   5.470  17.347  0.00  0.00    +0.000 C 
BRANCH  23  24
ATOM     24  C   UNL     1       6.435   5.029  15.900  0.00  0.00    +0.000 A 
ATOM     25  C   UNL     1       5.352   4.276  15.417  0.00  0.00    +0.000 A 
ATOM     26  C   UNL     1       5.339   3.813  14.100  0.00  0.00    +0.000 A 
ATOM     27  C   UNL     1       6.405   4.099  13.249  0.00  0.00    +0.000 A 
ATOM     28  C   UNL     1       7.478   4.861  13.712  0.00  0.00    +0.000 A 
ATOM     29  C   UNL     1       7.495   5.321  15.030  0.00  0.00    +0.000 A 
ENDBRANCH  23  24
ENDBRANCH   3  23
TORSDOF 5
ENDMDL
MODEL 9
REMARK VINA RESULT:      -7.7      3.222      7.912
REMARK  Name = 
REMARK  5 active torsions:
REMARK  status: ('A' for Active; 'I' for Inactive)
REMARK    1  A    between atoms: C_2  and  C_11
REMARK    2  A    between atoms: N_3  and  C_4
REMARK    3  A    between atoms: C_4  and  C_5
REMARK    4  A    between atoms: N_13  and  C_14
REMARK    5  A    between atoms: C_14  and  C_15
REMARK                            x       y       z     vdW  Elec       q    Type
REMARK                         _______ _______ _______ _____ _____    ______ ____
ROOT
ATOM      1  C   UNL     1       0.581  10.441  18.887  0.00  0.00    +0.000 A 
ATOM      2  N   UNL     1       1.028  11.257  19.803  0.00  0.00    +0.000 NA
ATOM      3  N   UNL     1       0.191  12.254  20.277  0.00  0.00    +0.000 N 
ATOM      4  C   UNL     1      -1.117  12.448  19.841  0.00  0.00    +0.000 A 
ATOM      5  O   UNL     1      -1.871  13.313  20.279  0.00  0.00    +0.000 OA
ATOM      6  C   UNL     1      -1.604  11.539  18.790  0.00  0.00    +0.000 A 
ATOM      7  C   UNL     1      -2.891  11.721  18.258  0.00  0.00    +0.000 A 
ATOM      8  C   UNL     1      -3.365  10.867  17.263  0.00  0.00    +0.000 A 
ATOM      9  C   UNL     1      -2.568   9.815  16.825  0.00  0.00    +0.000 A 
ATOM     10  C   UNL     1      -1.292   9.627  17.365  0.00  0.00    +0.000 A 
ATOM     11  C   UNL     1      -0.789  10.512  18.330  0.00  0.00    +0.000 A 
ENDROOT
BRANCH   1  13
ATOM     12  O   UNL     1       2.131   9.522  17.297  0.00  0.00    +0.000 OA
ATOM     13  C   UNL     1       1.573   9.382  18.375  0.00  0.00    +0.000 C 
ATOM     14  N   UNL     1       1.775   8.318  19.214  0.00  0.00    +0.000 N 
ATOM     15  H   UNL     1       1.446   8.401  20.171  0.00  0.00    +0.000 HD
BRANCH  14  16
ATOM     16  C   UNL     1       2.703   7.259  18.876  0.00  0.00    +0.000 C 
BRANCH  16  17
ATOM     17  C   UNL     1       2.164   5.866  19.122  0.00  0.00    +0.000 A 
ATOM     18  C   UNL     1       2.025   4.965  18.066  0.00  0.00    +0.000 A 
ATOM     19  C   UNL     1       1.482   3.706  18.315  0.00  0.00    +0.000 A 
ATOM     20  C   UNL     1       1.096   3.378  19.607  0.00  0.00    +0.000 A 
ATOM     21  C   UNL     1       1.278   4.323  20.603  0.00  0.00    +0.000 A 
ATOM     22  N   UNL     1       1.805   5.551  20.394  0.00  0.00    +0.000 NA
ENDBRANCH  16  17
ENDBRANCH  14  16
ENDBRANCH   1  13
BRANCH   3  23
ATOM     23  C   UNL     1       0.760  13.202  21.236  0.00  0.00    +0.000 C 
BRANCH  23  24
ATOM     24  C   UNL     1       1.794  14.109  20.602  0.00  0.00    +0.000 A 
ATOM     25  C   UNL     1       1.427  15.025  19.603  0.00  0.00    +0.000 A 
ATOM     26  C   UNL     1       2.391  15.814  18.973  0.00  0.00    +0.000 A 
ATOM     27  C   UNL     1       3.732  15.700  19.336  0.00  0.00    +0.000 A 
ATOM     28  C   UNL     1       4.106  14.806  20.339  0.00  0.00    +0.000 A 
ATOM     29  C   UNL     1       3.144  14.013  20.967  0.00  0.00    +0.000 A 
ENDBRANCH  23  24
ENDBRANCH   3  23
TORSDOF 5
ENDMDL
