MODEL 1
REMARK VINA RESULT:      -8.3      0.000      0.000
REMARK  Name = 
REMARK  3 active torsions:
REMARK  status: ('A' for Active; 'I' for Inactive)
REMARK    1  A    between atoms: C_2  and  C_17
REMARK    2  A    between atoms: N_3  and  C_4
REMARK    3  A    between atoms: C_4  and  C_5
REMARK                            x       y       z     vdW  Elec       q    Type
REMARK                         _______ _______ _______ _____ _____    ______ ____
ROOT
ATOM      1  O   UNL     1       4.410   7.412  17.861  0.00  0.00    +0.000 OA
ATOM      2  C   UNL     1       3.370   6.765  17.974  0.00  0.00    +0.000 C 
ATOM      3  N   UNL     1       2.158   7.376  18.156  0.00  0.00    +0.000 N 
ATOM      4  H   UNL     1       1.318   6.798  18.250  0.00  0.00    +0.000 HD
ENDROOT
BRANCH   2   5
ATOM      5  C   UNL     1       3.396   5.271  17.945  0.00  0.00    +0.000 A 
ATOM      6  C   UNL     1       4.236   4.682  16.979  0.00  0.00    +0.000 A 
ATOM      7  C   UNL     1       4.342   3.301  16.881  0.00  0.00    +0.000 A 
ATOM      8  C   UNL     1       3.606   2.501  17.745  0.00  0.00    +0.000 A 
ATOM      9  C   UNL     1       2.765   3.074  18.713  0.00  0.00    +0.000 A 
ATOM     10  C   UNL     1       2.024   2.258  19.581  0.00  0.00    +0.000 A 
ATOM     11  C   UNL     1       1.195   2.824  20.540  0.00  0.00    +0.000 A 
ATOM     12  C   UNL     1       1.137   4.197  20.607  0.00  0.00    +0.000 A 
ATOM     13  N   UNL     1       1.836   5.012  19.788  0.00  0.00    +0.000 NA
ATOM     14  C   UNL     1       2.647   4.479  18.836  0.00  0.00    +0.000 A 
ENDBRANCH   2   5
BRANCH   3  15
ATOM     15  C   UNL     1       2.033   8.799  18.364  0.00  0.00    +0.000 C 
BRANCH  15  16
ATOM     16  C   UNL     1       1.238   9.092  19.645  0.00  0.00    +0.000 C 
ATOM     17  O   UNL     1       1.210   8.224  20.522  0.00  0.00    +0.000 OA
ATOM     18  N   UNL     1       0.529  10.307  19.698  0.00  0.00    +0.000 N 
ATOM     19  C   UNL     1       0.533  11.276  18.593  0.00  0.00    +0.000 C 
ATOM     20  C   UNL     1      -0.869  11.736  18.249  0.00  0.00    +0.000 C 
ATOM     21  C   UNL     1      -1.494  12.427  19.444  0.00  0.00    +0.000 C 
ATOM     22  C   UNL     1      -1.214  11.717  20.742  0.00  0.00    +0.000 A 
ATOM     23  C   UNL     1      -1.964  12.109  21.867  0.00  0.00    +0.000 A 
ATOM     24  C   UNL     1      -1.752  11.515  23.107  0.00  0.00    +0.000 A 
ATOM     25  C   UNL     1      -0.780  10.537  23.238  0.00  0.00    +0.000 A 
ATOM     26  C   UNL     1      -0.025  10.142  22.127  0.00  0.00    +0.000 A 
ATOM     27  C   UNL     1      -0.231  10.708  20.859  0.00  0.00    +0.000 A 
ENDBRANCH  15  16
ENDBRANCH   3  15
TORSDOF 3
ENDMDL
MODEL 2
REMARK VINA RESULT:      -8.2      1.542      8.650
REMARK  Name = 
REMARK  3 active torsions:
REMARK  status: ('A' for Active; 'I' for Inactive)
REMARK    1  A    between atoms: C_2  and  C_17
REMARK    2  A    between atoms: N_3  and  C_4
REMARK    3  A    between atoms: C_4  and  C_5
REMARK                            x       y       z     vdW  Elec       q    Type
REMARK                         _______ _______ _______ _____ _____    ______ ____
ROOT
ATOM      1  O   UNL     1      -0.799   8.035  21.608  0.00  0.00    +0.000 OA
ATOM      2  C   UNL     1       0.026   8.911  21.357  0.00  0.00    +0.000 C 
ATOM      3  N   UNL     1       1.250   8.614  20.817  0.00  0.00    +0.000 N 
ATOM      4  H   UNL     1       1.909   9.374  20.629  0.00  0.00    +0.000 HD
ENDROOT
BRANCH   2   5
ATOM      5  C   UNL     1      -0.268  10.344  21.662  0.00  0.00    +0.000 A 
ATOM      6  C   UNL     1      -0.991  10.592  22.845  0.00  0.00    +0.000 A 
ATOM      7  C   UNL     1      -1.302  11.891  23.225  0.00  0.00    +0.000 A 
ATOM      8  C   UNL     1      -0.894  12.950  22.423  0.00  0.00    +0.000 A 
ATOM      9  C   UNL     1      -0.172  12.716  21.240  0.00  0.00    +0.000 A 
ATOM     10  C   UNL     1       0.234  13.791  20.435  0.00  0.00    +0.000 A 
ATOM     11  C   UNL     1       0.952  13.562  19.269  0.00  0.00    +0.000 A 
ATOM     12  C   UNL     1       1.248  12.258  18.944  0.00  0.00    +0.000 A 
ATOM     13  N   UNL     1       0.872  11.201  19.696  0.00  0.00    +0.000 NA
ATOM     14  C   UNL     1       0.162  11.402  20.837  0.00  0.00    +0.000 A 
ENDBRANCH   2   5
BRANCH   3  15
ATOM     15  C   UNL     1       1.705   7.256  20.636  0.00  0.00    +0.000 C 
BRANCH  15  16
ATOM     16  C   UNL     1       2.493   7.119  19.324  0.00  0.00    +0.000 C 
ATOM     17  O   UNL     1       2.502   8.081  18.549  0.00  0.00    +0.000 OA
ATOM     18  N   UNL     1       3.089   5.872  19.059  0.00  0.00    +0.000 N 
ATOM     19  C   UNL     1       2.984   4.731  19.981  0.00  0.00    +0.000 C 
ATOM     20  C   UNL     1       2.584   3.463  19.256  0.00  0.00    +0.000 C 
ATOM     21  C   UNL     1       3.632   3.105  18.223  0.00  0.00    +0.000 C 
ATOM     22  C   UNL     1       4.133   4.303  17.459  0.00  0.00    +0.000 A 
ATOM     23  C   UNL     1       4.896   4.057  16.301  0.00  0.00    +0.000 A 
ATOM     24  C   UNL     1       5.411   5.109  15.551  0.00  0.00    +0.000 A 
ATOM     25  C   UNL     1       5.183   6.413  15.958  0.00  0.00    +0.000 A 
ATOM     26  C   UNL     1       4.430   6.669  17.109  0.00  0.00    +0.000 A 
ATOM     27  C   UNL     1       3.879   5.630  17.874  0.00  0.00    +0.000 A 
ENDBRANCH  15  16
ENDBRANCH   3  15
TORSDOF 3
ENDMDL
MODEL 3
REMARK VINA RESULT:      -8.1      2.024      3.581
REMARK  Name = 
REMARK  3 active torsions:
REMARK  status: ('A' for Active; 'I' for Inactive)
REMARK    1  A    between atoms: C_2  and  C_17
REMARK    2  A    between atoms: N_3  and  C_4
REMARK    3  A    between atoms: C_4  and  C_5
REMARK                            x       y       z     vdW  Elec       q    Type
REMARK                         _______ _______ _______ _____ _____    ______ ____
ROOT
ATOM      1  O   UNL     1       2.288   4.418  20.359  0.00  0.00    +0.000 OA
ATOM      2  C   UNL     1       2.872   5.214  19.628  0.00  0.00    +0.000 C 
ATOM      3  N   UNL     1       2.724   6.568  19.772  0.00  0.00    +0.000 N 
ATOM      4  H   UNL     1       3.225   7.195  19.137  0.00  0.00    +0.000 HD
ENDROOT
BRANCH   2   5
ATOM      5  C   UNL     1       3.753   4.727  18.523  0.00  0.00    +0.000 A 
ATOM      6  C   UNL     1       3.108   4.070  17.457  0.00  0.00    +0.000 A 
ATOM      7  C   UNL     1       3.836   3.593  16.374  0.00  0.00    +0.000 A 
ATOM      8  C   UNL     1       5.214   3.768  16.353  0.00  0.00    +0.000 A 
ATOM      9  C   UNL     1       5.871   4.422  17.410  0.00  0.00    +0.000 A 
ATOM     10  C   UNL     1       7.262   4.593  17.381  0.00  0.00    +0.000 A 
ATOM     11  C   UNL     1       7.912   5.242  18.422  0.00  0.00    +0.000 A 
ATOM     12  C   UNL     1       7.144   5.710  19.464  0.00  0.00    +0.000 A 
ATOM     13  N   UNL     1       5.803   5.562  19.523  0.00  0.00    +0.000 NA
ATOM     14  C   UNL     1       5.148   4.922  18.519  0.00  0.00    +0.000 A 
ENDBRANCH   2   5
BRANCH   3  15
ATOM     15  C   UNL     1       1.775   7.147  20.693  0.00  0.00    +0.000 C 
BRANCH  15  16
ATOM     16  C   UNL     1       1.231   8.476  20.147  0.00  0.00    +0.000 C 
ATOM     17  O   UNL     1       1.706   8.908  19.092  0.00  0.00    +0.000 OA
ATOM     18  N   UNL     1       0.277   9.151  20.931  0.00  0.00    +0.000 N 
ATOM     19  C   UNL     1      -0.202   8.630  22.220  0.00  0.00    +0.000 C 
ATOM     20  C   UNL     1      -0.172   9.695  23.297  0.00  0.00    +0.000 C 
ATOM     21  C   UNL     1      -1.084  10.843  22.915  0.00  0.00    +0.000 C 
ATOM     22  C   UNL     1      -0.974  11.217  21.460  0.00  0.00    +0.000 A 
ATOM     23  C   UNL     1      -1.562  12.433  21.060  0.00  0.00    +0.000 A 
ATOM     24  C   UNL     1      -1.521  12.841  19.732  0.00  0.00    +0.000 A 
ATOM     25  C   UNL     1      -0.908  12.033  18.788  0.00  0.00    +0.000 A 
ATOM     26  C   UNL     1      -0.323  10.820  19.173  0.00  0.00    +0.000 A 
ATOM     27  C   UNL     1      -0.330  10.392  20.510  0.00  0.00    +0.000 A 
ENDBRANCH  15  16
ENDBRANCH   3  15
TORSDOF 3
ENDMDL
MODEL 4
REMARK VINA RESULT:      -8.1      1.424      3.438
REMARK  Name = 
REMARK  3 active torsions:
REMARK  status: ('A' for Active; 'I' for Inactive)
REMARK    1  A    between atoms: C_2  and  C_17
REMARK    2  A    between atoms: N_3  and  C_4
REMARK    3  A    between atoms: C_4  and  C_5
REMARK                            x       y       z     vdW  Elec       q    Type
REMARK                         _______ _______ _______ _____ _____    ______ ____
ROOT
ATOM      1  O   UNL     1       2.290   4.684  21.290  0.00  0.00    +0.000 OA
ATOM      2  C   UNL     1       2.485   5.203  20.193  0.00  0.00    +0.000 C 
ATOM      3  N   UNL     1       2.228   6.529  19.967  0.00  0.00    +0.000 N 
ATOM      4  H   UNL     1       2.400   6.919  19.036  0.00  0.00    +0.000 HD
ENDROOT
BRANCH   2   5
ATOM      5  C   UNL     1       2.990   4.389  19.045  0.00  0.00    +0.000 A 
ATOM      6  C   UNL     1       2.576   3.043  19.008  0.00  0.00    +0.000 A 
ATOM      7  C   UNL     1       2.978   2.207  17.974  0.00  0.00    +0.000 A 
ATOM      8  C   UNL     1       3.799   2.712  16.974  0.00  0.00    +0.000 A 
ATOM      9  C   UNL     1       4.219   4.053  16.998  0.00  0.00    +0.000 A 
ATOM     10  C   UNL     1       5.049   4.553  15.984  0.00  0.00    +0.000 A 
ATOM     11  C   UNL     1       5.462   5.878  16.005  0.00  0.00    +0.000 A 
ATOM     12  C   UNL     1       5.024   6.670  17.043  0.00  0.00    +0.000 A 
ATOM     13  N   UNL     1       4.224   6.220  18.034  0.00  0.00    +0.000 NA
ATOM     14  C   UNL     1       3.816   4.924  18.038  0.00  0.00    +0.000 A 
ENDBRANCH   2   5
BRANCH   3  15
ATOM     15  C   UNL     1       1.586   7.370  20.949  0.00  0.00    +0.000 C 
BRANCH  15  16
ATOM     16  C   UNL     1       1.112   8.685  20.312  0.00  0.00    +0.000 C 
ATOM     17  O   UNL     1       1.668   9.060  19.275  0.00  0.00    +0.000 OA
ATOM     18  N   UNL     1       0.125   9.414  21.000  0.00  0.00    +0.000 N 
ATOM     19  C   UNL     1      -0.452   8.961  22.274  0.00  0.00    +0.000 C 
ATOM     20  C   UNL     1      -0.467  10.071  23.305  0.00  0.00    +0.000 C 
ATOM     21  C   UNL     1      -1.323  11.221  22.814  0.00  0.00    +0.000 C 
ATOM     22  C   UNL     1      -1.107  11.528  21.355  0.00  0.00    +0.000 A 
ATOM     23  C   UNL     1      -1.637  12.737  20.865  0.00  0.00    +0.000 A 
ATOM     24  C   UNL     1      -1.497  13.086  19.526  0.00  0.00    +0.000 A 
ATOM     25  C   UNL     1      -0.842  12.224  18.662  0.00  0.00    +0.000 A 
ATOM     26  C   UNL     1      -0.315  11.018  19.137  0.00  0.00    +0.000 A 
ATOM     27  C   UNL     1      -0.422  10.649  20.487  0.00  0.00    +0.000 A 
ENDBRANCH  15  16
ENDBRANCH   3  15
TORSDOF 3
ENDMDL
MODEL 5
REMARK VINA RESULT:      -8.1      1.916      8.096
REMARK  Name = 
REMARK  3 active torsions:
REMARK  status: ('A' for Active; 'I' for Inactive)
REMARK    1  A    between atoms: C_2  and  C_17
REMARK    2  A    between atoms: N_3  and  C_4
REMARK    3  A    between atoms: C_4  and  C_5
REMARK                            x       y       z     vdW  Elec       q    Type
REMARK                         _______ _______ _______ _____ _____    ______ ____
ROOT
ATOM      1  O   UNL     1       1.495  11.374  19.354  0.00  0.00    +0.000 OA
ATOM      2  C   UNL     1       0.508  10.644  19.306  0.00  0.00    +0.000 C 
ATOM      3  N   UNL     1       0.622   9.283  19.191  0.00  0.00    +0.000 N 
ATOM      4  H   UNL     1      -0.227   8.713  19.150  0.00  0.00    +0.000 HD
ENDROOT
BRANCH   2   5
ATOM      5  C   UNL     1      -0.870  11.222  19.343  0.00  0.00    +0.000 A 
ATOM      6  C   UNL     1      -1.173  12.036  20.453  0.00  0.00    +0.000 A 
ATOM      7  C   UNL     1      -2.421  12.633  20.573  0.00  0.00    +0.000 A 
ATOM      8  C   UNL     1      -3.374  12.417  19.586  0.00  0.00    +0.000 A 
ATOM      9  C   UNL     1      -3.085  11.608  18.473  0.00  0.00    +0.000 A 
ATOM     10  C   UNL     1      -4.055  11.395  17.483  0.00  0.00    +0.000 A 
ATOM     11  C   UNL     1      -3.769  10.599  16.381  0.00  0.00    +0.000 A 
ATOM     12  C   UNL     1      -2.513  10.043  16.301  0.00  0.00    +0.000 A 
ATOM     13  N   UNL     1      -1.557  10.228  17.237  0.00  0.00    +0.000 NA
ATOM     14  C   UNL     1      -1.818  10.996  18.327  0.00  0.00    +0.000 A 
ENDBRANCH   2   5
BRANCH   3  15
ATOM     15  C   UNL     1       1.893   8.630  18.981  0.00  0.00    +0.000 C 
BRANCH  15  16
ATOM     16  C   UNL     1       1.981   7.338  19.807  0.00  0.00    +0.000 C 
ATOM     17  O   UNL     1       1.522   7.350  20.954  0.00  0.00    +0.000 OA
ATOM     18  N   UNL     1       2.652   6.247  19.225  0.00  0.00    +0.000 N 
ATOM     19  C   UNL     1       3.250   6.308  17.882  0.00  0.00    +0.000 C 
ATOM     20  C   UNL     1       4.668   5.776  17.879  0.00  0.00    +0.000 C 
ATOM     21  C   UNL     1       4.676   4.322  18.303  0.00  0.00    +0.000 C 
ATOM     22  C   UNL     1       3.754   4.046  19.461  0.00  0.00    +0.000 A 
ATOM     23  C   UNL     1       3.885   2.802  20.109  0.00  0.00    +0.000 A 
ATOM     24  C   UNL     1       3.059   2.463  21.175  0.00  0.00    +0.000 A 
ATOM     25  C   UNL     1       2.084   3.355  21.593  0.00  0.00    +0.000 A 
ATOM     26  C   UNL     1       1.942   4.592  20.954  0.00  0.00    +0.000 A 
ATOM     27  C   UNL     1       2.775   4.970  19.890  0.00  0.00    +0.000 A 
ENDBRANCH  15  16
ENDBRANCH   3  15
TORSDOF 3
ENDMDL
MODEL 6
REMARK VINA RESULT:      -8.0      1.410      7.857
REMARK  Name = 
REMARK  3 active torsions:
REMARK  status: ('A' for Active; 'I' for Inactive)
REMARK    1  A    between atoms: C_2  and  C_17
REMARK    2  A    between atoms: N_3  and  C_4
REMARK    3  A    between atoms: C_4  and  C_5
REMARK                            x       y       z     vdW  Elec       q    Type
REMARK                         _______ _______ _______ _____ _____    ______ ____
ROOT
ATOM      1  O   UNL     1      -0.098   9.387  17.554  0.00  0.00    +0.000 OA
ATOM      2  C   UNL     1       0.526   9.948  18.452  0.00  0.00    +0.000 C 
ATOM      3  N   UNL     1       1.787   9.551  18.810  0.00  0.00    +0.000 N 
ATOM      4  H   UNL     1       2.268  10.043  19.568  0.00  0.00    +0.000 HD
ENDROOT
BRANCH   2   5
ATOM      5  C   UNL     1      -0.088  11.077  19.215  0.00  0.00    +0.000 A 
ATOM      6  C   UNL     1      -0.309  12.267  18.494  0.00  0.00    +0.000 A 
ATOM      7  C   UNL     1      -0.888  13.369  19.108  0.00  0.00    +0.000 A 
ATOM      8  C   UNL     1      -1.246  13.290  20.448  0.00  0.00    +0.000 A 
ATOM      9  C   UNL     1      -1.031  12.109  21.180  0.00  0.00    +0.000 A 
ATOM     10  C   UNL     1      -1.394  12.039  22.532  0.00  0.00    +0.000 A 
ATOM     11  C   UNL     1      -1.186  10.872  23.255  0.00  0.00    +0.000 A 
ATOM     12  C   UNL     1      -0.623   9.802  22.597  0.00  0.00    +0.000 A 
ATOM     13  N   UNL     1      -0.262   9.837  21.296  0.00  0.00    +0.000 NA
ATOM     14  C   UNL     1      -0.449  10.972  20.572  0.00  0.00    +0.000 A 
ENDBRANCH   2   5
BRANCH   3  15
ATOM     15  C   UNL     1       2.412   8.372  18.258  0.00  0.00    +0.000 C 
BRANCH  15  16
ATOM     16  C   UNL     1       2.337   7.203  19.251  0.00  0.00    +0.000 C 
ATOM     17  O   UNL     1       1.826   7.412  20.355  0.00  0.00    +0.000 OA
ATOM     18  N   UNL     1       2.927   5.987  18.859  0.00  0.00    +0.000 N 
ATOM     19  C   UNL     1       3.592   5.811  17.559  0.00  0.00    +0.000 C 
ATOM     20  C   UNL     1       4.951   5.161  17.711  0.00  0.00    +0.000 C 
ATOM     21  C   UNL     1       4.800   3.783  18.323  0.00  0.00    +0.000 C 
ATOM     22  C   UNL     1       3.801   3.751  19.450  0.00  0.00    +0.000 A 
ATOM     23  C   UNL     1       3.781   2.601  20.262  0.00  0.00    +0.000 A 
ATOM     24  C   UNL     1       2.876   2.485  21.311  0.00  0.00    +0.000 A 
ATOM     25  C   UNL     1       1.972   3.508  21.549  0.00  0.00    +0.000 A 
ATOM     26  C   UNL     1       1.980   4.654  20.745  0.00  0.00    +0.000 A 
ATOM     27  C   UNL     1       2.895   4.808  19.693  0.00  0.00    +0.000 A 
ENDBRANCH  15  16
ENDBRANCH   3  15
TORSDOF 3
ENDMDL
MODEL 7
REMARK VINA RESULT:      -8.0      1.629      7.940
REMARK  Name = 
REMARK  3 active torsions:
REMARK  status: ('A' for Active; 'I' for Inactive)
REMARK    1  A    between atoms: C_2  and  C_17
REMARK    2  A    between atoms: N_3  and  C_4
REMARK    3  A    between atoms: C_4  and  C_5
REMARK                            x       y       z     vdW  Elec       q    Type
REMARK                         _______ _______ _______ _____ _____    ______ ____
ROOT
ATOM      1  O   UNL     1       1.519   9.609  17.526  0.00  0.00    +0.000 OA
ATOM      2  C   UNL     1       0.752   9.642  18.486  0.00  0.00    +0.000 C 
ATOM      3  N   UNL     1       1.093   9.107  19.700  0.00  0.00    +0.000 N 
ATOM      4  H   UNL     1       0.421   9.152  20.471  0.00  0.00    +0.000 HD
ENDROOT
BRANCH   2   5
ATOM      5  C   UNL     1      -0.608  10.249  18.353  0.00  0.00    +0.000 A 
ATOM      6  C   UNL     1      -1.371   9.828  17.247  0.00  0.00    +0.000 A 
ATOM      7  C   UNL     1      -2.653  10.321  17.042  0.00  0.00    +0.000 A 
ATOM      8  C   UNL     1      -3.178  11.241  17.941  0.00  0.00    +0.000 A 
ATOM      9  C   UNL     1      -2.427  11.670  19.050  0.00  0.00    +0.000 A 
ATOM     10  C   UNL     1      -2.964  12.601  19.951  0.00  0.00    +0.000 A 
ATOM     11  C   UNL     1      -2.225  13.022  21.048  0.00  0.00    +0.000 A 
ATOM     12  C   UNL     1      -0.966  12.492  21.215  0.00  0.00    +0.000 A 
ATOM     13  N   UNL     1      -0.419  11.595  20.366  0.00  0.00    +0.000 NA
ATOM     14  C   UNL     1      -1.122  11.176  19.281  0.00  0.00    +0.000 A 
ENDBRANCH   2   5
BRANCH   3  15
ATOM     15  C   UNL     1       2.307   8.352  19.897  0.00  0.00    +0.000 C 
BRANCH  15  16
ATOM     16  C   UNL     1       2.013   6.845  19.910  0.00  0.00    +0.000 C 
ATOM     17  O   UNL     1       1.413   6.379  20.884  0.00  0.00    +0.000 OA
ATOM     18  N   UNL     1       2.519   6.081  18.842  0.00  0.00    +0.000 N 
ATOM     19  C   UNL     1       3.295   6.673  17.742  0.00  0.00    +0.000 C 
ATOM     20  C   UNL     1       4.560   5.887  17.466  0.00  0.00    +0.000 C 
ATOM     21  C   UNL     1       4.210   4.472  17.052  0.00  0.00    +0.000 C 
ATOM     22  C   UNL     1       3.100   3.879  17.880  0.00  0.00    +0.000 A 
ATOM     23  C   UNL     1       2.882   2.492  17.768  0.00  0.00    +0.000 A 
ATOM     24  C   UNL     1       1.865   1.871  18.484  0.00  0.00    +0.000 A 
ATOM     25  C   UNL     1       1.047   2.630  19.305  0.00  0.00    +0.000 A 
ATOM     26  C   UNL     1       1.252   4.009  19.421  0.00  0.00    +0.000 A 
ATOM     27  C   UNL     1       2.283   4.661  18.727  0.00  0.00    +0.000 A 
ENDBRANCH  15  16
ENDBRANCH   3  15
TORSDOF 3
ENDMDL
MODEL 8
REMARK VINA RESULT:      -7.9      1.870      3.518
REMARK  Name = 
REMARK  3 active torsions:
REMARK  status: ('A' for Active; 'I' for Inactive)
REMARK    1  A    between atoms: C_2  and  C_17
REMARK    2  A    between atoms: N_3  and  C_4
REMARK    3  A    between atoms: C_4  and  C_5
REMARK                            x       y       z     vdW  Elec       q    Type
REMARK                         _______ _______ _______ _____ _____    ______ ____
ROOT
ATOM      1  O   UNL     1       2.167   7.145  20.079  0.00  0.00    +0.000 OA
ATOM      2  C   UNL     1       2.431   7.073  18.881  0.00  0.00    +0.000 C 
ATOM      3  N   UNL     1       2.417   8.180  18.073  0.00  0.00    +0.000 N 
ATOM      4  H   UNL     1       2.638   8.073  17.079  0.00  0.00    +0.000 HD
ENDROOT
BRANCH   2   5
ATOM      5  C   UNL     1       2.752   5.757  18.249  0.00  0.00    +0.000 A 
ATOM      6  C   UNL     1       1.818   4.723  18.458  0.00  0.00    +0.000 A 
ATOM      7  C   UNL     1       2.017   3.467  17.901  0.00  0.00    +0.000 A 
ATOM      8  C   UNL     1       3.152   3.236  17.134  0.00  0.00    +0.000 A 
ATOM      9  C   UNL     1       4.092   4.259  16.918  0.00  0.00    +0.000 A 
ATOM     10  C   UNL     1       5.236   4.016  16.144  0.00  0.00    +0.000 A 
ATOM     11  C   UNL     1       6.163   5.027  15.926  0.00  0.00    +0.000 A 
ATOM     12  C   UNL     1       5.913   6.258  16.487  0.00  0.00    +0.000 A 
ATOM     13  N   UNL     1       4.822   6.525  17.237  0.00  0.00    +0.000 NA
ATOM     14  C   UNL     1       3.906   5.548  17.470  0.00  0.00    +0.000 A 
ENDBRANCH   2   5
BRANCH   3  15
ATOM     15  C   UNL     1       1.962   9.469  18.536  0.00  0.00    +0.000 C 
BRANCH  15  16
ATOM     16  C   UNL     1       0.499   9.705  18.132  0.00  0.00    +0.000 C 
ATOM     17  O   UNL     1       0.102   9.208  17.074  0.00  0.00    +0.000 OA
ATOM     18  N   UNL     1      -0.271  10.540  18.963  0.00  0.00    +0.000 N 
ATOM     19  C   UNL     1       0.272  11.171  20.175  0.00  0.00    +0.000 C 
ATOM     20  C   UNL     1      -0.058  12.648  20.231  0.00  0.00    +0.000 C 
ATOM     21  C   UNL     1      -1.561  12.841  20.264  0.00  0.00    +0.000 C 
ATOM     22  C   UNL     1      -2.289  11.925  19.316  0.00  0.00    +0.000 A 
ATOM     23  C   UNL     1      -3.646  12.203  19.064  0.00  0.00    +0.000 A 
ATOM     24  C   UNL     1      -4.393  11.395  18.215  0.00  0.00    +0.000 A 
ATOM     25  C   UNL     1      -3.798  10.292  17.623  0.00  0.00    +0.000 A 
ATOM     26  C   UNL     1      -2.451  10.003  17.870  0.00  0.00    +0.000 A 
ATOM     27  C   UNL     1      -1.666  10.813  18.704  0.00  0.00    +0.000 A 
ENDBRANCH  15  16
ENDBRANCH   3  15
TORSDOF 3
ENDMDL
MODEL 9
REMARK VINA RESULT:      -7.9      1.439      8.323
REMARK  Name = 
REMARK  3 active torsions:
REMARK  status: ('A' for Active; 'I' for Inactive)
REMARK    1  A    between atoms: C_2  and  C_17
REMARK    2  A    between atoms: N_3  and  C_4
REMARK    3  A    between atoms: C_4  and  C_5
REMARK                            x       y       z     vdW  Elec       q    Type
REMARK                         _______ _______ _______ _____ _____    ______ ____
ROOT
ATOM      1  O   UNL     1       1.308  10.054  22.328  0.00  0.00    +0.000 OA
ATOM      2  C   UNL     1       0.486   9.803  21.449  0.00  0.00    +0.000 C 
ATOM      3  N   UNL     1       0.443   8.582  20.829  0.00  0.00    +0.000 N 
ATOM      4  H   UNL     1      -0.254   8.419  20.097  0.00  0.00    +0.000 HD
ENDROOT
BRANCH   2   5
ATOM      5  C   UNL     1      -0.488  10.844  20.998  0.00  0.00    +0.000 A 
ATOM      6  C   UNL     1      -0.823  11.832  21.945  0.00  0.00    +0.000 A 
ATOM      7  C   UNL     1      -1.708  12.852  21.620  0.00  0.00    +0.000 A 
ATOM      8  C   UNL     1      -2.266  12.887  20.348  0.00  0.00    +0.000 A 
ATOM      9  C   UNL     1      -1.939  11.908  19.394  0.00  0.00    +0.000 A 
ATOM     10  C   UNL     1      -2.508  11.950  18.112  0.00  0.00    +0.000 A 
ATOM     11  C   UNL     1      -2.183  10.986  17.168  0.00  0.00    +0.000 A 
ATOM     12  C   UNL     1      -1.290  10.005  17.534  0.00  0.00    +0.000 A 
ATOM     13  N   UNL     1      -0.724   9.935  18.759  0.00  0.00    +0.000 NA
ATOM     14  C   UNL     1      -1.035  10.864  19.701  0.00  0.00    +0.000 A 
ENDBRANCH   2   5
BRANCH   3  15
ATOM     15  C   UNL     1       1.437   7.562  21.064  0.00  0.00    +0.000 C 
BRANCH  15  16
ATOM     16  C   UNL     1       2.212   7.252  19.775  0.00  0.00    +0.000 C 
ATOM     17  O   UNL     1       2.348   8.158  18.948  0.00  0.00    +0.000 OA
ATOM     18  N   UNL     1       2.650   5.927  19.590  0.00  0.00    +0.000 N 
ATOM     19  C   UNL     1       2.395   4.863  20.573  0.00  0.00    +0.000 C 
ATOM     20  C   UNL     1       1.846   3.615  19.914  0.00  0.00    +0.000 C 
ATOM     21  C   UNL     1       2.850   3.070  18.919  0.00  0.00    +0.000 C 
ATOM     22  C   UNL     1       3.503   4.150  18.097  0.00  0.00    +0.000 A 
ATOM     23  C   UNL     1       4.240   3.745  16.967  0.00  0.00    +0.000 A 
ATOM     24  C   UNL     1       4.889   4.679  16.167  0.00  0.00    +0.000 A 
ATOM     25  C   UNL     1       4.822   6.023  16.497  0.00  0.00    +0.000 A 
ATOM     26  C   UNL     1       4.096   6.437  17.620  0.00  0.00    +0.000 A 
ATOM     27  C   UNL     1       3.414   5.520  18.434  0.00  0.00    +0.000 A 
ENDBRANCH  15  16
ENDBRANCH   3  15
TORSDOF 3
ENDMDL
