MODEL 1
REMARK VINA RESULT:      -8.7      0.000      0.000
REMARK  Name = 
REMARK  5 active torsions:
REMARK  status: ('A' for Active; 'I' for Inactive)
REMARK    1  A    between atoms: C_1  and  C_2
REMARK    2  A    between atoms: C_6  and  O_7
REMARK    3  A    between atoms: O_7  and  C_8
REMARK    4  A    between atoms: C_11  and  N_12
REMARK    5  A    between atoms: C_18  and  C_19
REMARK                            x       y       z     vdW  Elec       q    Type
REMARK                         _______ _______ _______ _____ _____    ______ ____
ROOT
ATOM      1  N   UNL     1       8.227   9.514  17.782  0.00  0.00    +0.000 N 
ATOM      2  C   UNL     1       8.980  10.208  18.706  0.00  0.00    +0.000 C 
ATOM      3  O   UNL     1       9.393   9.732  19.765  0.00  0.00    +0.000 OA
ATOM      4  N   UNL     1       9.270  11.527  18.393  0.00  0.00    +0.000 N 
ATOM      5  C   UNL     1      10.247  12.224  19.234  0.00  0.00    +0.000 C 
ATOM      6  C   UNL     1       9.622  13.434  19.920  0.00  0.00    +0.000 C 
ATOM      7  C   UNL     1       8.941  14.372  18.918  0.00  0.00    +0.000 C 
ATOM      8  C   UNL     1       7.962  13.582  18.039  0.00  0.00    +0.000 C 
ATOM      9  C   UNL     1       8.594  12.348  17.389  0.00  0.00    +0.000 C 
ATOM     10  H   UNL     1       8.054   9.955  16.894  0.00  0.00    +0.000 HD
ENDROOT
BRANCH   1  14
ATOM     11  C   UNL     1       6.749   5.572  18.196  0.00  0.00    +0.000 A 
ATOM     12  C   UNL     1       7.853   5.983  18.931  0.00  0.00    +0.000 A 
ATOM     13  C   UNL     1       8.329   7.284  18.820  0.00  0.00    +0.000 A 
ATOM     14  C   UNL     1       7.779   8.178  17.904  0.00  0.00    +0.000 A 
ATOM     15  C   UNL     1       6.746   7.730  17.071  0.00  0.00    +0.000 A 
ATOM     16  C   UNL     1       6.227   6.431  17.223  0.00  0.00    +0.000 A 
BRANCH  11  17
ATOM     17  O   UNL     1       6.157   4.337  18.351  0.00  0.00    +0.000 OA
BRANCH  17  23
ATOM     18  C   UNL     1       1.895   5.387  20.491  0.00  0.00    +0.000 C 
ATOM     19  C   UNL     1       2.658   4.767  19.358  0.00  0.00    +0.000 A 
ATOM     20  C   UNL     1       1.978   4.105  18.329  0.00  0.00    +0.000 A 
ATOM     21  C   UNL     1       2.688   3.489  17.301  0.00  0.00    +0.000 A 
ATOM     22  C   UNL     1       4.082   3.520  17.301  0.00  0.00    +0.000 A 
ATOM     23  C   UNL     1       4.778   4.229  18.287  0.00  0.00    +0.000 A 
ATOM     24  C   UNL     1       4.061   4.835  19.324  0.00  0.00    +0.000 A 
ENDBRANCH  17  23
ENDBRANCH  11  17
ENDBRANCH   1  14
BRANCH   7  25
ATOM     25  C   UNL     1       9.933  15.146  18.103  0.00  0.00    +0.000 A 
ATOM     26  N   UNL     1       9.681  16.076  17.200  0.00  0.00    +0.000 NA
ATOM     27  N   UNL     1      10.884  16.534  16.716  0.00  0.00    +0.000 NA
ATOM     28  C   UNL     1      11.837  15.876  17.322  0.00  0.00    +0.000 A 
ATOM     29  N   UNL     1      11.286  14.990  18.196  0.00  0.00    +0.000 N 
ATOM     30  H   UNL     1      11.785  14.352  18.802  0.00  0.00    +0.000 HD
ENDBRANCH   7  25
TORSDOF 4
ENDMDL
MODEL 2
REMARK VINA RESULT:      -8.6      6.661      8.761
REMARK  Name = 
REMARK  5 active torsions:
REMARK  status: ('A' for Active; 'I' for Inactive)
REMARK    1  A    between atoms: C_1  and  C_2
REMARK    2  A    between atoms: C_6  and  O_7
REMARK    3  A    between atoms: O_7  and  C_8
REMARK    4  A    between atoms: C_11  and  N_12
REMARK    5  A    between atoms: C_18  and  C_19
REMARK                            x       y       z     vdW  Elec       q    Type
REMARK                         _______ _______ _______ _____ _____    ______ ____
ROOT
ATOM      1  N   UNL     1       1.244   9.409  20.606  0.00  0.00    +0.000 N 
ATOM      2  C   UNL     1       0.171   9.545  21.462  0.00  0.00    +0.000 C 
ATOM      3  O   UNL     1      -0.550   8.615  21.826  0.00  0.00    +0.000 OA
ATOM      4  N   UNL     1      -0.086  10.827  21.923  0.00  0.00    +0.000 N 
ATOM      5  C   UNL     1      -1.069  10.976  23.000  0.00  0.00    +0.000 C 
ATOM      6  C   UNL     1      -2.249  11.833  22.557  0.00  0.00    +0.000 C 
ATOM      7  C   UNL     1      -1.795  13.183  21.992  0.00  0.00    +0.000 C 
ATOM      8  C   UNL     1      -0.739  12.968  20.899  0.00  0.00    +0.000 C 
ATOM      9  C   UNL     1       0.419  12.072  21.346  0.00  0.00    +0.000 C 
ATOM     10  H   UNL     1       1.844  10.206  20.479  0.00  0.00    +0.000 HD
ENDROOT
BRANCH   1  14
ATOM     11  C   UNL     1       2.640   5.826  18.844  0.00  0.00    +0.000 A 
ATOM     12  C   UNL     1       2.508   6.975  18.076  0.00  0.00    +0.000 A 
ATOM     13  C   UNL     1       2.075   8.163  18.652  0.00  0.00    +0.000 A 
ATOM     14  C   UNL     1       1.669   8.212  19.984  0.00  0.00    +0.000 A 
ATOM     15  C   UNL     1       1.682   7.027  20.731  0.00  0.00    +0.000 A 
ATOM     16  C   UNL     1       2.174   5.838  20.164  0.00  0.00    +0.000 A 
BRANCH  11  17
ATOM     17  O   UNL     1       3.177   4.653  18.360  0.00  0.00    +0.000 OA
BRANCH  17  23
ATOM     18  C   UNL     1       7.853   5.745  19.249  0.00  0.00    +0.000 C 
ATOM     19  C   UNL     1       6.804   5.185  18.334  0.00  0.00    +0.000 A 
ATOM     20  C   UNL     1       7.156   4.716  17.062  0.00  0.00    +0.000 A 
ATOM     21  C   UNL     1       6.177   4.238  16.195  0.00  0.00    +0.000 A 
ATOM     22  C   UNL     1       4.838   4.238  16.587  0.00  0.00    +0.000 A 
ATOM     23  C   UNL     1       4.474   4.646  17.875  0.00  0.00    +0.000 A 
ATOM     24  C   UNL     1       5.460   5.135  18.739  0.00  0.00    +0.000 A 
ENDBRANCH  17  23
ENDBRANCH  11  17
ENDBRANCH   1  14
BRANCH   7  25
ATOM     25  C   UNL     1      -1.316  14.114  23.065  0.00  0.00    +0.000 A 
ATOM     26  N   UNL     1      -0.212  14.837  23.067  0.00  0.00    +0.000 NA
ATOM     27  N   UNL     1      -0.182  15.561  24.237  0.00  0.00    +0.000 NA
ATOM     28  C   UNL     1      -1.254  15.261  24.921  0.00  0.00    +0.000 A 
ATOM     29  N   UNL     1      -1.991  14.352  24.226  0.00  0.00    +0.000 N 
ATOM     30  H   UNL     1      -2.872  13.945  24.513  0.00  0.00    +0.000 HD
ENDBRANCH   7  25
TORSDOF 4
ENDMDL
MODEL 3
REMARK VINA RESULT:      -8.5      6.318      9.715
REMARK  Name = 
REMARK  5 active torsions:
REMARK  status: ('A' for Active; 'I' for Inactive)
REMARK    1  A    between atoms: C_1  and  C_2
REMARK    2  A    between atoms: C_6  and  O_7
REMARK    3  A    between atoms: O_7  and  C_8
REMARK    4  A    between atoms: C_11  and  N_12
REMARK    5  A    between atoms: C_18  and  C_19
REMARK                            x       y       z     vdW  Elec       q    Type
REMARK                         _______ _______ _______ _____ _____    ______ ____
ROOT
ATOM      1  N   UNL     1       2.633   7.851  18.599  0.00  0.00    +0.000 N 
ATOM      2  C   UNL     1       2.780   6.497  18.376  0.00  0.00    +0.000 C 
ATOM      3  O   UNL     1       2.067   5.628  18.880  0.00  0.00    +0.000 OA
ATOM      4  N   UNL     1       3.809   6.126  17.525  0.00  0.00    +0.000 N 
ATOM      5  C   UNL     1       3.857   4.727  17.090  0.00  0.00    +0.000 C 
ATOM      6  C   UNL     1       5.148   4.052  17.538  0.00  0.00    +0.000 C 
ATOM      7  C   UNL     1       6.388   4.840  17.103  0.00  0.00    +0.000 C 
ATOM      8  C   UNL     1       6.264   6.303  17.550  0.00  0.00    +0.000 C 
ATOM      9  C   UNL     1       4.945   6.955  17.126  0.00  0.00    +0.000 C 
ATOM     10  H   UNL     1       3.181   8.480  18.037  0.00  0.00    +0.000 HD
ENDROOT
BRANCH   1  14
ATOM     11  C   UNL     1      -0.139   9.804  21.128  0.00  0.00    +0.000 A 
ATOM     12  C   UNL     1       0.674   8.797  21.632  0.00  0.00    +0.000 A 
ATOM     13  C   UNL     1       1.606   8.168  20.814  0.00  0.00    +0.000 A 
ATOM     14  C   UNL     1       1.683   8.457  19.453  0.00  0.00    +0.000 A 
ATOM     15  C   UNL     1       0.780   9.383  18.915  0.00  0.00    +0.000 A 
ATOM     16  C   UNL     1      -0.124  10.061  19.753  0.00  0.00    +0.000 A 
BRANCH  11  17
ATOM     17  O   UNL     1      -0.993  10.546  21.914  0.00  0.00    +0.000 OA
BRANCH  17  23
ATOM     18  C   UNL     1      -2.212  14.583  24.378  0.00  0.00    +0.000 C 
ATOM     19  C   UNL     1      -1.338  13.893  23.372  0.00  0.00    +0.000 A 
ATOM     20  C   UNL     1      -0.342  14.607  22.696  0.00  0.00    +0.000 A 
ATOM     21  C   UNL     1       0.439  13.978  21.729  0.00  0.00    +0.000 A 
ATOM     22  C   UNL     1       0.221  12.635  21.423  0.00  0.00    +0.000 A 
ATOM     23  C   UNL     1      -0.729  11.889  22.131  0.00  0.00    +0.000 A 
ATOM     24  C   UNL     1      -1.518  12.528  23.093  0.00  0.00    +0.000 A 
ENDBRANCH  17  23
ENDBRANCH  11  17
ENDBRANCH   1  14
BRANCH   7  25
ATOM     25  C   UNL     1       6.648   4.719  15.631  0.00  0.00    +0.000 A 
ATOM     26  N   UNL     1       7.428   5.481  14.887  0.00  0.00    +0.000 NA
ATOM     27  N   UNL     1       7.389   4.999  13.600  0.00  0.00    +0.000 NA
ATOM     28  C   UNL     1       6.587   3.967  13.582  0.00  0.00    +0.000 A 
ATOM     29  N   UNL     1       6.094   3.760  14.835  0.00  0.00    +0.000 N 
ATOM     30  H   UNL     1       5.453   3.029  15.117  0.00  0.00    +0.000 HD
ENDBRANCH   7  25
TORSDOF 4
ENDMDL
MODEL 4
REMARK VINA RESULT:      -8.4      6.849      8.699
REMARK  Name = 
REMARK  5 active torsions:
REMARK  status: ('A' for Active; 'I' for Inactive)
REMARK    1  A    between atoms: C_1  and  C_2
REMARK    2  A    between atoms: C_6  and  O_7
REMARK    3  A    between atoms: O_7  and  C_8
REMARK    4  A    between atoms: C_11  and  N_12
REMARK    5  A    between atoms: C_18  and  C_19
REMARK                            x       y       z     vdW  Elec       q    Type
REMARK                         _______ _______ _______ _____ _____    ______ ____
ROOT
ATOM      1  N   UNL     1       1.322   9.423  20.425  0.00  0.00    +0.000 N 
ATOM      2  C   UNL     1       0.286   9.570  21.325  0.00  0.00    +0.000 C 
ATOM      3  O   UNL     1      -0.386   8.638  21.769  0.00  0.00    +0.000 OA
ATOM      4  N   UNL     1       0.009  10.865  21.731  0.00  0.00    +0.000 N 
ATOM      5  C   UNL     1      -0.927  11.040  22.846  0.00  0.00    +0.000 C 
ATOM      6  C   UNL     1      -2.155  11.837  22.417  0.00  0.00    +0.000 C 
ATOM      7  C   UNL     1      -1.773  13.168  21.763  0.00  0.00    +0.000 C 
ATOM      8  C   UNL     1      -0.763  12.929  20.633  0.00  0.00    +0.000 C 
ATOM      9  C   UNL     1       0.444  12.094  21.068  0.00  0.00    +0.000 C 
ATOM     10  H   UNL     1       1.889  10.230  20.229  0.00  0.00    +0.000 HD
ENDROOT
BRANCH   1  14
ATOM     11  C   UNL     1       2.749   5.793  18.787  0.00  0.00    +0.000 A 
ATOM     12  C   UNL     1       2.599   6.911  17.978  0.00  0.00    +0.000 A 
ATOM     13  C   UNL     1       2.155   8.115  18.513  0.00  0.00    +0.000 A 
ATOM     14  C   UNL     1       1.758   8.209  19.845  0.00  0.00    +0.000 A 
ATOM     15  C   UNL     1       1.789   7.052  20.635  0.00  0.00    +0.000 A 
ATOM     16  C   UNL     1       2.292   5.849  20.109  0.00  0.00    +0.000 A 
BRANCH  11  17
ATOM     17  O   UNL     1       3.297   4.609  18.343  0.00  0.00    +0.000 OA
BRANCH  17  23
ATOM     18  C   UNL     1       6.153   3.896  14.447  0.00  0.00    +0.000 C 
ATOM     19  C   UNL     1       6.004   4.251  15.897  0.00  0.00    +0.000 A 
ATOM     20  C   UNL     1       7.135   4.526  16.675  0.00  0.00    +0.000 A 
ATOM     21  C   UNL     1       7.001   4.811  18.032  0.00  0.00    +0.000 A 
ATOM     22  C   UNL     1       5.738   4.812  18.622  0.00  0.00    +0.000 A 
ATOM     23  C   UNL     1       4.591   4.600  17.849  0.00  0.00    +0.000 A 
ATOM     24  C   UNL     1       4.732   4.302  16.489  0.00  0.00    +0.000 A 
ENDBRANCH  17  23
ENDBRANCH  11  17
ENDBRANCH   1  14
BRANCH   7  25
ATOM     25  C   UNL     1      -1.276  14.169  22.763  0.00  0.00    +0.000 A 
ATOM     26  N   UNL     1      -1.429  14.140  24.073  0.00  0.00    +0.000 NA
ATOM     27  N   UNL     1      -0.795  15.241  24.599  0.00  0.00    +0.000 NA
ATOM     28  C   UNL     1      -0.279  15.918  23.607  0.00  0.00    +0.000 A 
ATOM     29  N   UNL     1      -0.562  15.285  22.435  0.00  0.00    +0.000 N 
ATOM     30  H   UNL     1      -0.286  15.581  21.508  0.00  0.00    +0.000 HD
ENDBRANCH   7  25
TORSDOF 4
ENDMDL
MODEL 5
REMARK VINA RESULT:      -8.4      7.194      9.299
REMARK  Name = 
REMARK  5 active torsions:
REMARK  status: ('A' for Active; 'I' for Inactive)
REMARK    1  A    between atoms: C_1  and  C_2
REMARK    2  A    between atoms: C_6  and  O_7
REMARK    3  A    between atoms: O_7  and  C_8
REMARK    4  A    between atoms: C_11  and  N_12
REMARK    5  A    between atoms: C_18  and  C_19
REMARK                            x       y       z     vdW  Elec       q    Type
REMARK                         _______ _______ _______ _____ _____    ______ ____
ROOT
ATOM      1  N   UNL     1       0.918  10.222  20.581  0.00  0.00    +0.000 N 
ATOM      2  C   UNL     1      -0.142  10.142  21.460  0.00  0.00    +0.000 C 
ATOM      3  O   UNL     1      -0.784   9.114  21.681  0.00  0.00    +0.000 OA
ATOM      4  N   UNL     1      -0.482  11.313  22.117  0.00  0.00    +0.000 N 
ATOM      5  C   UNL     1      -1.448  11.219  23.215  0.00  0.00    +0.000 C 
ATOM      6  C   UNL     1      -2.698  12.043  22.924  0.00  0.00    +0.000 C 
ATOM      7  C   UNL     1      -2.357  13.494  22.571  0.00  0.00    +0.000 C 
ATOM      8  C   UNL     1      -1.313  13.531  21.447  0.00  0.00    +0.000 C 
ATOM      9  C   UNL     1      -0.082  12.668  21.736  0.00  0.00    +0.000 C 
ATOM     10  H   UNL     1       1.456  11.072  20.573  0.00  0.00    +0.000 HD
ENDROOT
BRANCH   1  14
ATOM     11  C   UNL     1       2.547   7.094  18.244  0.00  0.00    +0.000 A 
ATOM     12  C   UNL     1       2.056   8.239  17.631  0.00  0.00    +0.000 A 
ATOM     13  C   UNL     1       1.543   9.282  18.392  0.00  0.00    +0.000 A 
ATOM     14  C   UNL     1       1.416   9.171  19.775  0.00  0.00    +0.000 A 
ATOM     15  C   UNL     1       1.795   7.969  20.386  0.00  0.00    +0.000 A 
ATOM     16  C   UNL     1       2.366   6.935  19.622  0.00  0.00    +0.000 A 
BRANCH  11  17
ATOM     17  O   UNL     1       3.176   6.081  17.554  0.00  0.00    +0.000 OA
BRANCH  17  23
ATOM     18  C   UNL     1       7.672   7.981  17.400  0.00  0.00    +0.000 C 
ATOM     19  C   UNL     1       6.765   6.819  17.681  0.00  0.00    +0.000 A 
ATOM     20  C   UNL     1       7.298   5.593  18.094  0.00  0.00    +0.000 A 
ATOM     21  C   UNL     1       6.461   4.501  18.311  0.00  0.00    +0.000 A 
ATOM     22  C   UNL     1       5.087   4.624  18.105  0.00  0.00    +0.000 A 
ATOM     23  C   UNL     1       4.529   5.858  17.752  0.00  0.00    +0.000 A 
ATOM     24  C   UNL     1       5.375   6.948  17.524  0.00  0.00    +0.000 A 
ENDBRANCH  17  23
ENDBRANCH  11  17
ENDBRANCH   1  14
BRANCH   7  25
ATOM     25  C   UNL     1      -1.923  14.282  23.771  0.00  0.00    +0.000 A 
ATOM     26  N   UNL     1      -0.735  14.811  23.999  0.00  0.00    +0.000 NA
ATOM     27  N   UNL     1      -0.787  15.464  25.208  0.00  0.00    +0.000 NA
ATOM     28  C   UNL     1      -1.991  15.315  25.693  0.00  0.00    +0.000 A 
ATOM     29  N   UNL     1      -2.736  14.574  24.827  0.00  0.00    +0.000 N 
ATOM     30  H   UNL     1      -3.705  14.306  24.942  0.00  0.00    +0.000 HD
ENDBRANCH   7  25
TORSDOF 4
ENDMDL
MODEL 6
REMARK VINA RESULT:      -8.4      8.655     10.492
REMARK  Name = 
REMARK  5 active torsions:
REMARK  status: ('A' for Active; 'I' for Inactive)
REMARK    1  A    between atoms: C_1  and  C_2
REMARK    2  A    between atoms: C_6  and  O_7
REMARK    3  A    between atoms: O_7  and  C_8
REMARK    4  A    between atoms: C_11  and  N_12
REMARK    5  A    between atoms: C_18  and  C_19
REMARK                            x       y       z     vdW  Elec       q    Type
REMARK                         _______ _______ _______ _____ _____    ______ ____
ROOT
ATOM      1  N   UNL     1      -0.934  10.880  21.359  0.00  0.00    +0.000 N 
ATOM      2  C   UNL     1      -0.687  12.136  21.875  0.00  0.00    +0.000 C 
ATOM      3  O   UNL     1       0.436  12.623  22.010  0.00  0.00    +0.000 OA
ATOM      4  N   UNL     1      -1.799  12.869  22.257  0.00  0.00    +0.000 N 
ATOM      5  C   UNL     1      -1.596  14.280  22.597  0.00  0.00    +0.000 C 
ATOM      6  C   UNL     1      -1.989  14.564  24.043  0.00  0.00    +0.000 C 
ATOM      7  C   UNL     1      -3.412  14.089  24.352  0.00  0.00    +0.000 C 
ATOM      8  C   UNL     1      -3.578  12.620  23.940  0.00  0.00    +0.000 C 
ATOM      9  C   UNL     1      -3.143  12.344  22.499  0.00  0.00    +0.000 C 
ATOM     10  H   UNL     1      -1.891  10.632  21.170  0.00  0.00    +0.000 HD
ENDROOT
BRANCH   1  14
ATOM     11  C   UNL     1       1.871   8.016  20.009  0.00  0.00    +0.000 A 
ATOM     12  C   UNL     1       1.513   8.062  21.350  0.00  0.00    +0.000 A 
ATOM     13  C   UNL     1       0.573   8.983  21.797  0.00  0.00    +0.000 A 
ATOM     14  C   UNL     1       0.039   9.943  20.940  0.00  0.00    +0.000 A 
ATOM     15  C   UNL     1       0.490   9.980  19.615  0.00  0.00    +0.000 A 
ATOM     16  C   UNL     1       1.398   9.013  19.148  0.00  0.00    +0.000 A 
BRANCH  11  17
ATOM     17  O   UNL     1       2.703   7.051  19.484  0.00  0.00    +0.000 OA
BRANCH  17  23
ATOM     18  C   UNL     1       1.353   2.811  21.497  0.00  0.00    +0.000 C 
ATOM     19  C   UNL     1       1.533   3.668  20.279  0.00  0.00    +0.000 A 
ATOM     20  C   UNL     1       1.234   3.160  19.009  0.00  0.00    +0.000 A 
ATOM     21  C   UNL     1       1.444   3.939  17.874  0.00  0.00    +0.000 A 
ATOM     22  C   UNL     1       1.965   5.226  17.999  0.00  0.00    +0.000 A 
ATOM     23  C   UNL     1       2.213   5.774  19.263  0.00  0.00    +0.000 A 
ATOM     24  C   UNL     1       2.011   4.983  20.399  0.00  0.00    +0.000 A 
ENDBRANCH  17  23
ENDBRANCH  11  17
ENDBRANCH   1  14
BRANCH   7  25
ATOM     25  C   UNL     1      -4.452  14.972  23.729  0.00  0.00    +0.000 A 
ATOM     26  N   UNL     1      -5.685  14.647  23.391  0.00  0.00    +0.000 NA
ATOM     27  N   UNL     1      -6.293  15.767  22.875  0.00  0.00    +0.000 NA
ATOM     28  C   UNL     1      -5.424  16.743  22.901  0.00  0.00    +0.000 A 
ATOM     29  N   UNL     1      -4.252  16.287  23.424  0.00  0.00    +0.000 N 
ATOM     30  H   UNL     1      -3.407  16.824  23.567  0.00  0.00    +0.000 HD
ENDBRANCH   7  25
TORSDOF 4
ENDMDL
MODEL 7
REMARK VINA RESULT:      -8.4      6.278      9.743
REMARK  Name = 
REMARK  5 active torsions:
REMARK  status: ('A' for Active; 'I' for Inactive)
REMARK    1  A    between atoms: C_1  and  C_2
REMARK    2  A    between atoms: C_6  and  O_7
REMARK    3  A    between atoms: O_7  and  C_8
REMARK    4  A    between atoms: C_11  and  N_12
REMARK    5  A    between atoms: C_18  and  C_19
REMARK                            x       y       z     vdW  Elec       q    Type
REMARK                         _______ _______ _______ _____ _____    ______ ____
ROOT
ATOM      1  N   UNL     1       2.669   7.949  18.595  0.00  0.00    +0.000 N 
ATOM      2  C   UNL     1       2.816   6.591  18.399  0.00  0.00    +0.000 C 
ATOM      3  O   UNL     1       2.113   5.733  18.934  0.00  0.00    +0.000 OA
ATOM      4  N   UNL     1       3.832   6.203  17.541  0.00  0.00    +0.000 N 
ATOM      5  C   UNL     1       3.876   4.795  17.136  0.00  0.00    +0.000 C 
ATOM      6  C   UNL     1       5.176   4.132  17.579  0.00  0.00    +0.000 C 
ATOM      7  C   UNL     1       6.407   4.913  17.106  0.00  0.00    +0.000 C 
ATOM      8  C   UNL     1       6.287   6.386  17.522  0.00  0.00    +0.000 C 
ATOM      9  C   UNL     1       4.960   7.026  17.105  0.00  0.00    +0.000 C 
ATOM     10  H   UNL     1       3.207   8.566  18.010  0.00  0.00    +0.000 HD
ENDROOT
BRANCH   1  14
ATOM     11  C   UNL     1      -0.197   9.673  21.184  0.00  0.00    +0.000 A 
ATOM     12  C   UNL     1      -0.158  10.039  19.846  0.00  0.00    +0.000 A 
ATOM     13  C   UNL     1       0.763   9.459  18.982  0.00  0.00    +0.000 A 
ATOM     14  C   UNL     1       1.731   8.573  19.450  0.00  0.00    +0.000 A 
ATOM     15  C   UNL     1       1.776   8.296  20.823  0.00  0.00    +0.000 A 
ATOM     16  C   UNL     1       0.808   8.839  21.687  0.00  0.00    +0.000 A 
BRANCH  11  17
ATOM     17  O   UNL     1      -1.161  10.122  22.061  0.00  0.00    +0.000 OA
BRANCH  17  23
ATOM     18  C   UNL     1      -3.623  13.655  24.363  0.00  0.00    +0.000 C 
ATOM     19  C   UNL     1      -2.435  13.216  23.560  0.00  0.00    +0.000 A 
ATOM     20  C   UNL     1      -1.461  14.145  23.175  0.00  0.00    +0.000 A 
ATOM     21  C   UNL     1      -0.382  13.747  22.390  0.00  0.00    +0.000 A 
ATOM     22  C   UNL     1      -0.274  12.420  21.975  0.00  0.00    +0.000 A 
ATOM     23  C   UNL     1      -1.204  11.464  22.400  0.00  0.00    +0.000 A 
ATOM     24  C   UNL     1      -2.292  11.872  23.178  0.00  0.00    +0.000 A 
ENDBRANCH  17  23
ENDBRANCH  11  17
ENDBRANCH   1  14
BRANCH   7  25
ATOM     25  C   UNL     1       6.644   4.760  15.634  0.00  0.00    +0.000 A 
ATOM     26  N   UNL     1       7.402   5.513  14.859  0.00  0.00    +0.000 NA
ATOM     27  N   UNL     1       7.347   4.999  13.584  0.00  0.00    +0.000 NA
ATOM     28  C   UNL     1       6.558   3.958  13.605  0.00  0.00    +0.000 A 
ATOM     29  N   UNL     1       6.089   3.775  14.870  0.00  0.00    +0.000 N 
ATOM     30  H   UNL     1       5.462   3.043  15.180  0.00  0.00    +0.000 HD
ENDBRANCH   7  25
TORSDOF 4
ENDMDL
MODEL 8
REMARK VINA RESULT:      -8.3      6.671      8.459
REMARK  Name = 
REMARK  5 active torsions:
REMARK  status: ('A' for Active; 'I' for Inactive)
REMARK    1  A    between atoms: C_1  and  C_2
REMARK    2  A    between atoms: C_6  and  O_7
REMARK    3  A    between atoms: O_7  and  C_8
REMARK    4  A    between atoms: C_11  and  N_12
REMARK    5  A    between atoms: C_18  and  C_19
REMARK                            x       y       z     vdW  Elec       q    Type
REMARK                         _______ _______ _______ _____ _____    ______ ____
ROOT
ATOM      1  N   UNL     1       1.226   9.197  19.888  0.00  0.00    +0.000 N 
ATOM      2  C   UNL     1       0.430  10.002  19.100  0.00  0.00    +0.000 C 
ATOM      3  O   UNL     1       0.125   9.749  17.933  0.00  0.00    +0.000 OA
ATOM      4  N   UNL     1      -0.039  11.165  19.690  0.00  0.00    +0.000 N 
ATOM      5  C   UNL     1      -1.061  11.928  18.967  0.00  0.00    +0.000 C 
ATOM      6  C   UNL     1      -0.567  13.330  18.626  0.00  0.00    +0.000 C 
ATOM      7  C   UNL     1      -0.053  14.072  19.864  0.00  0.00    +0.000 C 
ATOM      8  C   UNL     1       0.981  13.211  20.602  0.00  0.00    +0.000 C 
ATOM      9  C   UNL     1       0.485  11.794  20.902  0.00  0.00    +0.000 C 
ATOM     10  H   UNL     1       1.304   9.429  20.864  0.00  0.00    +0.000 HD
ENDROOT
BRANCH   1  14
ATOM     11  C   UNL     1       3.172   5.595  18.825  0.00  0.00    +0.000 A 
ATOM     12  C   UNL     1       3.174   6.673  17.950  0.00  0.00    +0.000 A 
ATOM     13  C   UNL     1       2.560   7.868  18.302  0.00  0.00    +0.000 A 
ATOM     14  C   UNL     1       1.844   7.989  19.491  0.00  0.00    +0.000 A 
ATOM     15  C   UNL     1       1.734   6.866  20.321  0.00  0.00    +0.000 A 
ATOM     16  C   UNL     1       2.403   5.673  19.992  0.00  0.00    +0.000 A 
BRANCH  11  17
ATOM     17  O   UNL     1       3.865   4.428  18.586  0.00  0.00    +0.000 OA
BRANCH  17  23
ATOM     18  C   UNL     1       5.996   3.890  14.225  0.00  0.00    +0.000 C 
ATOM     19  C   UNL     1       6.099   4.211  15.687  0.00  0.00    +0.000 A 
ATOM     20  C   UNL     1       7.342   4.510  16.257  0.00  0.00    +0.000 A 
ATOM     21  C   UNL     1       7.445   4.763  17.622  0.00  0.00    +0.000 A 
ATOM     22  C   UNL     1       6.309   4.709  18.429  0.00  0.00    +0.000 A 
ATOM     23  C   UNL     1       5.049   4.473  17.868  0.00  0.00    +0.000 A 
ATOM     24  C   UNL     1       4.952   4.207  16.498  0.00  0.00    +0.000 A 
ENDBRANCH  17  23
ENDBRANCH  11  17
ENDBRANCH   1  14
BRANCH   7  25
ATOM     25  C   UNL     1      -1.169  14.511  20.764  0.00  0.00    +0.000 A 
ATOM     26  N   UNL     1      -1.147  14.613  22.080  0.00  0.00    +0.000 NA
ATOM     27  N   UNL     1      -2.377  15.072  22.490  0.00  0.00    +0.000 NA
ATOM     28  C   UNL     1      -3.120  15.232  21.427  0.00  0.00    +0.000 A 
ATOM     29  N   UNL     1      -2.404  14.885  20.322  0.00  0.00    +0.000 N 
ATOM     30  H   UNL     1      -2.726  14.912  19.363  0.00  0.00    +0.000 HD
ENDBRANCH   7  25
TORSDOF 4
ENDMDL
MODEL 9
REMARK VINA RESULT:      -8.3      8.387     10.343
REMARK  Name = 
REMARK  5 active torsions:
REMARK  status: ('A' for Active; 'I' for Inactive)
REMARK    1  A    between atoms: C_1  and  C_2
REMARK    2  A    between atoms: C_6  and  O_7
REMARK    3  A    between atoms: O_7  and  C_8
REMARK    4  A    between atoms: C_11  and  N_12
REMARK    5  A    between atoms: C_18  and  C_19
REMARK                            x       y       z     vdW  Elec       q    Type
REMARK                         _______ _______ _______ _____ _____    ______ ____
ROOT
ATOM      1  N   UNL     1      -0.642  10.935  20.768  0.00  0.00    +0.000 N 
ATOM      2  C   UNL     1      -0.942  11.429  22.021  0.00  0.00    +0.000 C 
ATOM      3  O   UNL     1      -0.410  11.047  23.064  0.00  0.00    +0.000 OA
ATOM      4  N   UNL     1      -1.913  12.417  22.073  0.00  0.00    +0.000 N 
ATOM      5  C   UNL     1      -2.097  13.119  23.346  0.00  0.00    +0.000 C 
ATOM      6  C   UNL     1      -3.508  12.918  23.889  0.00  0.00    +0.000 C 
ATOM      7  C   UNL     1      -4.577  13.291  22.857  0.00  0.00    +0.000 C 
ATOM      8  C   UNL     1      -4.310  12.560  21.534  0.00  0.00    +0.000 C 
ATOM      9  C   UNL     1      -2.879  12.739  21.023  0.00  0.00    +0.000 C 
ATOM     10  H   UNL     1      -1.038  11.407  19.972  0.00  0.00    +0.000 HD
ENDROOT
BRANCH   1  14
ATOM     11  C   UNL     1       2.018   7.796  19.788  0.00  0.00    +0.000 A 
ATOM     12  C   UNL     1       1.531   7.917  21.082  0.00  0.00    +0.000 A 
ATOM     13  C   UNL     1       0.636   8.930  21.407  0.00  0.00    +0.000 A 
ATOM     14  C   UNL     1       0.281   9.904  20.476  0.00  0.00    +0.000 A 
ATOM     15  C   UNL     1       0.867   9.858  19.204  0.00  0.00    +0.000 A 
ATOM     16  C   UNL     1       1.728   8.801  18.859  0.00  0.00    +0.000 A 
BRANCH  11  17
ATOM     17  O   UNL     1       2.809   6.745  19.376  0.00  0.00    +0.000 OA
BRANCH  17  23
ATOM     18  C   UNL     1       1.360   2.663  21.631  0.00  0.00    +0.000 C 
ATOM     19  C   UNL     1       1.523   3.459  20.370  0.00  0.00    +0.000 A 
ATOM     20  C   UNL     1       1.143   2.913  19.138  0.00  0.00    +0.000 A 
ATOM     21  C   UNL     1       1.336   3.633  17.961  0.00  0.00    +0.000 A 
ATOM     22  C   UNL     1       1.921   4.898  18.007  0.00  0.00    +0.000 A 
ATOM     23  C   UNL     1       2.251   5.486  19.233  0.00  0.00    +0.000 A 
ATOM     24  C   UNL     1       2.066   4.754  20.411  0.00  0.00    +0.000 A 
ENDBRANCH  17  23
ENDBRANCH  11  17
ENDBRANCH   1  14
BRANCH   7  25
ATOM     25  C   UNL     1      -4.689  14.775  22.669  0.00  0.00    +0.000 A 
ATOM     26  N   UNL     1      -4.491  15.717  23.572  0.00  0.00    +0.000 NA
ATOM     27  N   UNL     1      -4.680  16.935  22.963  0.00  0.00    +0.000 NA
ATOM     28  C   UNL     1      -4.994  16.714  21.714  0.00  0.00    +0.000 A 
ATOM     29  N   UNL     1      -5.018  15.372  21.487  0.00  0.00    +0.000 N 
ATOM     30  H   UNL     1      -5.227  14.913  20.610  0.00  0.00    +0.000 HD
ENDBRANCH   7  25
TORSDOF 4
ENDMDL
