MODEL 1
REMARK VINA RESULT:      -9.4      0.000      0.000
REMARK  Name = 
REMARK  5 active torsions:
REMARK  status: ('A' for Active; 'I' for Inactive)
REMARK    1  A    between atoms: C_1  and  C_2
REMARK    2  A    between atoms: C_5  and  C_6
REMARK    3  A    between atoms: C_12  and  N_13
REMARK    4  A    between atoms: N_16  and  C_17
REMARK    5  A    between atoms: C_25  and  O_26
REMARK                            x       y       z     vdW  Elec       q    Type
REMARK                         _______ _______ _______ _____ _____    ______ ____
ROOT
ATOM      1  N   UNL     1       5.638   6.578  16.967  0.00  0.00    +0.000 N 
ATOM      2  C   UNL     1       4.423   6.510  17.579  0.00  0.00    +0.000 C 
ATOM      3  O   UNL     1       3.572   7.390  17.410  0.00  0.00    +0.000 OA
ATOM      4  N   UNL     1       4.218   5.456  18.384  0.00  0.00    +0.000 N 
ATOM      5  H   UNL     1       5.801   7.445  16.479  0.00  0.00    +0.000 HD
ATOM      6  H   UNL     1       5.043   5.073  18.780  0.00  0.00    +0.000 HD
ENDROOT
BRANCH   4   7
ATOM      7  C   UNL     1       2.979   5.176  19.014  0.00  0.00    +0.000 C 
ATOM      8  C   UNL     1       1.937   4.232  18.329  0.00  0.00    +0.000 A 
ATOM      9  C   UNL     1       2.188   3.270  17.375  0.00  0.00    +0.000 A 
ATOM     10  C   UNL     1       2.565   2.021  17.823  0.00  0.00    +0.000 A 
ATOM     11  C   UNL     1       2.561   1.798  19.197  0.00  0.00    +0.000 A 
ATOM     12  C   UNL     1       1.864   2.687  20.050  0.00  0.00    +0.000 A 
ATOM     13  C   UNL     1       1.316   3.855  19.514  0.00  0.00    +0.000 A 
ATOM     14  C   UNL     1       0.949   5.152  20.233  0.00  0.00    +0.000 C 
ATOM     15  C   UNL     1       1.958   6.172  19.574  0.00  0.00    +0.000 C 
BRANCH  15  16
ATOM     16  O   UNL     1       2.519   7.042  20.548  0.00  0.00    +0.000 OA
ATOM     17  H   UNL     1       3.349   6.641  20.855  0.00  0.00    +0.000 HD
ENDBRANCH  15  16
ENDBRANCH   4   7
BRANCH   1  23
ATOM     18  C   UNL     1       7.562   5.853  19.537  0.00  0.00    +0.000 C 
ATOM     19  C   UNL     1       7.532   5.339  18.149  0.00  0.00    +0.000 A 
ATOM     20  N   UNL     1       8.368   4.341  17.834  0.00  0.00    +0.000 NA
ATOM     21  O   UNL     1       8.079   4.004  16.536  0.00  0.00    +0.000 OA
ATOM     22  C   UNL     1       7.061   4.770  16.062  0.00  0.00    +0.000 A 
ATOM     23  C   UNL     1       6.675   5.665  17.053  0.00  0.00    +0.000 A 
BRANCH  22  24
ATOM     24  C   UNL     1       6.710   4.526  14.674  0.00  0.00    +0.000 A 
ATOM     25  C   UNL     1       5.488   3.913  14.352  0.00  0.00    +0.000 A 
ATOM     26  C   UNL     1       5.146   3.648  13.025  0.00  0.00    +0.000 A 
ATOM     27  C   UNL     1       6.023   3.990  12.001  0.00  0.00    +0.000 A 
ATOM     28  C   UNL     1       7.239   4.601  12.302  0.00  0.00    +0.000 A 
ATOM     29  C   UNL     1       7.583   4.866  13.630  0.00  0.00    +0.000 A 
ENDBRANCH  22  24
ENDBRANCH   1  23
TORSDOF 4
ENDMDL
MODEL 2
REMARK VINA RESULT:      -8.3      1.199      1.842
REMARK  Name = 
REMARK  5 active torsions:
REMARK  status: ('A' for Active; 'I' for Inactive)
REMARK    1  A    between atoms: C_1  and  C_2
REMARK    2  A    between atoms: C_5  and  C_6
REMARK    3  A    between atoms: C_12  and  N_13
REMARK    4  A    between atoms: N_16  and  C_17
REMARK    5  A    between atoms: C_25  and  O_26
REMARK                            x       y       z     vdW  Elec       q    Type
REMARK                         _______ _______ _______ _____ _____    ______ ____
ROOT
ATOM      1  N   UNL     1       5.226   6.083  17.216  0.00  0.00    +0.000 N 
ATOM      2  C   UNL     1       4.003   5.622  17.601  0.00  0.00    +0.000 C 
ATOM      3  O   UNL     1       2.999   6.339  17.531  0.00  0.00    +0.000 OA
ATOM      4  N   UNL     1       3.960   4.367  18.075  0.00  0.00    +0.000 N 
ATOM      5  H   UNL     1       5.240   7.066  16.993  0.00  0.00    +0.000 HD
ATOM      6  H   UNL     1       4.806   4.051  18.482  0.00  0.00    +0.000 HD
ENDROOT
BRANCH   4   7
ATOM      7  C   UNL     1       2.758   3.697  18.418  0.00  0.00    +0.000 C 
ATOM      8  C   UNL     1       2.801   2.286  19.090  0.00  0.00    +0.000 A 
ATOM      9  C   UNL     1       3.846   1.735  19.799  0.00  0.00    +0.000 A 
ATOM     10  C   UNL     1       3.925   2.037  21.143  0.00  0.00    +0.000 A 
ATOM     11  C   UNL     1       2.892   2.785  21.700  0.00  0.00    +0.000 A 
ATOM     12  C   UNL     1       1.665   2.911  21.007  0.00  0.00    +0.000 A 
ATOM     13  C   UNL     1       1.562   2.407  19.707  0.00  0.00    +0.000 A 
ATOM     14  C   UNL     1       0.576   2.799  18.609  0.00  0.00    +0.000 C 
ATOM     15  C   UNL     1       1.543   3.420  17.527  0.00  0.00    +0.000 C 
BRANCH  15  16
ATOM     16  O   UNL     1       0.993   4.606  16.967  0.00  0.00    +0.000 OA
ATOM     17  H   UNL     1       1.352   4.698  16.070  0.00  0.00    +0.000 HD
ENDBRANCH  15  16
ENDBRANCH   4   7
BRANCH   1  23
ATOM     18  C   UNL     1       7.309   5.572  19.713  0.00  0.00    +0.000 C 
ATOM     19  C   UNL     1       7.353   5.165  18.290  0.00  0.00    +0.000 A 
ATOM     20  N   UNL     1       8.365   4.380  17.896  0.00  0.00    +0.000 NA
ATOM     21  O   UNL     1       8.122   4.088  16.577  0.00  0.00    +0.000 OA
ATOM     22  C   UNL     1       6.962   4.668  16.169  0.00  0.00    +0.000 A 
ATOM     23  C   UNL     1       6.425   5.392  17.227  0.00  0.00    +0.000 A 
BRANCH  22  24
ATOM     24  C   UNL     1       6.638   4.461  14.768  0.00  0.00    +0.000 A 
ATOM     25  C   UNL     1       5.441   3.819  14.408  0.00  0.00    +0.000 A 
ATOM     26  C   UNL     1       5.126   3.590  13.068  0.00  0.00    +0.000 A 
ATOM     27  C   UNL     1       6.005   3.996  12.069  0.00  0.00    +0.000 A 
ATOM     28  C   UNL     1       7.195   4.636  12.408  0.00  0.00    +0.000 A 
ATOM     29  C   UNL     1       7.512   4.865  13.749  0.00  0.00    +0.000 A 
ENDBRANCH  22  24
ENDBRANCH   1  23
TORSDOF 4
ENDMDL
MODEL 3
REMARK VINA RESULT:      -8.2      1.388      1.876
REMARK  Name = 
REMARK  5 active torsions:
REMARK  status: ('A' for Active; 'I' for Inactive)
REMARK    1  A    between atoms: C_1  and  C_2
REMARK    2  A    between atoms: C_5  and  C_6
REMARK    3  A    between atoms: C_12  and  N_13
REMARK    4  A    between atoms: N_16  and  C_17
REMARK    5  A    between atoms: C_25  and  O_26
REMARK                            x       y       z     vdW  Elec       q    Type
REMARK                         _______ _______ _______ _____ _____    ______ ____
ROOT
ATOM      1  N   UNL     1       6.643   4.257  18.229  0.00  0.00    +0.000 N 
ATOM      2  C   UNL     1       5.392   4.025  18.716  0.00  0.00    +0.000 C 
ATOM      3  O   UNL     1       5.123   2.976  19.311  0.00  0.00    +0.000 OA
ATOM      4  N   UNL     1       4.478   4.982  18.493  0.00  0.00    +0.000 N 
ATOM      5  H   UNL     1       7.262   3.464  18.299  0.00  0.00    +0.000 HD
ATOM      6  H   UNL     1       4.649   5.535  17.689  0.00  0.00    +0.000 HD
ENDROOT
BRANCH   4   7
ATOM      7  C   UNL     1       3.162   4.950  19.020  0.00  0.00    +0.000 C 
ATOM      8  C   UNL     1       2.020   4.203  18.256  0.00  0.00    +0.000 A 
ATOM      9  C   UNL     1       2.163   3.193  17.330  0.00  0.00    +0.000 A 
ATOM     10  C   UNL     1       2.263   1.904  17.813  0.00  0.00    +0.000 A 
ATOM     11  C   UNL     1       2.108   1.712  19.183  0.00  0.00    +0.000 A 
ATOM     12  C   UNL     1       1.523   2.731  19.972  0.00  0.00    +0.000 A 
ATOM     13  C   UNL     1       1.248   3.971  19.388  0.00  0.00    +0.000 A 
ATOM     14  C   UNL     1       1.073   5.326  20.070  0.00  0.00    +0.000 C 
ATOM     15  C   UNL     1       2.304   6.128  19.492  0.00  0.00    +0.000 C 
BRANCH  15  16
ATOM     16  O   UNL     1       2.939   6.897  20.505  0.00  0.00    +0.000 OA
ATOM     17  H   UNL     1       2.245   7.229  21.097  0.00  0.00    +0.000 HD
ENDBRANCH  15  16
ENDBRANCH   4   7
BRANCH   1  23
ATOM     18  C   UNL     1       8.110   6.947  19.429  0.00  0.00    +0.000 C 
ATOM     19  C   UNL     1       7.717   6.567  18.054  0.00  0.00    +0.000 A 
ATOM     20  N   UNL     1       8.056   7.394  17.056  0.00  0.00    +0.000 NA
ATOM     21  O   UNL     1       7.653   6.772  15.900  0.00  0.00    +0.000 OA
ATOM     22  C   UNL     1       7.093   5.567  16.181  0.00  0.00    +0.000 A 
ATOM     23  C   UNL     1       7.089   5.383  17.559  0.00  0.00    +0.000 A 
BRANCH  22  24
ATOM     24  C   UNL     1       6.585   4.847  15.024  0.00  0.00    +0.000 A 
ATOM     25  C   UNL     1       7.355   4.763  13.853  0.00  0.00    +0.000 A 
ATOM     26  C   UNL     1       6.873   4.098  12.724  0.00  0.00    +0.000 A 
ATOM     27  C   UNL     1       5.612   3.511  12.752  0.00  0.00    +0.000 A 
ATOM     28  C   UNL     1       4.836   3.582  13.906  0.00  0.00    +0.000 A 
ATOM     29  C   UNL     1       5.318   4.249  15.036  0.00  0.00    +0.000 A 
ENDBRANCH  22  24
ENDBRANCH   1  23
TORSDOF 4
ENDMDL
MODEL 4
REMARK VINA RESULT:      -8.0      1.445      2.392
REMARK  Name = 
REMARK  5 active torsions:
REMARK  status: ('A' for Active; 'I' for Inactive)
REMARK    1  A    between atoms: C_1  and  C_2
REMARK    2  A    between atoms: C_5  and  C_6
REMARK    3  A    between atoms: C_12  and  N_13
REMARK    4  A    between atoms: N_16  and  C_17
REMARK    5  A    between atoms: C_25  and  O_26
REMARK                            x       y       z     vdW  Elec       q    Type
REMARK                         _______ _______ _______ _____ _____    ______ ____
ROOT
ATOM      1  N   UNL     1       5.161   5.882  17.133  0.00  0.00    +0.000 N 
ATOM      2  C   UNL     1       3.983   5.374  17.593  0.00  0.00    +0.000 C 
ATOM      3  O   UNL     1       2.932   6.018  17.508  0.00  0.00    +0.000 OA
ATOM      4  N   UNL     1       4.038   4.158  18.158  0.00  0.00    +0.000 N 
ATOM      5  H   UNL     1       5.102   6.845  16.839  0.00  0.00    +0.000 HD
ATOM      6  H   UNL     1       4.917   3.928  18.557  0.00  0.00    +0.000 HD
ENDROOT
BRANCH   4   7
ATOM      7  C   UNL     1       2.895   3.440  18.592  0.00  0.00    +0.000 C 
ATOM      8  C   UNL     1       2.567   3.318  20.116  0.00  0.00    +0.000 A 
ATOM      9  C   UNL     1       2.987   4.155  21.126  0.00  0.00    +0.000 A 
ATOM     10  C   UNL     1       2.228   5.281  21.368  0.00  0.00    +0.000 A 
ATOM     11  C   UNL     1       1.046   5.432  20.649  0.00  0.00    +0.000 A 
ATOM     12  C   UNL     1       0.484   4.317  19.981  0.00  0.00    +0.000 A 
ATOM     13  C   UNL     1       1.204   3.120  19.932  0.00  0.00    +0.000 A 
ATOM     14  C   UNL     1       1.071   1.970  18.936  0.00  0.00    +0.000 C 
ATOM     15  C   UNL     1       2.475   2.015  18.217  0.00  0.00    +0.000 C 
BRANCH  15  16
ATOM     16  O   UNL     1       2.340   1.836  16.813  0.00  0.00    +0.000 OA
ATOM     17  H   UNL     1       1.620   2.413  16.512  0.00  0.00    +0.000 HD
ENDBRANCH  15  16
ENDBRANCH   4   7
BRANCH   1  23
ATOM     18  C   UNL     1       7.228   5.448  19.657  0.00  0.00    +0.000 C 
ATOM     19  C   UNL     1       7.324   5.081  18.227  0.00  0.00    +0.000 A 
ATOM     20  N   UNL     1       8.393   4.375  17.833  0.00  0.00    +0.000 NA
ATOM     21  O   UNL     1       8.194   4.102  16.503  0.00  0.00    +0.000 OA
ATOM     22  C   UNL     1       7.006   4.613  16.087  0.00  0.00    +0.000 A 
ATOM     23  C   UNL     1       6.403   5.273  17.151  0.00  0.00    +0.000 A 
BRANCH  22  24
ATOM     24  C   UNL     1       6.722   4.420  14.675  0.00  0.00    +0.000 A 
ATOM     25  C   UNL     1       5.579   3.708  14.276  0.00  0.00    +0.000 A 
ATOM     26  C   UNL     1       5.304   3.492  12.925  0.00  0.00    +0.000 A 
ATOM     27  C   UNL     1       6.170   3.983  11.954  0.00  0.00    +0.000 A 
ATOM     28  C   UNL     1       7.307   4.695  12.331  0.00  0.00    +0.000 A 
ATOM     29  C   UNL     1       7.584   4.910  13.684  0.00  0.00    +0.000 A 
ENDBRANCH  22  24
ENDBRANCH   1  23
TORSDOF 4
ENDMDL
MODEL 5
REMARK VINA RESULT:      -7.6      1.764      5.979
REMARK  Name = 
REMARK  5 active torsions:
REMARK  status: ('A' for Active; 'I' for Inactive)
REMARK    1  A    between atoms: C_1  and  C_2
REMARK    2  A    between atoms: C_5  and  C_6
REMARK    3  A    between atoms: C_12  and  N_13
REMARK    4  A    between atoms: N_16  and  C_17
REMARK    5  A    between atoms: C_25  and  O_26
REMARK                            x       y       z     vdW  Elec       q    Type
REMARK                         _______ _______ _______ _____ _____    ______ ____
ROOT
ATOM      1  N   UNL     1       2.889   7.330  18.060  0.00  0.00    +0.000 N 
ATOM      2  C   UNL     1       4.062   6.830  17.579  0.00  0.00    +0.000 C 
ATOM      3  O   UNL     1       4.521   7.207  16.496  0.00  0.00    +0.000 OA
ATOM      4  N   UNL     1       4.666   5.898  18.333  0.00  0.00    +0.000 N 
ATOM      5  H   UNL     1       2.402   7.925  17.408  0.00  0.00    +0.000 HD
ATOM      6  H   UNL     1       4.054   5.375  18.911  0.00  0.00    +0.000 HD
ENDROOT
BRANCH   4   7
ATOM      7  C   UNL     1       5.940   5.351  18.035  0.00  0.00    +0.000 C 
ATOM      8  C   UNL     1       6.069   4.107  17.097  0.00  0.00    +0.000 A 
ATOM      9  C   UNL     1       5.160   3.679  16.154  0.00  0.00    +0.000 A 
ATOM     10  C   UNL     1       5.239   4.247  14.899  0.00  0.00    +0.000 A 
ATOM     11  C   UNL     1       6.290   5.126  14.651  0.00  0.00    +0.000 A 
ATOM     12  C   UNL     1       7.407   5.146  15.521  0.00  0.00    +0.000 A 
ATOM     13  C   UNL     1       7.369   4.390  16.696  0.00  0.00    +0.000 A 
ATOM     14  C   UNL     1       8.178   4.580  17.976  0.00  0.00    +0.000 C 
ATOM     15  C   UNL     1       7.043   4.937  19.014  0.00  0.00    +0.000 C 
BRANCH  15  16
ATOM     16  O   UNL     1       7.443   5.999  19.870  0.00  0.00    +0.000 OA
ATOM     17  H   UNL     1       7.699   5.608  20.721  0.00  0.00    +0.000 HD
ENDBRANCH  15  16
ENDBRANCH   4   7
BRANCH   1  23
ATOM     18  C   UNL     1       1.497   9.326  20.276  0.00  0.00    +0.000 C 
ATOM     19  C   UNL     1       1.665   7.856  20.238  0.00  0.00    +0.000 A 
ATOM     20  N   UNL     1       1.107   7.138  21.222  0.00  0.00    +0.000 NA
ATOM     21  O   UNL     1       1.337   5.823  20.904  0.00  0.00    +0.000 OA
ATOM     22  C   UNL     1       2.009   5.730  19.727  0.00  0.00    +0.000 A 
ATOM     23  C   UNL     1       2.266   7.012  19.254  0.00  0.00    +0.000 A 
BRANCH  22  24
ATOM     24  C   UNL     1       2.348   4.376  19.324  0.00  0.00    +0.000 A 
ATOM     25  C   UNL     1       3.268   3.626  20.075  0.00  0.00    +0.000 A 
ATOM     26  C   UNL     1       3.625   2.333  19.688  0.00  0.00    +0.000 A 
ATOM     27  C   UNL     1       3.068   1.773  18.543  0.00  0.00    +0.000 A 
ATOM     28  C   UNL     1       2.151   2.502  17.788  0.00  0.00    +0.000 A 
ATOM     29  C   UNL     1       1.795   3.796  18.173  0.00  0.00    +0.000 A 
ENDBRANCH  22  24
ENDBRANCH   1  23
TORSDOF 4
ENDMDL
MODEL 6
REMARK VINA RESULT:      -7.5      1.926      2.930
REMARK  Name = 
REMARK  5 active torsions:
REMARK  status: ('A' for Active; 'I' for Inactive)
REMARK    1  A    between atoms: C_1  and  C_2
REMARK    2  A    between atoms: C_5  and  C_6
REMARK    3  A    between atoms: C_12  and  N_13
REMARK    4  A    between atoms: N_16  and  C_17
REMARK    5  A    between atoms: C_25  and  O_26
REMARK                            x       y       z     vdW  Elec       q    Type
REMARK                         _______ _______ _______ _____ _____    ______ ____
ROOT
ATOM      1  N   UNL     1       4.286   4.598  16.382  0.00  0.00    +0.000 N 
ATOM      2  C   UNL     1       3.648   3.957  17.401  0.00  0.00    +0.000 C 
ATOM      3  O   UNL     1       2.511   3.495  17.253  0.00  0.00    +0.000 OA
ATOM      4  N   UNL     1       4.311   3.880  18.565  0.00  0.00    +0.000 N 
ATOM      5  H   UNL     1       3.707   4.751  15.570  0.00  0.00    +0.000 HD
ATOM      6  H   UNL     1       4.968   4.607  18.714  0.00  0.00    +0.000 HD
ENDROOT
BRANCH   4   7
ATOM      7  C   UNL     1       3.840   3.159  19.692  0.00  0.00    +0.000 C 
ATOM      8  C   UNL     1       3.083   3.897  20.845  0.00  0.00    +0.000 A 
ATOM      9  C   UNL     1       2.417   5.100  20.765  0.00  0.00    +0.000 A 
ATOM     10  C   UNL     1       1.104   5.067  20.341  0.00  0.00    +0.000 A 
ATOM     11  C   UNL     1       0.524   3.820  20.128  0.00  0.00    +0.000 A 
ATOM     12  C   UNL     1       1.134   2.661  20.665  0.00  0.00    +0.000 A 
ATOM     13  C   UNL     1       2.387   2.772  21.273  0.00  0.00    +0.000 A 
ATOM     14  C   UNL     1       3.435   1.685  21.500  0.00  0.00    +0.000 C 
ATOM     15  C   UNL     1       4.621   2.199  20.594  0.00  0.00    +0.000 C 
BRANCH  15  16
ATOM     16  O   UNL     1       5.216   1.130  19.870  0.00  0.00    +0.000 OA
ATOM     17  H   UNL     1       5.618   0.527  20.516  0.00  0.00    +0.000 HD
ENDBRANCH  15  16
ENDBRANCH   4   7
BRANCH   1  23
ATOM     18  C   UNL     1       5.819   6.210  18.808  0.00  0.00    +0.000 C 
ATOM     19  C   UNL     1       6.240   5.862  17.432  0.00  0.00    +0.000 A 
ATOM     20  N   UNL     1       7.492   6.168  17.065  0.00  0.00    +0.000 NA
ATOM     21  O   UNL     1       7.644   5.669  15.796  0.00  0.00    +0.000 OA
ATOM     22  C   UNL     1       6.507   5.044  15.392  0.00  0.00    +0.000 A 
ATOM     23  C   UNL     1       5.555   5.149  16.400  0.00  0.00    +0.000 A 
BRANCH  22  24
ATOM     24  C   UNL     1       6.547   4.523  14.036  0.00  0.00    +0.000 A 
ATOM     25  C   UNL     1       7.524   4.977  13.135  0.00  0.00    +0.000 A 
ATOM     26  C   UNL     1       7.561   4.506  11.822  0.00  0.00    +0.000 A 
ATOM     27  C   UNL     1       6.619   3.578  11.391  0.00  0.00    +0.000 A 
ATOM     28  C   UNL     1       5.645   3.115  12.272  0.00  0.00    +0.000 A 
ATOM     29  C   UNL     1       5.606   3.587  13.587  0.00  0.00    +0.000 A 
ENDBRANCH  22  24
ENDBRANCH   1  23
TORSDOF 4
ENDMDL
MODEL 7
REMARK VINA RESULT:      -7.4      8.113     12.236
REMARK  Name = 
REMARK  5 active torsions:
REMARK  status: ('A' for Active; 'I' for Inactive)
REMARK    1  A    between atoms: C_1  and  C_2
REMARK    2  A    between atoms: C_5  and  C_6
REMARK    3  A    between atoms: C_12  and  N_13
REMARK    4  A    between atoms: N_16  and  C_17
REMARK    5  A    between atoms: C_25  and  O_26
REMARK                            x       y       z     vdW  Elec       q    Type
REMARK                         _______ _______ _______ _____ _____    ______ ____
ROOT
ATOM      1  N   UNL     1      -3.883  12.410  18.628  0.00  0.00    +0.000 N 
ATOM      2  C   UNL     1      -2.634  11.877  18.520  0.00  0.00    +0.000 C 
ATOM      3  O   UNL     1      -1.895  12.166  17.573  0.00  0.00    +0.000 OA
ATOM      4  N   UNL     1      -2.269  11.012  19.480  0.00  0.00    +0.000 N 
ATOM      5  H   UNL     1      -4.167  12.948  17.824  0.00  0.00    +0.000 HD
ATOM      6  H   UNL     1      -3.023  10.535  19.913  0.00  0.00    +0.000 HD
ENDROOT
BRANCH   4   7
ATOM      7  C   UNL     1      -0.972  10.448  19.578  0.00  0.00    +0.000 C 
ATOM      8  C   UNL     1      -0.002  10.887  20.724  0.00  0.00    +0.000 A 
ATOM      9  C   UNL     1      -0.345  11.450  21.933  0.00  0.00    +0.000 A 
ATOM     10  C   UNL     1      -0.671  10.588  22.960  0.00  0.00    +0.000 A 
ATOM     11  C   UNL     1      -0.528   9.222  22.728  0.00  0.00    +0.000 A 
ATOM     12  C   UNL     1       0.248   8.774  21.633  0.00  0.00    +0.000 A 
ATOM     13  C   UNL     1       0.736   9.710  20.716  0.00  0.00    +0.000 A 
ATOM     14  C   UNL     1       1.170   9.487  19.269  0.00  0.00    +0.000 C 
ATOM     15  C   UNL     1       0.097  10.341  18.486  0.00  0.00    +0.000 C 
BRANCH  15  16
ATOM     16  O   UNL     1      -0.366   9.651  17.332  0.00  0.00    +0.000 OA
ATOM     17  H   UNL     1      -1.037   9.012  17.624  0.00  0.00    +0.000 HD
ENDBRANCH  15  16
ENDBRANCH   4   7
BRANCH   1  23
ATOM     18  C   UNL     1      -6.748  10.796  18.498  0.00  0.00    +0.000 C 
ATOM     19  C   UNL     1      -6.061  11.503  19.602  0.00  0.00    +0.000 A 
ATOM     20  N   UNL     1      -6.620  11.453  20.819  0.00  0.00    +0.000 NA
ATOM     21  O   UNL     1      -5.752  12.105  21.658  0.00  0.00    +0.000 OA
ATOM     22  C   UNL     1      -4.660  12.532  20.972  0.00  0.00    +0.000 A 
ATOM     23  C   UNL     1      -4.808  12.188  19.633  0.00  0.00    +0.000 A 
BRANCH  22  24
ATOM     24  C   UNL     1      -3.698  13.282  21.762  0.00  0.00    +0.000 A 
ATOM     25  C   UNL     1      -3.519  12.984  23.123  0.00  0.00    +0.000 A 
ATOM     26  C   UNL     1      -2.618  13.711  23.903  0.00  0.00    +0.000 A 
ATOM     27  C   UNL     1      -1.887  14.748  23.334  0.00  0.00    +0.000 A 
ATOM     28  C   UNL     1      -2.050  15.055  21.985  0.00  0.00    +0.000 A 
ATOM     29  C   UNL     1      -2.952  14.329  21.203  0.00  0.00    +0.000 A 
ENDBRANCH  22  24
ENDBRANCH   1  23
TORSDOF 4
ENDMDL
MODEL 8
REMARK VINA RESULT:      -7.4      1.989      2.896
REMARK  Name = 
REMARK  5 active torsions:
REMARK  status: ('A' for Active; 'I' for Inactive)
REMARK    1  A    between atoms: C_1  and  C_2
REMARK    2  A    between atoms: C_5  and  C_6
REMARK    3  A    between atoms: C_12  and  N_13
REMARK    4  A    between atoms: N_16  and  C_17
REMARK    5  A    between atoms: C_25  and  O_26
REMARK                            x       y       z     vdW  Elec       q    Type
REMARK                         _______ _______ _______ _____ _____    ______ ____
ROOT
ATOM      1  N   UNL     1       4.038   4.412  16.086  0.00  0.00    +0.000 N 
ATOM      2  C   UNL     1       3.469   3.863  17.195  0.00  0.00    +0.000 C 
ATOM      3  O   UNL     1       2.305   3.449  17.178  0.00  0.00    +0.000 OA
ATOM      4  N   UNL     1       4.232   3.819  18.298  0.00  0.00    +0.000 N 
ATOM      5  H   UNL     1       3.395   4.547  15.321  0.00  0.00    +0.000 HD
ATOM      6  H   UNL     1       4.932   4.520  18.343  0.00  0.00    +0.000 HD
ENDROOT
BRANCH   4   7
ATOM      7  C   UNL     1       3.836   3.188  19.504  0.00  0.00    +0.000 C 
ATOM      8  C   UNL     1       3.202   4.023  20.665  0.00  0.00    +0.000 A 
ATOM      9  C   UNL     1       2.570   5.242  20.562  0.00  0.00    +0.000 A 
ATOM     10  C   UNL     1       1.225   5.231  20.250  0.00  0.00    +0.000 A 
ATOM     11  C   UNL     1       0.591   3.995  20.167  0.00  0.00    +0.000 A 
ATOM     12  C   UNL     1       1.207   2.851  20.726  0.00  0.00    +0.000 A 
ATOM     13  C   UNL     1       2.511   2.954  21.221  0.00  0.00    +0.000 A 
ATOM     14  C   UNL     1       3.539   1.845  21.432  0.00  0.00    +0.000 C 
ATOM     15  C   UNL     1       4.660   2.258  20.400  0.00  0.00    +0.000 C 
BRANCH  15  16
ATOM     16  O   UNL     1       5.158   1.125  19.700  0.00  0.00    +0.000 OA
ATOM     17  H   UNL     1       4.511   0.409  19.806  0.00  0.00    +0.000 HD
ENDBRANCH  15  16
ENDBRANCH   4   7
BRANCH   1  23
ATOM     18  C   UNL     1       5.821   6.166  18.226  0.00  0.00    +0.000 C 
ATOM     19  C   UNL     1       6.119   5.673  16.862  0.00  0.00    +0.000 A 
ATOM     20  N   UNL     1       7.350   5.882  16.377  0.00  0.00    +0.000 NA
ATOM     21  O   UNL     1       7.382   5.261  15.153  0.00  0.00    +0.000 OA
ATOM     22  C   UNL     1       6.192   4.657  14.897  0.00  0.00    +0.000 A 
ATOM     23  C   UNL     1       5.326   4.901  15.957  0.00  0.00    +0.000 A 
BRANCH  22  24
ATOM     24  C   UNL     1       6.104   4.011  13.598  0.00  0.00    +0.000 A 
ATOM     25  C   UNL     1       4.853   3.644  13.076  0.00  0.00    +0.000 A 
ATOM     26  C   UNL     1       4.752   3.000  11.842  0.00  0.00    +0.000 A 
ATOM     27  C   UNL     1       5.902   2.712  11.114  0.00  0.00    +0.000 A 
ATOM     28  C   UNL     1       7.151   3.072  11.615  0.00  0.00    +0.000 A 
ATOM     29  C   UNL     1       7.253   3.715  12.851  0.00  0.00    +0.000 A 
ENDBRANCH  22  24
ENDBRANCH   1  23
TORSDOF 4
ENDMDL
MODEL 9
REMARK VINA RESULT:      -7.4      3.440      7.474
REMARK  Name = 
REMARK  5 active torsions:
REMARK  status: ('A' for Active; 'I' for Inactive)
REMARK    1  A    between atoms: C_1  and  C_2
REMARK    2  A    between atoms: C_5  and  C_6
REMARK    3  A    between atoms: C_12  and  N_13
REMARK    4  A    between atoms: N_16  and  C_17
REMARK    5  A    between atoms: C_25  and  O_26
REMARK                            x       y       z     vdW  Elec       q    Type
REMARK                         _______ _______ _______ _____ _____    ______ ____
ROOT
ATOM      1  N   UNL     1       2.240   7.233  20.638  0.00  0.00    +0.000 N 
ATOM      2  C   UNL     1       2.265   5.878  20.491  0.00  0.00    +0.000 C 
ATOM      3  O   UNL     1       2.513   5.136  21.447  0.00  0.00    +0.000 OA
ATOM      4  N   UNL     1       2.031   5.408  19.256  0.00  0.00    +0.000 N 
ATOM      5  H   UNL     1       2.549   7.550  21.544  0.00  0.00    +0.000 HD
ATOM      6  H   UNL     1       2.268   6.034  18.525  0.00  0.00    +0.000 HD
ENDROOT
BRANCH   4   7
ATOM      7  C   UNL     1       1.916   4.029  18.949  0.00  0.00    +0.000 C 
ATOM      8  C   UNL     1       2.233   3.508  17.509  0.00  0.00    +0.000 A 
ATOM      9  C   UNL     1       3.021   4.119  16.559  0.00  0.00    +0.000 A 
ATOM     10  C   UNL     1       4.378   3.875  16.613  0.00  0.00    +0.000 A 
ATOM     11  C   UNL     1       4.833   2.953  17.552  0.00  0.00    +0.000 A 
ATOM     12  C   UNL     1       3.918   2.059  18.157  0.00  0.00    +0.000 A 
ATOM     13  C   UNL     1       2.551   2.217  17.914  0.00  0.00    +0.000 A 
ATOM     14  C   UNL     1       1.372   1.732  18.755  0.00  0.00    +0.000 C 
ATOM     15  C   UNL     1       0.724   3.100  19.203  0.00  0.00    +0.000 C 
BRANCH  15  16
ATOM     16  O   UNL     1       0.339   3.064  20.571  0.00  0.00    +0.000 OA
ATOM     17  H   UNL     1       0.881   3.716  21.044  0.00  0.00    +0.000 HD
ENDBRANCH  15  16
ENDBRANCH   4   7
BRANCH   1  23
ATOM     18  C   UNL     1       3.319   7.396  17.533  0.00  0.00    +0.000 C 
ATOM     19  C   UNL     1       2.429   8.280  18.318  0.00  0.00    +0.000 A 
ATOM     20  N   UNL     1       1.865   9.319  17.686  0.00  0.00    +0.000 NA
ATOM     21  O   UNL     1       1.036   9.913  18.604  0.00  0.00    +0.000 OA
ATOM     22  C   UNL     1       1.071   9.236  19.782  0.00  0.00    +0.000 A 
ATOM     23  C   UNL     1       1.967   8.179  19.666  0.00  0.00    +0.000 A 
BRANCH  22  24
ATOM     24  C   UNL     1       0.263   9.815  20.842  0.00  0.00    +0.000 A 
ATOM     25  C   UNL     1      -0.433  11.015  20.622  0.00  0.00    +0.000 A 
ATOM     26  C   UNL     1      -1.193  11.599  21.636  0.00  0.00    +0.000 A 
ATOM     27  C   UNL     1      -1.264  10.993  22.886  0.00  0.00    +0.000 A 
ATOM     28  C   UNL     1      -0.582   9.801  23.121  0.00  0.00    +0.000 A 
ATOM     29  C   UNL     1       0.180   9.216  22.106  0.00  0.00    +0.000 A 
ENDBRANCH  22  24
ENDBRANCH   1  23
TORSDOF 4
ENDMDL
