MODEL 1
REMARK VINA RESULT:      -9.3      0.000      0.000
REMARK  Name = 
REMARK  4 active torsions:
REMARK  status: ('A' for Active; 'I' for Inactive)
REMARK    1  A    between atoms: C_2  and  C_3
REMARK    2  A    between atoms: C_3  and  N_4
REMARK    3  A    between atoms: C_12  and  C_13
REMARK    4  A    between atoms: N_19  and  C_20
REMARK                            x       y       z     vdW  Elec       q    Type
REMARK                         _______ _______ _______ _____ _____    ______ ____
ROOT
ATOM      1  O   UNL     1       2.170  10.372  17.447  0.00  0.00    +0.000 OA
ATOM      2  C   UNL     1       1.843   9.358  18.069  0.00  0.00    +0.000 C 
ATOM      3  N   UNL     1       0.615   9.139  18.659  0.00  0.00    +0.000 N 
ATOM      4  H   UNL     1       0.574   8.374  19.327  0.00  0.00    +0.000 HD
ENDROOT
BRANCH   3   5
ATOM      5  C   UNL     1      -0.479  10.049  18.613  0.00  0.00    +0.000 A 
ATOM      6  C   UNL     1      -0.618  11.083  19.577  0.00  0.00    +0.000 A 
ATOM      7  C   UNL     1      -1.754  11.892  19.655  0.00  0.00    +0.000 A 
ATOM      8  C   UNL     1      -2.709  11.683  18.698  0.00  0.00    +0.000 A 
ATOM      9  N   UNL     1      -3.940  12.304  18.536  0.00  0.00    +0.000 N 
ATOM     10  C   UNL     1      -4.525  11.837  17.354  0.00  0.00    +0.000 A 
ATOM     11  O   UNL     1      -5.590  12.192  16.879  0.00  0.00    +0.000 OA
ATOM     12  N   UNL     1      -3.642  10.881  16.820  0.00  0.00    +0.000 N 
ATOM     13  C   UNL     1      -2.541  10.762  17.665  0.00  0.00    +0.000 A 
ATOM     14  C   UNL     1      -1.445   9.922  17.597  0.00  0.00    +0.000 A 
ATOM     15  H   UNL     1      -4.373  12.968  19.157  0.00  0.00    +0.000 HD
ATOM     16  H   UNL     1      -3.809  10.399  15.953  0.00  0.00    +0.000 HD
ENDBRANCH   3   5
BRANCH   2  17
ATOM     17  C   UNL     1       2.847   8.211  18.155  0.00  0.00    +0.000 C 
BRANCH  17  18
ATOM     18  N   UNL     1       2.278   6.896  18.531  0.00  0.00    +0.000 NA
ATOM     19  C   UNL     1       2.296   6.656  19.992  0.00  0.00    +0.000 C 
ATOM     20  C   UNL     1       1.655   5.308  20.407  0.00  0.00    +0.000 C 
ATOM     21  C   UNL     1       1.984   4.232  19.426  0.00  0.00    +0.000 A 
ATOM     22  S   UNL     1       1.647   2.590  19.705  0.00  0.00    +0.000 S 
ATOM     23  C   UNL     1       2.275   2.148  18.173  0.00  0.00    +0.000 A 
ATOM     24  C   UNL     1       2.724   3.240  17.463  0.00  0.00    +0.000 A 
ATOM     25  C   UNL     1       2.572   4.463  18.198  0.00  0.00    +0.000 A 
ATOM     26  C   UNL     1       3.002   5.834  17.755  0.00  0.00    +0.000 C 
BRANCH  26  27
ATOM     27  C   UNL     1       4.536   5.808  17.806  0.00  0.00    +0.000 A 
ATOM     28  C   UNL     1       5.263   6.097  16.634  0.00  0.00    +0.000 A 
ATOM     29  C   UNL     1       6.661   6.069  16.623  0.00  0.00    +0.000 A 
ATOM     30  C   UNL     1       7.364   5.763  17.785  0.00  0.00    +0.000 A 
ATOM     31  C   UNL     1       6.672   5.476  18.955  0.00  0.00    +0.000 A 
ATOM     32  C   UNL     1       5.274   5.490  18.962  0.00  0.00    +0.000 A 
ENDBRANCH  26  27
ENDBRANCH  17  18
ENDBRANCH   2  17
TORSDOF 4
ENDMDL
MODEL 2
REMARK VINA RESULT:      -8.8      1.437      1.952
REMARK  Name = 
REMARK  4 active torsions:
REMARK  status: ('A' for Active; 'I' for Inactive)
REMARK    1  A    between atoms: C_2  and  C_3
REMARK    2  A    between atoms: C_3  and  N_4
REMARK    3  A    between atoms: C_12  and  C_13
REMARK    4  A    between atoms: N_19  and  C_20
REMARK                            x       y       z     vdW  Elec       q    Type
REMARK                         _______ _______ _______ _____ _____    ______ ____
ROOT
ATOM      1  O   UNL     1       2.108  10.232  17.441  0.00  0.00    +0.000 OA
ATOM      2  C   UNL     1       1.922   9.280  18.204  0.00  0.00    +0.000 C 
ATOM      3  N   UNL     1       0.863   9.144  19.076  0.00  0.00    +0.000 N 
ATOM      4  H   UNL     1       0.969   8.436  19.797  0.00  0.00    +0.000 HD
ENDROOT
BRANCH   3   5
ATOM      5  C   UNL     1      -0.203  10.081  19.208  0.00  0.00    +0.000 A 
ATOM      6  C   UNL     1      -1.147  10.273  18.165  0.00  0.00    +0.000 A 
ATOM      7  C   UNL     1      -2.107  11.288  18.197  0.00  0.00    +0.000 A 
ATOM      8  C   UNL     1      -2.138  12.052  19.330  0.00  0.00    +0.000 A 
ATOM      9  N   UNL     1      -2.950  13.136  19.636  0.00  0.00    +0.000 N 
ATOM     10  C   UNL     1      -2.693  13.531  20.953  0.00  0.00    +0.000 A 
ATOM     11  O   UNL     1      -3.248  14.425  21.567  0.00  0.00    +0.000 OA
ATOM     12  N   UNL     1      -1.670  12.691  21.432  0.00  0.00    +0.000 N 
ATOM     13  C   UNL     1      -1.306  11.804  20.421  0.00  0.00    +0.000 A 
ATOM     14  C   UNL     1      -0.320  10.834  20.391  0.00  0.00    +0.000 A 
ATOM     15  H   UNL     1      -3.608  13.594  19.027  0.00  0.00    +0.000 HD
ATOM     16  H   UNL     1      -1.305  12.744  22.367  0.00  0.00    +0.000 HD
ENDBRANCH   3   5
BRANCH   2  17
ATOM     17  C   UNL     1       2.906   8.113  18.151  0.00  0.00    +0.000 C 
BRANCH  17  18
ATOM     18  N   UNL     1       2.341   6.790  18.498  0.00  0.00    +0.000 NA
ATOM     19  C   UNL     1       2.323   6.534  19.956  0.00  0.00    +0.000 C 
ATOM     20  C   UNL     1       1.684   5.175  20.340  0.00  0.00    +0.000 C 
ATOM     21  C   UNL     1       2.049   4.113  19.357  0.00  0.00    +0.000 A 
ATOM     22  S   UNL     1       1.721   2.466  19.609  0.00  0.00    +0.000 S 
ATOM     23  C   UNL     1       2.393   2.046  18.091  0.00  0.00    +0.000 A 
ATOM     24  C   UNL     1       2.850   3.150  17.404  0.00  0.00    +0.000 A 
ATOM     25  C   UNL     1       2.667   4.363  18.148  0.00  0.00    +0.000 A 
ATOM     26  C   UNL     1       3.095   5.743  17.730  0.00  0.00    +0.000 C 
BRANCH  26  27
ATOM     27  C   UNL     1       4.628   5.731  17.821  0.00  0.00    +0.000 A 
ATOM     28  C   UNL     1       5.382   5.975  16.657  0.00  0.00    +0.000 A 
ATOM     29  C   UNL     1       6.780   5.957  16.683  0.00  0.00    +0.000 A 
ATOM     30  C   UNL     1       7.455   5.707  17.875  0.00  0.00    +0.000 A 
ATOM     31  C   UNL     1       6.735   5.464  19.038  0.00  0.00    +0.000 A 
ATOM     32  C   UNL     1       5.337   5.468  19.009  0.00  0.00    +0.000 A 
ENDBRANCH  26  27
ENDBRANCH  17  18
ENDBRANCH   2  17
TORSDOF 4
ENDMDL
MODEL 3
REMARK VINA RESULT:      -8.6      1.085      1.092
REMARK  Name = 
REMARK  4 active torsions:
REMARK  status: ('A' for Active; 'I' for Inactive)
REMARK    1  A    between atoms: C_2  and  C_3
REMARK    2  A    between atoms: C_3  and  N_4
REMARK    3  A    between atoms: C_12  and  C_13
REMARK    4  A    between atoms: N_19  and  C_20
REMARK                            x       y       z     vdW  Elec       q    Type
REMARK                         _______ _______ _______ _____ _____    ______ ____
ROOT
ATOM      1  O   UNL     1       1.295   9.048  20.411  0.00  0.00    +0.000 OA
ATOM      2  C   UNL     1       1.408   8.837  19.200  0.00  0.00    +0.000 C 
ATOM      3  N   UNL     1       0.655   9.430  18.208  0.00  0.00    +0.000 N 
ATOM      4  H   UNL     1       0.698   8.987  17.294  0.00  0.00    +0.000 HD
ENDROOT
BRANCH   3   5
ATOM      5  C   UNL     1      -0.357  10.407  18.433  0.00  0.00    +0.000 A 
ATOM      6  C   UNL     1      -0.051  11.658  19.030  0.00  0.00    +0.000 A 
ATOM      7  C   UNL     1      -1.038  12.573  19.406  0.00  0.00    +0.000 A 
ATOM      8  C   UNL     1      -2.326  12.229  19.103  0.00  0.00    +0.000 A 
ATOM      9  N   UNL     1      -3.504  12.912  19.372  0.00  0.00    +0.000 N 
ATOM     10  C   UNL     1      -4.566  12.225  18.777  0.00  0.00    +0.000 A 
ATOM     11  O   UNL     1      -5.739  12.556  18.778  0.00  0.00    +0.000 OA
ATOM     12  N   UNL     1      -4.016  11.079  18.174  0.00  0.00    +0.000 N 
ATOM     13  C   UNL     1      -2.642  11.065  18.404  0.00  0.00    +0.000 A 
ATOM     14  C   UNL     1      -1.685  10.127  18.063  0.00  0.00    +0.000 A 
ATOM     15  H   UNL     1      -3.609  13.752  19.918  0.00  0.00    +0.000 HD
ATOM     16  H   UNL     1      -4.561  10.414  17.653  0.00  0.00    +0.000 HD
ENDBRANCH   3   5
BRANCH   2  17
ATOM     17  C   UNL     1       2.508   7.885  18.735  0.00  0.00    +0.000 C 
BRANCH  17  18
ATOM     18  N   UNL     1       2.187   6.444  18.843  0.00  0.00    +0.000 NA
ATOM     19  C   UNL     1       2.204   5.952  20.239  0.00  0.00    +0.000 C 
ATOM     20  C   UNL     1       1.817   4.457  20.375  0.00  0.00    +0.000 C 
ATOM     21  C   UNL     1       2.376   3.653  19.248  0.00  0.00    +0.000 A 
ATOM     22  S   UNL     1       2.348   1.955  19.220  0.00  0.00    +0.000 S 
ATOM     23  C   UNL     1       3.098   1.917  17.680  0.00  0.00    +0.000 A 
ATOM     24  C   UNL     1       3.354   3.182  17.198  0.00  0.00    +0.000 A 
ATOM     25  C   UNL     1       2.949   4.204  18.119  0.00  0.00    +0.000 A 
ATOM     26  C   UNL     1       3.124   5.687  17.945  0.00  0.00    +0.000 C 
BRANCH  26  27
ATOM     27  C   UNL     1       4.633   5.932  18.092  0.00  0.00    +0.000 A 
ATOM     28  C   UNL     1       5.290   6.733  17.137  0.00  0.00    +0.000 A 
ATOM     29  C   UNL     1       6.666   6.970  17.215  0.00  0.00    +0.000 A 
ATOM     30  C   UNL     1       7.414   6.423  18.254  0.00  0.00    +0.000 A 
ATOM     31  C   UNL     1       6.790   5.630  19.209  0.00  0.00    +0.000 A 
ATOM     32  C   UNL     1       5.417   5.381  19.123  0.00  0.00    +0.000 A 
ENDBRANCH  26  27
ENDBRANCH  17  18
ENDBRANCH   2  17
TORSDOF 4
ENDMDL
MODEL 4
REMARK VINA RESULT:      -8.5      0.888      1.236
REMARK  Name = 
REMARK  4 active torsions:
REMARK  status: ('A' for Active; 'I' for Inactive)
REMARK    1  A    between atoms: C_2  and  C_3
REMARK    2  A    between atoms: C_3  and  N_4
REMARK    3  A    between atoms: C_12  and  C_13
REMARK    4  A    between atoms: N_19  and  C_20
REMARK                            x       y       z     vdW  Elec       q    Type
REMARK                         _______ _______ _______ _____ _____    ______ ____
ROOT
ATOM      1  O   UNL     1       1.362   9.347  20.082  0.00  0.00    +0.000 OA
ATOM      2  C   UNL     1       1.397   8.876  18.942  0.00  0.00    +0.000 C 
ATOM      3  N   UNL     1       0.517   9.172  17.923  0.00  0.00    +0.000 N 
ATOM      4  H   UNL     1       0.527   8.538  17.129  0.00  0.00    +0.000 HD
ENDROOT
BRANCH   3   5
ATOM      5  C   UNL     1      -0.560  10.099  18.027  0.00  0.00    +0.000 A 
ATOM      6  C   UNL     1      -0.401  11.338  18.701  0.00  0.00    +0.000 A 
ATOM      7  C   UNL     1      -1.473  12.199  18.956  0.00  0.00    +0.000 A 
ATOM      8  C   UNL     1      -2.686  11.815  18.456  0.00  0.00    +0.000 A 
ATOM      9  N   UNL     1      -3.920  12.440  18.570  0.00  0.00    +0.000 N 
ATOM     10  C   UNL     1      -4.852  11.734  17.803  0.00  0.00    +0.000 A 
ATOM     11  O   UNL     1      -6.027  12.017  17.642  0.00  0.00    +0.000 OA
ATOM     12  N   UNL     1      -4.169  10.634  17.253  0.00  0.00    +0.000 N 
ATOM     13  C   UNL     1      -2.844  10.666  17.681  0.00  0.00    +0.000 A 
ATOM     14  C   UNL     1      -1.806   9.780  17.456  0.00  0.00    +0.000 A 
ATOM     15  H   UNL     1      -4.141  13.254  19.120  0.00  0.00    +0.000 HD
ATOM     16  H   UNL     1      -4.601   9.968  16.636  0.00  0.00    +0.000 HD
ENDBRANCH   3   5
BRANCH   2  17
ATOM     17  C   UNL     1       2.540   7.925  18.591  0.00  0.00    +0.000 C 
BRANCH  17  18
ATOM     18  N   UNL     1       2.238   6.484  18.748  0.00  0.00    +0.000 NA
ATOM     19  C   UNL     1       2.267   6.040  20.160  0.00  0.00    +0.000 C 
ATOM     20  C   UNL     1       1.899   4.546  20.349  0.00  0.00    +0.000 C 
ATOM     21  C   UNL     1       2.465   3.712  19.247  0.00  0.00    +0.000 A 
ATOM     22  S   UNL     1       2.459   2.013  19.276  0.00  0.00    +0.000 S 
ATOM     23  C   UNL     1       3.203   1.933  17.736  0.00  0.00    +0.000 A 
ATOM     24  C   UNL     1       3.441   3.184  17.210  0.00  0.00    +0.000 A 
ATOM     25  C   UNL     1       3.026   4.231  18.098  0.00  0.00    +0.000 A 
ATOM     26  C   UNL     1       3.182   5.710  17.874  0.00  0.00    +0.000 C 
BRANCH  26  27
ATOM     27  C   UNL     1       4.688   5.979  18.005  0.00  0.00    +0.000 A 
ATOM     28  C   UNL     1       5.398   5.378  19.063  0.00  0.00    +0.000 A 
ATOM     29  C   UNL     1       6.767   5.606  19.238  0.00  0.00    +0.000 A 
ATOM     30  C   UNL     1       7.459   6.428  18.353  0.00  0.00    +0.000 A 
ATOM     31  C   UNL     1       6.782   7.031  17.300  0.00  0.00    +0.000 A 
ATOM     32  C   UNL     1       5.411   6.816  17.134  0.00  0.00    +0.000 A 
ENDBRANCH  26  27
ENDBRANCH  17  18
ENDBRANCH   2  17
TORSDOF 4
ENDMDL
MODEL 5
REMARK VINA RESULT:      -8.4      2.404      2.761
REMARK  Name = 
REMARK  4 active torsions:
REMARK  status: ('A' for Active; 'I' for Inactive)
REMARK    1  A    between atoms: C_2  and  C_3
REMARK    2  A    between atoms: C_3  and  N_4
REMARK    3  A    between atoms: C_12  and  C_13
REMARK    4  A    between atoms: N_19  and  C_20
REMARK                            x       y       z     vdW  Elec       q    Type
REMARK                         _______ _______ _______ _____ _____    ______ ____
ROOT
ATOM      1  O   UNL     1       0.816   9.262  17.650  0.00  0.00    +0.000 OA
ATOM      2  C   UNL     1       1.595   9.011  18.573  0.00  0.00    +0.000 C 
ATOM      3  N   UNL     1       1.534   9.545  19.843  0.00  0.00    +0.000 N 
ATOM      4  H   UNL     1       2.368   9.431  20.413  0.00  0.00    +0.000 HD
ENDROOT
BRANCH   3   5
ATOM      5  C   UNL     1       0.535  10.456  20.292  0.00  0.00    +0.000 A 
ATOM      6  C   UNL     1       0.162  11.583  19.513  0.00  0.00    +0.000 A 
ATOM      7  C   UNL     1      -0.697  12.576  19.989  0.00  0.00    +0.000 A 
ATOM      8  C   UNL     1      -1.226  12.370  21.233  0.00  0.00    +0.000 A 
ATOM      9  N   UNL     1      -2.076  13.181  21.972  0.00  0.00    +0.000 N 
ATOM     10  C   UNL     1      -2.434  12.507  23.143  0.00  0.00    +0.000 A 
ATOM     11  O   UNL     1      -3.195  12.903  24.008  0.00  0.00    +0.000 OA
ATOM     12  N   UNL     1      -1.746  11.280  23.126  0.00  0.00    +0.000 N 
ATOM     13  C   UNL     1      -0.976  11.211  21.967  0.00  0.00    +0.000 A 
ATOM     14  C   UNL     1      -0.094  10.238  21.532  0.00  0.00    +0.000 A 
ATOM     15  H   UNL     1      -2.384  14.111  21.738  0.00  0.00    +0.000 HD
ATOM     16  H   UNL     1      -1.839  10.584  23.846  0.00  0.00    +0.000 HD
ENDBRANCH   3   5
BRANCH   2  17
ATOM     17  C   UNL     1       2.693   7.979  18.328  0.00  0.00    +0.000 C 
BRANCH  17  18
ATOM     18  N   UNL     1       2.300   6.569  18.551  0.00  0.00    +0.000 NA
ATOM     19  C   UNL     1       2.197   6.219  19.986  0.00  0.00    +0.000 C 
ATOM     20  C   UNL     1       1.734   4.762  20.238  0.00  0.00    +0.000 C 
ATOM     21  C   UNL     1       2.333   3.828  19.238  0.00  0.00    +0.000 A 
ATOM     22  S   UNL     1       2.230   2.138  19.374  0.00  0.00    +0.000 S 
ATOM     23  C   UNL     1       3.082   1.916  17.905  0.00  0.00    +0.000 A 
ATOM     24  C   UNL     1       3.429   3.116  17.322  0.00  0.00    +0.000 A 
ATOM     25  C   UNL     1       3.008   4.240  18.107  0.00  0.00    +0.000 A 
ATOM     26  C   UNL     1       3.262   5.691  17.803  0.00  0.00    +0.000 C 
BRANCH  26  27
ATOM     27  C   UNL     1       4.767   5.890  18.036  0.00  0.00    +0.000 A 
ATOM     28  C   UNL     1       5.512   6.624  17.092  0.00  0.00    +0.000 A 
ATOM     29  C   UNL     1       6.888   6.817  17.248  0.00  0.00    +0.000 A 
ATOM     30  C   UNL     1       7.548   6.294  18.356  0.00  0.00    +0.000 A 
ATOM     31  C   UNL     1       6.836   5.568  19.303  0.00  0.00    +0.000 A 
ATOM     32  C   UNL     1       5.463   5.362  19.140  0.00  0.00    +0.000 A 
ENDBRANCH  26  27
ENDBRANCH  17  18
ENDBRANCH   2  17
TORSDOF 4
ENDMDL
MODEL 6
REMARK VINA RESULT:      -8.4      2.759      3.011
REMARK  Name = 
REMARK  4 active torsions:
REMARK  status: ('A' for Active; 'I' for Inactive)
REMARK    1  A    between atoms: C_2  and  C_3
REMARK    2  A    between atoms: C_3  and  N_4
REMARK    3  A    between atoms: C_12  and  C_13
REMARK    4  A    between atoms: N_19  and  C_20
REMARK                            x       y       z     vdW  Elec       q    Type
REMARK                         _______ _______ _______ _____ _____    ______ ____
ROOT
ATOM      1  O   UNL     1       0.648   9.591  18.519  0.00  0.00    +0.000 OA
ATOM      2  C   UNL     1       1.452   9.025  19.263  0.00  0.00    +0.000 C 
ATOM      3  N   UNL     1       1.537   9.191  20.630  0.00  0.00    +0.000 N 
ATOM      4  H   UNL     1       2.388   8.848  21.067  0.00  0.00    +0.000 HD
ENDROOT
BRANCH   3   5
ATOM      5  C   UNL     1       0.679  10.029  21.398  0.00  0.00    +0.000 A 
ATOM      6  C   UNL     1      -0.014   9.531  22.533  0.00  0.00    +0.000 A 
ATOM      7  C   UNL     1      -0.978  10.279  23.214  0.00  0.00    +0.000 A 
ATOM      8  C   UNL     1      -1.172  11.558  22.770  0.00  0.00    +0.000 A 
ATOM      9  N   UNL     1      -2.068  12.517  23.222  0.00  0.00    +0.000 N 
ATOM     10  C   UNL     1      -1.830  13.712  22.535  0.00  0.00    +0.000 A 
ATOM     11  O   UNL     1      -2.404  14.774  22.700  0.00  0.00    +0.000 OA
ATOM     12  N   UNL     1      -0.796  13.448  21.618  0.00  0.00    +0.000 N 
ATOM     13  C   UNL     1      -0.415  12.114  21.740  0.00  0.00    +0.000 A 
ATOM     14  C   UNL     1       0.511  11.376  21.025  0.00  0.00    +0.000 A 
ATOM     15  H   UNL     1      -2.791  12.397  23.913  0.00  0.00    +0.000 HD
ATOM     16  H   UNL     1      -0.410  14.146  21.005  0.00  0.00    +0.000 HD
ENDBRANCH   3   5
BRANCH   2  17
ATOM     17  C   UNL     1       2.407   8.004  18.648  0.00  0.00    +0.000 C 
BRANCH  17  18
ATOM     18  N   UNL     1       2.008   6.587  18.804  0.00  0.00    +0.000 NA
ATOM     19  C   UNL     1       2.005   6.140  20.216  0.00  0.00    +0.000 C 
ATOM     20  C   UNL     1       1.538   4.675  20.403  0.00  0.00    +0.000 C 
ATOM     21  C   UNL     1       2.046   3.805  19.301  0.00  0.00    +0.000 A 
ATOM     22  S   UNL     1       1.924   2.111  19.329  0.00  0.00    +0.000 S 
ATOM     23  C   UNL     1       2.662   1.981  17.789  0.00  0.00    +0.000 A 
ATOM     24  C   UNL     1       2.985   3.213  17.264  0.00  0.00    +0.000 A 
ATOM     25  C   UNL     1       2.642   4.286  18.152  0.00  0.00    +0.000 A 
ATOM     26  C   UNL     1       2.897   5.751  17.929  0.00  0.00    +0.000 C 
BRANCH  26  27
ATOM     27  C   UNL     1       4.418   5.916  18.062  0.00  0.00    +0.000 A 
ATOM     28  C   UNL     1       5.107   6.684  17.102  0.00  0.00    +0.000 A 
ATOM     29  C   UNL     1       6.494   6.849  17.167  0.00  0.00    +0.000 A 
ATOM     30  C   UNL     1       7.222   6.262  18.198  0.00  0.00    +0.000 A 
ATOM     31  C   UNL     1       6.566   5.501  19.159  0.00  0.00    +0.000 A 
ATOM     32  C   UNL     1       5.182   5.324  19.085  0.00  0.00    +0.000 A 
ENDBRANCH  26  27
ENDBRANCH  17  18
ENDBRANCH   2  17
TORSDOF 4
ENDMDL
MODEL 7
REMARK VINA RESULT:      -8.4      1.036      1.529
REMARK  Name = 
REMARK  4 active torsions:
REMARK  status: ('A' for Active; 'I' for Inactive)
REMARK    1  A    between atoms: C_2  and  C_3
REMARK    2  A    between atoms: C_3  and  N_4
REMARK    3  A    between atoms: C_12  and  C_13
REMARK    4  A    between atoms: N_19  and  C_20
REMARK                            x       y       z     vdW  Elec       q    Type
REMARK                         _______ _______ _______ _____ _____    ______ ____
ROOT
ATOM      1  O   UNL     1       2.209  10.286  17.492  0.00  0.00    +0.000 OA
ATOM      2  C   UNL     1       2.060   9.297  18.214  0.00  0.00    +0.000 C 
ATOM      3  N   UNL     1       1.144   9.182  19.239  0.00  0.00    +0.000 N 
ATOM      4  H   UNL     1       1.298   8.415  19.888  0.00  0.00    +0.000 HD
ENDROOT
BRANCH   3   5
ATOM      5  C   UNL     1       0.203  10.188  19.602  0.00  0.00    +0.000 A 
ATOM      6  C   UNL     1       0.443  11.059  20.697  0.00  0.00    +0.000 A 
ATOM      7  C   UNL     1      -0.522  11.950  21.175  0.00  0.00    +0.000 A 
ATOM      8  C   UNL     1      -1.699  11.993  20.481  0.00  0.00    +0.000 A 
ATOM      9  N   UNL     1      -2.838  12.747  20.729  0.00  0.00    +0.000 N 
ATOM     10  C   UNL     1      -3.749  12.537  19.689  0.00  0.00    +0.000 A 
ATOM     11  O   UNL     1      -4.840  13.064  19.560  0.00  0.00    +0.000 OA
ATOM     12  N   UNL     1      -3.160  11.600  18.821  0.00  0.00    +0.000 N 
ATOM     13  C   UNL     1      -1.913  11.240  19.326  0.00  0.00    +0.000 A 
ATOM     14  C   UNL     1      -0.988  10.321  18.864  0.00  0.00    +0.000 A 
ATOM     15  H   UNL     1      -3.014  13.339  21.524  0.00  0.00    +0.000 HD
ATOM     16  H   UNL     1      -3.595  11.284  17.972  0.00  0.00    +0.000 HD
ENDBRANCH   3   5
BRANCH   2  17
ATOM     17  C   UNL     1       2.912   8.062  17.930  0.00  0.00    +0.000 C 
BRANCH  17  18
ATOM     18  N   UNL     1       2.350   6.779  18.409  0.00  0.00    +0.000 NA
ATOM     19  C   UNL     1       2.417   6.633  19.881  0.00  0.00    +0.000 C 
ATOM     20  C   UNL     1       1.784   5.319  20.404  0.00  0.00    +0.000 C 
ATOM     21  C   UNL     1       2.075   4.180  19.483  0.00  0.00    +0.000 A 
ATOM     22  S   UNL     1       1.739   2.562  19.879  0.00  0.00    +0.000 S 
ATOM     23  C   UNL     1       2.313   2.018  18.360  0.00  0.00    +0.000 A 
ATOM     24  C   UNL     1       2.743   3.058  17.566  0.00  0.00    +0.000 A 
ATOM     25  C   UNL     1       2.622   4.327  18.225  0.00  0.00    +0.000 A 
ATOM     26  C   UNL     1       3.042   5.664  17.679  0.00  0.00    +0.000 C 
BRANCH  26  27
ATOM     27  C   UNL     1       4.578   5.631  17.680  0.00  0.00    +0.000 A 
ATOM     28  C   UNL     1       5.254   5.410  18.896  0.00  0.00    +0.000 A 
ATOM     29  C   UNL     1       6.652   5.390  18.953  0.00  0.00    +0.000 A 
ATOM     30  C   UNL     1       7.403   5.578  17.797  0.00  0.00    +0.000 A 
ATOM     31  C   UNL     1       6.760   5.797  16.585  0.00  0.00    +0.000 A 
ATOM     32  C   UNL     1       5.364   5.831  16.529  0.00  0.00    +0.000 A 
ENDBRANCH  26  27
ENDBRANCH  17  18
ENDBRANCH   2  17
TORSDOF 4
ENDMDL
MODEL 8
REMARK VINA RESULT:      -8.4      2.038      2.127
REMARK  Name = 
REMARK  4 active torsions:
REMARK  status: ('A' for Active; 'I' for Inactive)
REMARK    1  A    between atoms: C_2  and  C_3
REMARK    2  A    between atoms: C_3  and  N_4
REMARK    3  A    between atoms: C_12  and  C_13
REMARK    4  A    between atoms: N_19  and  C_20
REMARK                            x       y       z     vdW  Elec       q    Type
REMARK                         _______ _______ _______ _____ _____    ______ ____
ROOT
ATOM      1  O   UNL     1       0.681   9.059  17.461  0.00  0.00    +0.000 OA
ATOM      2  C   UNL     1       1.511   9.194  18.363  0.00  0.00    +0.000 C 
ATOM      3  N   UNL     1       1.510  10.194  19.314  0.00  0.00    +0.000 N 
ATOM      4  H   UNL     1       2.375  10.312  19.835  0.00  0.00    +0.000 HD
ENDROOT
BRANCH   3   5
ATOM      5  C   UNL     1       0.521  11.214  19.414  0.00  0.00    +0.000 A 
ATOM      6  C   UNL     1       0.557  12.358  18.574  0.00  0.00    +0.000 A 
ATOM      7  C   UNL     1      -0.302  13.447  18.749  0.00  0.00    +0.000 A 
ATOM      8  C   UNL     1      -1.238  13.323  19.738  0.00  0.00    +0.000 A 
ATOM      9  N   UNL     1      -2.195  14.235  20.160  0.00  0.00    +0.000 N 
ATOM     10  C   UNL     1      -2.998  13.626  21.130  0.00  0.00    +0.000 A 
ATOM     11  O   UNL     1      -3.959  14.119  21.694  0.00  0.00    +0.000 OA
ATOM     12  N   UNL     1      -2.480  12.333  21.326  0.00  0.00    +0.000 N 
ATOM     13  C   UNL     1      -1.377  12.159  20.493  0.00  0.00    +0.000 A 
ATOM     14  C   UNL     1      -0.509  11.090  20.365  0.00  0.00    +0.000 A 
ATOM     15  H   UNL     1      -2.306  15.188  19.852  0.00  0.00    +0.000 HD
ATOM     16  H   UNL     1      -2.885  11.666  21.960  0.00  0.00    +0.000 HD
ENDBRANCH   3   5
BRANCH   2  17
ATOM     17  C   UNL     1       2.612   8.143  18.492  0.00  0.00    +0.000 C 
BRANCH  17  18
ATOM     18  N   UNL     1       2.141   6.754  18.697  0.00  0.00    +0.000 NA
ATOM     19  C   UNL     1       2.094   6.365  20.125  0.00  0.00    +0.000 C 
ATOM     20  C   UNL     1       1.552   4.932  20.360  0.00  0.00    +0.000 C 
ATOM     21  C   UNL     1       2.035   3.995  19.302  0.00  0.00    +0.000 A 
ATOM     22  S   UNL     1       1.830   2.312  19.395  0.00  0.00    +0.000 S 
ATOM     23  C   UNL     1       2.585   2.085  17.874  0.00  0.00    +0.000 A 
ATOM     24  C   UNL     1       2.975   3.278  17.307  0.00  0.00    +0.000 A 
ATOM     25  C   UNL     1       2.671   4.401  18.147  0.00  0.00    +0.000 A 
ATOM     26  C   UNL     1       3.002   5.842  17.871  0.00  0.00    +0.000 C 
BRANCH  26  27
ATOM     27  C   UNL     1       4.527   5.939  18.024  0.00  0.00    +0.000 A 
ATOM     28  C   UNL     1       5.273   6.593  17.024  0.00  0.00    +0.000 A 
ATOM     29  C   UNL     1       6.665   6.691  17.107  0.00  0.00    +0.000 A 
ATOM     30  C   UNL     1       7.342   6.149  18.196  0.00  0.00    +0.000 A 
ATOM     31  C   UNL     1       6.630   5.500  19.197  0.00  0.00    +0.000 A 
ATOM     32  C   UNL     1       5.240   5.389  19.107  0.00  0.00    +0.000 A 
ENDBRANCH  26  27
ENDBRANCH  17  18
ENDBRANCH   2  17
TORSDOF 4
ENDMDL
MODEL 9
REMARK VINA RESULT:      -8.3      2.214      2.586
REMARK  Name = 
REMARK  4 active torsions:
REMARK  status: ('A' for Active; 'I' for Inactive)
REMARK    1  A    between atoms: C_2  and  C_3
REMARK    2  A    between atoms: C_3  and  N_4
REMARK    3  A    between atoms: C_12  and  C_13
REMARK    4  A    between atoms: N_19  and  C_20
REMARK                            x       y       z     vdW  Elec       q    Type
REMARK                         _______ _______ _______ _____ _____    ______ ____
ROOT
ATOM      1  O   UNL     1       0.836   9.019  17.341  0.00  0.00    +0.000 OA
ATOM      2  C   UNL     1       1.865   9.137  18.012  0.00  0.00    +0.000 C 
ATOM      3  N   UNL     1       2.142  10.170  18.883  0.00  0.00    +0.000 N 
ATOM      4  H   UNL     1       3.111  10.256  19.177  0.00  0.00    +0.000 HD
ENDROOT
BRANCH   3   5
ATOM      5  C   UNL     1       1.258  11.252  19.162  0.00  0.00    +0.000 A 
ATOM      6  C   UNL     1       0.011  11.036  19.807  0.00  0.00    +0.000 A 
ATOM      7  C   UNL     1      -0.943  12.046  19.956  0.00  0.00    +0.000 A 
ATOM      8  C   UNL     1      -0.583  13.286  19.508  0.00  0.00    +0.000 A 
ATOM      9  N   UNL     1      -1.319  14.463  19.495  0.00  0.00    +0.000 N 
ATOM     10  C   UNL     1      -0.499  15.500  19.040  0.00  0.00    +0.000 A 
ATOM     11  O   UNL     1      -0.801  16.676  18.934  0.00  0.00    +0.000 OA
ATOM     12  N   UNL     1       0.746  14.921  18.730  0.00  0.00    +0.000 N 
ATOM     13  C   UNL     1       0.682  13.554  18.987  0.00  0.00    +0.000 A 
ATOM     14  C   UNL     1       1.623  12.559  18.790  0.00  0.00    +0.000 A 
ATOM     15  H   UNL     1      -2.287  14.578  19.747  0.00  0.00    +0.000 HD
ATOM     16  H   UNL     1       1.534  15.450  18.399  0.00  0.00    +0.000 HD
ENDBRANCH   3   5
BRANCH   2  17
ATOM     17  C   UNL     1       2.910   8.026  17.930  0.00  0.00    +0.000 C 
BRANCH  17  18
ATOM     18  N   UNL     1       2.427   6.673  18.289  0.00  0.00    +0.000 NA
ATOM     19  C   UNL     1       2.262   6.488  19.749  0.00  0.00    +0.000 C 
ATOM     20  C   UNL     1       1.705   5.095  20.139  0.00  0.00    +0.000 C 
ATOM     21  C   UNL     1       2.277   4.026  19.267  0.00  0.00    +0.000 A 
ATOM     22  S   UNL     1       2.069   2.369  19.578  0.00  0.00    +0.000 S 
ATOM     23  C   UNL     1       2.949   1.942  18.172  0.00  0.00    +0.000 A 
ATOM     24  C   UNL     1       3.383   3.049  17.477  0.00  0.00    +0.000 A 
ATOM     25  C   UNL     1       3.007   4.274  18.122  0.00  0.00    +0.000 A 
ATOM     26  C   UNL     1       3.357   5.667  17.674  0.00  0.00    +0.000 C 
BRANCH  26  27
ATOM     27  C   UNL     1       4.863   5.806  17.938  0.00  0.00    +0.000 A 
ATOM     28  C   UNL     1       5.683   6.358  16.934  0.00  0.00    +0.000 A 
ATOM     29  C   UNL     1       7.063   6.488  17.117  0.00  0.00    +0.000 A 
ATOM     30  C   UNL     1       7.653   6.082  18.310  0.00  0.00    +0.000 A 
ATOM     31  C   UNL     1       6.866   5.536  19.317  0.00  0.00    +0.000 A 
ATOM     32  C   UNL     1       5.489   5.392  19.129  0.00  0.00    +0.000 A 
ENDBRANCH  26  27
ENDBRANCH  17  18
ENDBRANCH   2  17
TORSDOF 4
ENDMDL
