MODEL 1
REMARK VINA RESULT:      -8.8      0.000      0.000
REMARK  Name = 
REMARK  4 active torsions:
REMARK  status: ('A' for Active; 'I' for Inactive)
REMARK    1  A    between atoms: S_2  and  N_4
REMARK    2  A    between atoms: S_2  and  C_21
REMARK    3  A    between atoms: N_4  and  C_5
REMARK    4  A    between atoms: C_8  and  C_9
REMARK                            x       y       z     vdW  Elec       q    Type
REMARK                         _______ _______ _______ _____ _____    ______ ____
ROOT
ATOM      1  C   UNL     1       2.713   5.804  19.158  0.00  0.00    +0.000 A 
ATOM      2  C   UNL     1       2.083   5.891  20.399  0.00  0.00    +0.000 A 
ATOM      3  C   UNL     1       1.528   7.104  20.822  0.00  0.00    +0.000 A 
ATOM      4  C   UNL     1       1.584   8.242  20.002  0.00  0.00    +0.000 A 
ATOM      5  C   UNL     1       2.269   8.144  18.781  0.00  0.00    +0.000 A 
ATOM      6  C   UNL     1       2.808   6.931  18.346  0.00  0.00    +0.000 A 
ENDROOT
BRANCH   4   7
ATOM      7  C   UNL     1       0.946   9.490  20.445  0.00  0.00    +0.000 A 
ATOM      8  N   UNL     1       1.075  10.016  21.651  0.00  0.00    +0.000 NA
ATOM      9  N   UNL     1       0.364  11.184  21.704  0.00  0.00    +0.000 NA
ATOM     10  C   UNL     1      -0.222  11.365  20.539  0.00  0.00    +0.000 A 
ATOM     11  N   UNL     1       0.082  10.296  19.728  0.00  0.00    +0.000 N 
ATOM     12  C   UNL     1      -0.443  10.043  18.400  0.00  0.00    +0.000 C 
ATOM     13  C   UNL     1      -1.907  10.413  18.212  0.00  0.00    +0.000 C 
ATOM     14  C   UNL     1      -2.137  11.900  17.959  0.00  0.00    +0.000 C 
ATOM     15  C   UNL     1      -1.209  12.846  18.719  0.00  0.00    +0.000 C 
ATOM     16  C   UNL     1      -1.101  12.524  20.204  0.00  0.00    +0.000 C 
ENDBRANCH   4   7
BRANCH   1  17
ATOM     17  N   UNL     1       3.244   4.572  18.718  0.00  0.00    +0.000 N 
ATOM     18  H   UNL     1       2.649   3.751  18.767  0.00  0.00    +0.000 HD
BRANCH  17  20
ATOM     19  O   UNL     1       5.395   5.350  19.751  0.00  0.00    +0.000 OA
ATOM     20  S   UNL     1       4.869   4.226  19.012  0.00  0.00    +0.000 S 
ATOM     21  O   UNL     1       4.997   2.872  19.507  0.00  0.00    +0.000 OA
BRANCH  20  22
ATOM     22  C   UNL     1       5.622   4.284  17.391  0.00  0.00    +0.000 A 
ATOM     23  C   UNL     1       4.817   4.101  16.259  0.00  0.00    +0.000 A 
ATOM     24  C   UNL     1       5.357   4.297  14.985  0.00  0.00    +0.000 A 
ATOM     25  C   UNL     1       6.693   4.679  14.849  0.00  0.00    +0.000 A 
ATOM     26 CL   UNL     1       7.340   4.975  13.283  0.00  0.00    +0.000 Cl
ATOM     27  C   UNL     1       7.499   4.848  15.977  0.00  0.00    +0.000 A 
ATOM     28  C   UNL     1       6.962   4.653  17.254  0.00  0.00    +0.000 A 
ENDBRANCH  20  22
ENDBRANCH  17  20
ENDBRANCH   1  17
TORSDOF 4
ENDMDL
MODEL 2
REMARK VINA RESULT:      -8.6      5.211      9.393
REMARK  Name = 
REMARK  4 active torsions:
REMARK  status: ('A' for Active; 'I' for Inactive)
REMARK    1  A    between atoms: S_2  and  N_4
REMARK    2  A    between atoms: S_2  and  C_21
REMARK    3  A    between atoms: N_4  and  C_5
REMARK    4  A    between atoms: C_8  and  C_9
REMARK                            x       y       z     vdW  Elec       q    Type
REMARK                         _______ _______ _______ _____ _____    ______ ____
ROOT
ATOM      1  C   UNL     1       1.143  10.078  19.086  0.00  0.00    +0.000 A 
ATOM      2  C   UNL     1       1.134   9.271  20.223  0.00  0.00    +0.000 A 
ATOM      3  C   UNL     1       1.747   8.013  20.199  0.00  0.00    +0.000 A 
ATOM      4  C   UNL     1       2.390   7.553  19.039  0.00  0.00    +0.000 A 
ATOM      5  C   UNL     1       2.340   8.359  17.892  0.00  0.00    +0.000 A 
ATOM      6  C   UNL     1       1.746   9.623  17.916  0.00  0.00    +0.000 A 
ENDROOT
BRANCH   4   7
ATOM      7  C   UNL     1       3.073   6.251  19.054  0.00  0.00    +0.000 A 
ATOM      8  N   UNL     1       4.158   5.961  18.359  0.00  0.00    +0.000 NA
ATOM      9  N   UNL     1       4.529   4.672  18.632  0.00  0.00    +0.000 NA
ATOM     10  C   UNL     1       3.658   4.161  19.476  0.00  0.00    +0.000 A 
ATOM     11  N   UNL     1       2.695   5.110  19.736  0.00  0.00    +0.000 N 
ATOM     12  C   UNL     1       1.496   4.927  20.529  0.00  0.00    +0.000 C 
ATOM     13  C   UNL     1       0.830   3.568  20.375  0.00  0.00    +0.000 C 
ATOM     14  C   UNL     1       1.479   2.467  21.207  0.00  0.00    +0.000 C 
ATOM     15  C   UNL     1       3.000   2.554  21.338  0.00  0.00    +0.000 C 
ATOM     16  C   UNL     1       3.709   2.767  20.007  0.00  0.00    +0.000 C 
ENDBRANCH   4   7
BRANCH   1  17
ATOM     17  N   UNL     1       0.553  11.360  19.122  0.00  0.00    +0.000 N 
ATOM     18  H   UNL     1       0.883  12.018  19.821  0.00  0.00    +0.000 HD
BRANCH  17  20
ATOM     19  O   UNL     1      -1.234  12.655  17.926  0.00  0.00    +0.000 OA
ATOM     20  S   UNL     1      -1.096  11.514  18.800  0.00  0.00    +0.000 S 
ATOM     21  O   UNL     1      -1.646  10.223  18.446  0.00  0.00    +0.000 OA
BRANCH  20  22
ATOM     22  C   UNL     1      -1.800  11.989  20.375  0.00  0.00    +0.000 A 
ATOM     23  C   UNL     1      -3.062  12.596  20.402  0.00  0.00    +0.000 A 
ATOM     24  C   UNL     1      -3.692  12.831  21.627  0.00  0.00    +0.000 A 
ATOM     25  C   UNL     1      -3.063  12.453  22.814  0.00  0.00    +0.000 A 
ATOM     26 CL   UNL     1      -3.865  12.691  24.317  0.00  0.00    +0.000 Cl
ATOM     27  C   UNL     1      -1.799  11.860  22.788  0.00  0.00    +0.000 A 
ATOM     28  C   UNL     1      -1.164  11.623  21.564  0.00  0.00    +0.000 A 
ENDBRANCH  20  22
ENDBRANCH  17  20
ENDBRANCH   1  17
TORSDOF 4
ENDMDL
MODEL 3
REMARK VINA RESULT:      -8.5      5.203      9.529
REMARK  Name = 
REMARK  4 active torsions:
REMARK  status: ('A' for Active; 'I' for Inactive)
REMARK    1  A    between atoms: S_2  and  N_4
REMARK    2  A    between atoms: S_2  and  C_21
REMARK    3  A    between atoms: N_4  and  C_5
REMARK    4  A    between atoms: C_8  and  C_9
REMARK                            x       y       z     vdW  Elec       q    Type
REMARK                         _______ _______ _______ _____ _____    ______ ____
ROOT
ATOM      1  C   UNL     1       1.145  10.209  19.289  0.00  0.00    +0.000 A 
ATOM      2  C   UNL     1       1.721   9.880  18.062  0.00  0.00    +0.000 A 
ATOM      3  C   UNL     1       2.297   8.620  17.871  0.00  0.00    +0.000 A 
ATOM      4  C   UNL     1       2.293   7.667  18.902  0.00  0.00    +0.000 A 
ATOM      5  C   UNL     1       1.756   8.040  20.144  0.00  0.00    +0.000 A 
ATOM      6  C   UNL     1       1.162   9.290  20.334  0.00  0.00    +0.000 A 
ENDROOT
BRANCH   4   7
ATOM      7  C   UNL     1       2.856   6.331  18.661  0.00  0.00    +0.000 A 
ATOM      8  N   UNL     1       3.661   6.022  17.659  0.00  0.00    +0.000 NA
ATOM      9  N   UNL     1       4.005   4.700  17.758  0.00  0.00    +0.000 NA
ATOM     10  C   UNL     1       3.393   4.191  18.806  0.00  0.00    +0.000 A 
ATOM     11  N   UNL     1       2.621   5.175  19.381  0.00  0.00    +0.000 N 
ATOM     12  C   UNL     1       1.704   5.014  20.492  0.00  0.00    +0.000 C 
ATOM     13  C   UNL     1       0.929   3.704  20.494  0.00  0.00    +0.000 C 
ATOM     14  C   UNL     1       1.719   2.523  21.048  0.00  0.00    +0.000 C 
ATOM     15  C   UNL     1       3.211   2.518  20.716  0.00  0.00    +0.000 C 
ATOM     16  C   UNL     1       3.503   2.767  19.242  0.00  0.00    +0.000 C 
ENDBRANCH   4   7
BRANCH   1  17
ATOM     17  N   UNL     1       0.535  11.470  19.469  0.00  0.00    +0.000 N 
ATOM     18  H   UNL     1       0.820  12.029  20.267  0.00  0.00    +0.000 HD
BRANCH  17  20
ATOM     19  O   UNL     1      -1.192  12.841  18.270  0.00  0.00    +0.000 OA
ATOM     20  S   UNL     1      -1.098  11.654  19.087  0.00  0.00    +0.000 S 
ATOM     21  O   UNL     1      -1.640  10.388  18.641  0.00  0.00    +0.000 OA
BRANCH  20  22
ATOM     22  C   UNL     1      -1.865  12.049  20.654  0.00  0.00    +0.000 A 
ATOM     23  C   UNL     1      -3.138  12.633  20.661  0.00  0.00    +0.000 A 
ATOM     24  C   UNL     1      -3.816  12.805  21.872  0.00  0.00    +0.000 A 
ATOM     25  C   UNL     1      -3.221  12.388  23.064  0.00  0.00    +0.000 A 
ATOM     26 CL   UNL     1      -4.080  12.548  24.546  0.00  0.00    +0.000 Cl
ATOM     27  C   UNL     1      -1.946  11.818  23.058  0.00  0.00    +0.000 A 
ATOM     28  C   UNL     1      -1.265  11.645  21.849  0.00  0.00    +0.000 A 
ENDBRANCH  20  22
ENDBRANCH  17  20
ENDBRANCH   1  17
TORSDOF 4
ENDMDL
MODEL 4
REMARK VINA RESULT:      -8.5      4.902      9.642
REMARK  Name = 
REMARK  4 active torsions:
REMARK  status: ('A' for Active; 'I' for Inactive)
REMARK    1  A    between atoms: S_2  and  N_4
REMARK    2  A    between atoms: S_2  and  C_21
REMARK    3  A    between atoms: N_4  and  C_5
REMARK    4  A    between atoms: C_8  and  C_9
REMARK                            x       y       z     vdW  Elec       q    Type
REMARK                         _______ _______ _______ _____ _____    ______ ____
ROOT
ATOM      1  C   UNL     1       1.214  10.017  19.380  0.00  0.00    +0.000 A 
ATOM      2  C   UNL     1       1.695   9.839  18.082  0.00  0.00    +0.000 A 
ATOM      3  C   UNL     1       2.217   8.602  17.689  0.00  0.00    +0.000 A 
ATOM      4  C   UNL     1       2.253   7.523  18.586  0.00  0.00    +0.000 A 
ATOM      5  C   UNL     1       1.814   7.741  19.901  0.00  0.00    +0.000 A 
ATOM      6  C   UNL     1       1.274   8.968  20.293  0.00  0.00    +0.000 A 
ENDROOT
BRANCH   4   7
ATOM      7  C   UNL     1       2.757   6.218  18.134  0.00  0.00    +0.000 A 
ATOM      8  N   UNL     1       2.141   5.065  18.324  0.00  0.00    +0.000 NA
ATOM      9  N   UNL     1       2.884   4.066  17.754  0.00  0.00    +0.000 NA
ATOM     10  C   UNL     1       3.969   4.601  17.235  0.00  0.00    +0.000 A 
ATOM     11  N   UNL     1       3.952   5.954  17.491  0.00  0.00    +0.000 N 
ATOM     12  C   UNL     1       5.005   6.903  17.188  0.00  0.00    +0.000 C 
ATOM     13  C   UNL     1       6.417   6.373  17.388  0.00  0.00    +0.000 C 
ATOM     14  C   UNL     1       6.926   5.523  16.228  0.00  0.00    +0.000 C 
ATOM     15  C   UNL     1       5.877   4.642  15.551  0.00  0.00    +0.000 C 
ATOM     16  C   UNL     1       5.041   3.834  16.535  0.00  0.00    +0.000 C 
ENDBRANCH   4   7
BRANCH   1  17
ATOM     17  N   UNL     1       0.657  11.256  19.765  0.00  0.00    +0.000 N 
ATOM     18  H   UNL     1       0.891  11.620  20.683  0.00  0.00    +0.000 HD
BRANCH  17  20
ATOM     19  O   UNL     1      -0.834  12.868  18.549  0.00  0.00    +0.000 OA
ATOM     20  S   UNL     1      -0.918  11.631  19.290  0.00  0.00    +0.000 S 
ATOM     21  O   UNL     1      -1.550  10.457  18.728  0.00  0.00    +0.000 OA
BRANCH  20  22
ATOM     22  C   UNL     1      -1.752  12.012  20.826  0.00  0.00    +0.000 A 
ATOM     23  C   UNL     1      -2.998  12.649  20.785  0.00  0.00    +0.000 A 
ATOM     24  C   UNL     1      -3.732  12.814  21.963  0.00  0.00    +0.000 A 
ATOM     25  C   UNL     1      -3.222  12.335  23.171  0.00  0.00    +0.000 A 
ATOM     26 CL   UNL     1      -4.152  12.487  24.609  0.00  0.00    +0.000 Cl
ATOM     27  C   UNL     1      -1.973  11.711  23.214  0.00  0.00    +0.000 A 
ATOM     28  C   UNL     1      -1.235  11.545  22.037  0.00  0.00    +0.000 A 
ENDBRANCH  20  22
ENDBRANCH  17  20
ENDBRANCH   1  17
TORSDOF 4
ENDMDL
MODEL 5
REMARK VINA RESULT:      -8.4      5.051      9.537
REMARK  Name = 
REMARK  4 active torsions:
REMARK  status: ('A' for Active; 'I' for Inactive)
REMARK    1  A    between atoms: S_2  and  N_4
REMARK    2  A    between atoms: S_2  and  C_21
REMARK    3  A    between atoms: N_4  and  C_5
REMARK    4  A    between atoms: C_8  and  C_9
REMARK                            x       y       z     vdW  Elec       q    Type
REMARK                         _______ _______ _______ _____ _____    ______ ____
ROOT
ATOM      1  C   UNL     1       1.243   9.868  19.401  0.00  0.00    +0.000 A 
ATOM      2  C   UNL     1       1.386   8.775  20.256  0.00  0.00    +0.000 A 
ATOM      3  C   UNL     1       1.996   7.601  19.800  0.00  0.00    +0.000 A 
ATOM      4  C   UNL     1       2.483   7.510  18.486  0.00  0.00    +0.000 A 
ATOM      5  C   UNL     1       2.280   8.603  17.630  0.00  0.00    +0.000 A 
ATOM      6  C   UNL     1       1.689   9.784  18.085  0.00  0.00    +0.000 A 
ENDROOT
BRANCH   4   7
ATOM      7  C   UNL     1       3.167   6.286  18.048  0.00  0.00    +0.000 A 
ATOM      8  N   UNL     1       4.208   6.254  17.234  0.00  0.00    +0.000 NA
ATOM      9  N   UNL     1       4.596   4.953  17.061  0.00  0.00    +0.000 NA
ATOM     10  C   UNL     1       3.781   4.182  17.749  0.00  0.00    +0.000 A 
ATOM     11  N   UNL     1       2.834   4.979  18.353  0.00  0.00    +0.000 N 
ATOM     12  C   UNL     1       1.687   4.530  19.116  0.00  0.00    +0.000 C 
ATOM     13  C   UNL     1       1.015   3.275  18.578  0.00  0.00    +0.000 C 
ATOM     14  C   UNL     1       1.717   1.981  18.977  0.00  0.00    +0.000 C 
ATOM     15  C   UNL     1       3.242   2.055  19.039  0.00  0.00    +0.000 C 
ATOM     16  C   UNL     1       3.867   2.693  17.806  0.00  0.00    +0.000 C 
ENDBRANCH   4   7
BRANCH   1  17
ATOM     17  N   UNL     1       0.657  11.063  19.872  0.00  0.00    +0.000 N 
ATOM     18  H   UNL     1       0.856  11.349  20.825  0.00  0.00    +0.000 HD
BRANCH  17  20
ATOM     19  O   UNL     1      -0.789  12.670  18.596  0.00  0.00    +0.000 OA
ATOM     20  S   UNL     1      -0.907  11.461  19.377  0.00  0.00    +0.000 S 
ATOM     21  O   UNL     1      -1.566  10.285  18.851  0.00  0.00    +0.000 OA
BRANCH  20  22
ATOM     22  C   UNL     1      -1.736  11.913  20.897  0.00  0.00    +0.000 A 
ATOM     23  C   UNL     1      -2.941  12.623  20.830  0.00  0.00    +0.000 A 
ATOM     24  C   UNL     1      -3.680  12.848  21.995  0.00  0.00    +0.000 A 
ATOM     25  C   UNL     1      -3.215  12.357  23.216  0.00  0.00    +0.000 A 
ATOM     26 CL   UNL     1      -4.153  12.585  24.639  0.00  0.00    +0.000 Cl
ATOM     27  C   UNL     1      -2.006  11.660  23.285  0.00  0.00    +0.000 A 
ATOM     28  C   UNL     1      -1.264  11.434  22.121  0.00  0.00    +0.000 A 
ENDBRANCH  20  22
ENDBRANCH  17  20
ENDBRANCH   1  17
TORSDOF 4
ENDMDL
MODEL 6
REMARK VINA RESULT:      -8.3      5.186      9.517
REMARK  Name = 
REMARK  4 active torsions:
REMARK  status: ('A' for Active; 'I' for Inactive)
REMARK    1  A    between atoms: S_2  and  N_4
REMARK    2  A    between atoms: S_2  and  C_21
REMARK    3  A    between atoms: N_4  and  C_5
REMARK    4  A    between atoms: C_8  and  C_9
REMARK                            x       y       z     vdW  Elec       q    Type
REMARK                         _______ _______ _______ _____ _____    ______ ____
ROOT
ATOM      1  C   UNL     1       1.123  10.120  19.090  0.00  0.00    +0.000 A 
ATOM      2  C   UNL     1       1.761   9.717  17.918  0.00  0.00    +0.000 A 
ATOM      3  C   UNL     1       2.386   8.466  17.852  0.00  0.00    +0.000 A 
ATOM      4  C   UNL     1       2.369   7.598  18.955  0.00  0.00    +0.000 A 
ATOM      5  C   UNL     1       1.767   8.047  20.140  0.00  0.00    +0.000 A 
ATOM      6  C   UNL     1       1.125   9.286  20.205  0.00  0.00    +0.000 A 
ENDROOT
BRANCH   4   7
ATOM      7  C   UNL     1       2.986   6.269  18.844  0.00  0.00    +0.000 A 
ATOM      8  N   UNL     1       3.924   5.943  17.972  0.00  0.00    +0.000 NA
ATOM      9  N   UNL     1       4.277   4.635  18.168  0.00  0.00    +0.000 NA
ATOM     10  C   UNL     1       3.540   4.149  19.144  0.00  0.00    +0.000 A 
ATOM     11  N   UNL     1       2.678   5.134  19.571  0.00  0.00    +0.000 N 
ATOM     12  C   UNL     1       1.623   4.990  20.554  0.00  0.00    +0.000 C 
ATOM     13  C   UNL     1       0.881   3.663  20.504  0.00  0.00    +0.000 C 
ATOM     14  C   UNL     1       1.612   2.522  21.205  0.00  0.00    +0.000 C 
ATOM     15  C   UNL     1       3.135   2.543  21.077  0.00  0.00    +0.000 C 
ATOM     16  C   UNL     1       3.618   2.745  19.647  0.00  0.00    +0.000 C 
ENDBRANCH   4   7
BRANCH   1  17
ATOM     17  N   UNL     1       0.464  11.368  19.145  0.00  0.00    +0.000 N 
ATOM     18  H   UNL     1       0.762  12.034  19.849  0.00  0.00    +0.000 HD
BRANCH  17  20
ATOM     19  O   UNL     1      -1.388  12.534  17.916  0.00  0.00    +0.000 OA
ATOM     20  S   UNL     1      -1.193  11.436  18.833  0.00  0.00    +0.000 S 
ATOM     21  O   UNL     1      -1.687  10.109  18.535  0.00  0.00    +0.000 OA
BRANCH  20  22
ATOM     22  C   UNL     1      -1.904  11.941  20.395  0.00  0.00    +0.000 A 
ATOM     23  C   UNL     1      -1.212  11.662  21.580  0.00  0.00    +0.000 A 
ATOM     24  C   UNL     1      -1.673  12.184  22.792  0.00  0.00    +0.000 A 
ATOM     25  C   UNL     1      -2.817  12.985  22.811  0.00  0.00    +0.000 A 
ATOM     26 CL   UNL     1      -3.351  13.673  24.294  0.00  0.00    +0.000 Cl
ATOM     27  C   UNL     1      -3.515  13.252  21.631  0.00  0.00    +0.000 A 
ATOM     28  C   UNL     1      -3.056  12.731  20.416  0.00  0.00    +0.000 A 
ENDBRANCH  20  22
ENDBRANCH  17  20
ENDBRANCH   1  17
TORSDOF 4
ENDMDL
MODEL 7
REMARK VINA RESULT:      -8.3      5.221      9.488
REMARK  Name = 
REMARK  4 active torsions:
REMARK  status: ('A' for Active; 'I' for Inactive)
REMARK    1  A    between atoms: S_2  and  N_4
REMARK    2  A    between atoms: S_2  and  C_21
REMARK    3  A    between atoms: N_4  and  C_5
REMARK    4  A    between atoms: C_8  and  C_9
REMARK                            x       y       z     vdW  Elec       q    Type
REMARK                         _______ _______ _______ _____ _____    ______ ____
ROOT
ATOM      1  C   UNL     1       0.812  10.094  19.026  0.00  0.00    +0.000 A 
ATOM      2  C   UNL     1       1.559   9.694  17.918  0.00  0.00    +0.000 A 
ATOM      3  C   UNL     1       2.284   8.498  17.953  0.00  0.00    +0.000 A 
ATOM      4  C   UNL     1       2.259   7.678  19.093  0.00  0.00    +0.000 A 
ATOM      5  C   UNL     1       1.544   8.127  20.214  0.00  0.00    +0.000 A 
ATOM      6  C   UNL     1       0.804   9.311  20.178  0.00  0.00    +0.000 A 
ENDROOT
BRANCH   4   7
ATOM      7  C   UNL     1       2.985   6.400  19.086  0.00  0.00    +0.000 A 
ATOM      8  N   UNL     1       4.089   6.164  18.399  0.00  0.00    +0.000 NA
ATOM      9  N   UNL     1       4.498   4.881  18.645  0.00  0.00    +0.000 NA
ATOM     10  C   UNL     1       3.633   4.320  19.464  0.00  0.00    +0.000 A 
ATOM     11  N   UNL     1       2.635   5.230  19.733  0.00  0.00    +0.000 N 
ATOM     12  C   UNL     1       1.432   4.988  20.503  0.00  0.00    +0.000 C 
ATOM     13  C   UNL     1       0.814   3.611  20.304  0.00  0.00    +0.000 C 
ATOM     14  C   UNL     1       1.488   2.511  21.118  0.00  0.00    +0.000 C 
ATOM     15  C   UNL     1       3.003   2.645  21.273  0.00  0.00    +0.000 C 
ATOM     16  C   UNL     1       3.723   2.915  19.959  0.00  0.00    +0.000 C 
ENDBRANCH   4   7
BRANCH   1  17
ATOM     17  N   UNL     1       0.055  11.285  18.978  0.00  0.00    +0.000 N 
ATOM     18  H   UNL     1      -0.188  11.659  18.067  0.00  0.00    +0.000 HD
BRANCH  17  20
ATOM     19  O   UNL     1       1.524  12.081  20.852  0.00  0.00    +0.000 OA
ATOM     20  S   UNL     1       0.342  12.487  20.128  0.00  0.00    +0.000 S 
ATOM     21  O   UNL     1       0.250  13.789  19.504  0.00  0.00    +0.000 OA
BRANCH  20  22
ATOM     22  C   UNL     1      -1.032  12.332  21.263  0.00  0.00    +0.000 A 
ATOM     23  C   UNL     1      -0.863  11.590  22.439  0.00  0.00    +0.000 A 
ATOM     24  C   UNL     1      -1.870  11.587  23.409  0.00  0.00    +0.000 A 
ATOM     25  C   UNL     1      -3.034  12.329  23.201  0.00  0.00    +0.000 A 
ATOM     26 CL   UNL     1      -4.247  12.371  24.419  0.00  0.00    +0.000 Cl
ATOM     27  C   UNL     1      -3.208  13.058  22.022  0.00  0.00    +0.000 A 
ATOM     28  C   UNL     1      -2.203  13.063  21.050  0.00  0.00    +0.000 A 
ENDBRANCH  20  22
ENDBRANCH  17  20
ENDBRANCH   1  17
TORSDOF 4
ENDMDL
MODEL 8
REMARK VINA RESULT:      -8.2      2.123      2.925
REMARK  Name = 
REMARK  4 active torsions:
REMARK  status: ('A' for Active; 'I' for Inactive)
REMARK    1  A    between atoms: S_2  and  N_4
REMARK    2  A    between atoms: S_2  and  C_21
REMARK    3  A    between atoms: N_4  and  C_5
REMARK    4  A    between atoms: C_8  and  C_9
REMARK                            x       y       z     vdW  Elec       q    Type
REMARK                         _______ _______ _______ _____ _____    ______ ____
ROOT
ATOM      1  C   UNL     1       2.313   7.289  19.792  0.00  0.00    +0.000 A 
ATOM      2  C   UNL     1       2.394   7.843  18.514  0.00  0.00    +0.000 A 
ATOM      3  C   UNL     1       1.684   9.009  18.208  0.00  0.00    +0.000 A 
ATOM      4  C   UNL     1       0.896   9.644  19.180  0.00  0.00    +0.000 A 
ATOM      5  C   UNL     1       0.788   9.039  20.441  0.00  0.00    +0.000 A 
ATOM      6  C   UNL     1       1.509   7.886  20.759  0.00  0.00    +0.000 A 
ENDROOT
BRANCH   4   7
ATOM      7  C   UNL     1       0.203  10.898  18.849  0.00  0.00    +0.000 A 
ATOM      8  N   UNL     1      -1.045  10.980  18.422  0.00  0.00    +0.000 NA
ATOM      9  N   UNL     1      -1.364  12.298  18.235  0.00  0.00    +0.000 NA
ATOM     10  C   UNL     1      -0.306  13.025  18.524  0.00  0.00    +0.000 A 
ATOM     11  N   UNL     1       0.722  12.179  18.874  0.00  0.00    +0.000 N 
ATOM     12  C   UNL     1       2.091  12.557  19.163  0.00  0.00    +0.000 C 
ATOM     13  C   UNL     1       2.640  13.678  18.292  0.00  0.00    +0.000 C 
ATOM     14  C   UNL     1       2.219  15.072  18.745  0.00  0.00    +0.000 C 
ATOM     15  C   UNL     1       0.803  15.178  19.310  0.00  0.00    +0.000 C 
ATOM     16  C   UNL     1      -0.250  14.514  18.432  0.00  0.00    +0.000 C 
ENDBRANCH   4   7
BRANCH   1  17
ATOM     17  N   UNL     1       3.055   6.130  20.110  0.00  0.00    +0.000 N 
ATOM     18  H   UNL     1       4.024   6.246  20.389  0.00  0.00    +0.000 HD
BRANCH  17  20
ATOM     19  O   UNL     1       3.001   3.621  20.143  0.00  0.00    +0.000 OA
ATOM     20  S   UNL     1       2.789   4.717  19.227  0.00  0.00    +0.000 S 
ATOM     21  O   UNL     1       1.561   4.839  18.470  0.00  0.00    +0.000 OA
BRANCH  20  22
ATOM     22  C   UNL     1       4.144   4.677  18.060  0.00  0.00    +0.000 A 
ATOM     23  C   UNL     1       4.025   3.893  16.905  0.00  0.00    +0.000 A 
ATOM     24  C   UNL     1       5.004   3.970  15.910  0.00  0.00    +0.000 A 
ATOM     25  C   UNL     1       6.089   4.834  16.071  0.00  0.00    +0.000 A 
ATOM     26 CL   UNL     1       7.261   4.971  14.821  0.00  0.00    +0.000 Cl
ATOM     27  C   UNL     1       6.214   5.606  17.228  0.00  0.00    +0.000 A 
ATOM     28  C   UNL     1       5.237   5.531  18.226  0.00  0.00    +0.000 A 
ENDBRANCH  20  22
ENDBRANCH  17  20
ENDBRANCH   1  17
TORSDOF 4
ENDMDL
MODEL 9
REMARK VINA RESULT:      -8.2      1.192      2.263
REMARK  Name = 
REMARK  4 active torsions:
REMARK  status: ('A' for Active; 'I' for Inactive)
REMARK    1  A    between atoms: S_2  and  N_4
REMARK    2  A    between atoms: S_2  and  C_21
REMARK    3  A    between atoms: N_4  and  C_5
REMARK    4  A    between atoms: C_8  and  C_9
REMARK                            x       y       z     vdW  Elec       q    Type
REMARK                         _______ _______ _______ _____ _____    ______ ____
ROOT
ATOM      1  C   UNL     1       2.704   5.865  19.023  0.00  0.00    +0.000 A 
ATOM      2  C   UNL     1       2.701   6.755  17.949  0.00  0.00    +0.000 A 
ATOM      3  C   UNL     1       2.184   8.046  18.108  0.00  0.00    +0.000 A 
ATOM      4  C   UNL     1       1.676   8.467  19.347  0.00  0.00    +0.000 A 
ATOM      5  C   UNL     1       1.642   7.536  20.397  0.00  0.00    +0.000 A 
ATOM      6  C   UNL     1       2.174   6.253  20.250  0.00  0.00    +0.000 A 
ENDROOT
BRANCH   4   7
ATOM      7  C   UNL     1       1.189   9.844  19.503  0.00  0.00    +0.000 A 
ATOM      8  N   UNL     1       1.557  10.865  18.748  0.00  0.00    +0.000 NA
ATOM      9  N   UNL     1       0.890  11.986  19.163  0.00  0.00    +0.000 NA
ATOM     10  C   UNL     1       0.130  11.662  20.187  0.00  0.00    +0.000 A 
ATOM     11  N   UNL     1       0.321  10.327  20.465  0.00  0.00    +0.000 N 
ATOM     12  C   UNL     1      -0.240   9.588  21.579  0.00  0.00    +0.000 C 
ATOM     13  C   UNL     1      -0.317  10.366  22.885  0.00  0.00    +0.000 C 
ATOM     14  C   UNL     1      -1.518  11.302  22.974  0.00  0.00    +0.000 C 
ATOM     15  C   UNL     1      -1.918  11.982  21.664  0.00  0.00    +0.000 C 
ATOM     16  C   UNL     1      -0.745  12.616  20.930  0.00  0.00    +0.000 C 
ENDBRANCH   4   7
BRANCH   1  17
ATOM     17  N   UNL     1       3.256   4.574  18.871  0.00  0.00    +0.000 N 
ATOM     18  H   UNL     1       2.733   3.785  19.238  0.00  0.00    +0.000 HD
BRANCH  17  20
ATOM     19  O   UNL     1       5.413   5.510  19.748  0.00  0.00    +0.000 OA
ATOM     20  S   UNL     1       4.926   4.374  19.000  0.00  0.00    +0.000 S 
ATOM     21  O   UNL     1       5.226   3.019  19.409  0.00  0.00    +0.000 OA
BRANCH  20  22
ATOM     22  C   UNL     1       5.515   4.577  17.323  0.00  0.00    +0.000 A 
ATOM     23  C   UNL     1       6.829   5.014  17.111  0.00  0.00    +0.000 A 
ATOM     24  C   UNL     1       7.354   5.029  15.815  0.00  0.00    +0.000 A 
ATOM     25  C   UNL     1       6.568   4.602  14.743  0.00  0.00    +0.000 A 
ATOM     26 CL   UNL     1       7.234   4.566  13.159  0.00  0.00    +0.000 Cl
ATOM     27  C   UNL     1       5.254   4.178  14.954  0.00  0.00    +0.000 A 
ATOM     28  C   UNL     1       4.724   4.162  16.249  0.00  0.00    +0.000 A 
ENDBRANCH  20  22
ENDBRANCH  17  20
ENDBRANCH   1  17
TORSDOF 4
ENDMDL
