MODEL 1
REMARK VINA RESULT:      -8.3      0.000      0.000
REMARK  Name = 
REMARK  5 active torsions:
REMARK  status: ('A' for Active; 'I' for Inactive)
REMARK    1  A    between atoms: C_1  and  S_2
REMARK    2  A    between atoms: S_2  and  C_5
REMARK    3  A    between atoms: C_5  and  C_6
REMARK    4  A    between atoms: C_9  and  C_10
REMARK    5  A    between atoms: C_13  and  C_14
REMARK                            x       y       z     vdW  Elec       q    Type
REMARK                         _______ _______ _______ _____ _____    ______ ____
ROOT
ATOM      1  C   UNL     1       3.443   6.264  19.041  0.00  0.00    +0.000 A 
ATOM      2  N   UNL     1       3.138   4.965  18.881  0.00  0.00    +0.000 NA
ATOM      3  O   UNL     1       4.380   4.338  18.819  0.00  0.00    +0.000 OA
ATOM      4  C   UNL     1       5.317   5.324  18.931  0.00  0.00    +0.000 A 
ATOM      5  N   UNL     1       4.795   6.512  19.122  0.00  0.00    +0.000 NA
ENDROOT
BRANCH   4   6
ATOM      6  C   UNL     1       6.738   4.936  18.687  0.00  0.00    +0.000 C 
ATOM      7  C   UNL     1       7.681   6.145  18.726  0.00  0.00    +0.000 C 
ATOM      8  C   UNL     1       7.491   7.053  17.516  0.00  0.00    +0.000 C 
ATOM      9  O   UNL     1       7.590   6.301  16.309  0.00  0.00    +0.000 OA
ATOM     10  C   UNL     1       6.705   5.160  16.162  0.00  0.00    +0.000 C 
ATOM     11  C   UNL     1       5.234   5.458  15.733  0.00  0.00    +0.000 C 
ATOM     12  C   UNL     1       5.666   5.272  14.272  0.00  0.00    +0.000 C 
ATOM     13  C   UNL     1       6.857   4.444  14.783  0.00  0.00    +0.000 C 
ATOM     14  C   UNL     1       6.896   4.204  17.345  0.00  0.00    +0.000 C 
ENDBRANCH   4   6
BRANCH   1  18
ATOM     15  C   UNL     1       0.829   9.656  19.031  0.00  0.00    +0.000 A 
ATOM     16  C   UNL     1       1.358   9.151  17.830  0.00  0.00    +0.000 A 
ATOM     17  C   UNL     1       2.183   8.024  17.817  0.00  0.00    +0.000 A 
ATOM     18  C   UNL     1       2.472   7.348  19.006  0.00  0.00    +0.000 A 
ATOM     19  C   UNL     1       1.866   7.782  20.191  0.00  0.00    +0.000 A 
ATOM     20  C   UNL     1       1.047   8.912  20.200  0.00  0.00    +0.000 A 
BRANCH  15  21
ATOM     21  C   UNL     1       0.152  10.999  19.066  0.00  0.00    +0.000 C 
ATOM     22  C   UNL     1      -1.243  11.207  18.504  0.00  0.00    +0.000 C 
ATOM     23  C   UNL     1      -1.039  11.169  19.990  0.00  0.00    +0.000 C 
BRANCH  21  25
ATOM     24  C   UNL     1       1.676  12.839  20.584  0.00  0.00    +0.000 C 
ATOM     25  S   UNL     1       1.207  12.501  18.908  0.00  0.00    +0.000 S 
ATOM     26  O   UNL     1       0.358  13.571  18.438  0.00  0.00    +0.000 OA
ATOM     27  O   UNL     1       2.411  12.129  18.183  0.00  0.00    +0.000 OA
ENDBRANCH  21  25
ENDBRANCH  15  21
ENDBRANCH   1  18
TORSDOF 4
ENDMDL
MODEL 2
REMARK VINA RESULT:      -8.2      2.838      8.615
REMARK  Name = 
REMARK  5 active torsions:
REMARK  status: ('A' for Active; 'I' for Inactive)
REMARK    1  A    between atoms: C_1  and  S_2
REMARK    2  A    between atoms: S_2  and  C_5
REMARK    3  A    between atoms: C_5  and  C_6
REMARK    4  A    between atoms: C_9  and  C_10
REMARK    5  A    between atoms: C_13  and  C_14
REMARK                            x       y       z     vdW  Elec       q    Type
REMARK                         _______ _______ _______ _____ _____    ______ ____
ROOT
ATOM      1  C   UNL     1       1.465   8.973  19.378  0.00  0.00    +0.000 A 
ATOM      2  N   UNL     1       1.246   9.181  20.687  0.00  0.00    +0.000 NA
ATOM      3  O   UNL     1       0.567  10.397  20.721  0.00  0.00    +0.000 OA
ATOM      4  C   UNL     1       0.458  10.815  19.427  0.00  0.00    +0.000 A 
ATOM      5  N   UNL     1       0.943   9.954  18.565  0.00  0.00    +0.000 NA
ENDROOT
BRANCH   4   6
ATOM      6  C   UNL     1      -0.052  12.200  19.205  0.00  0.00    +0.000 C 
ATOM      7  C   UNL     1      -0.719  12.778  20.459  0.00  0.00    +0.000 C 
ATOM      8  C   UNL     1      -2.052  12.100  20.756  0.00  0.00    +0.000 C 
ATOM      9  O   UNL     1      -2.894  12.130  19.608  0.00  0.00    +0.000 OA
ATOM     10  C   UNL     1      -2.363  11.566  18.379  0.00  0.00    +0.000 C 
ATOM     11  C   UNL     1      -2.406  10.011  18.241  0.00  0.00    +0.000 C 
ATOM     12  C   UNL     1      -3.769  10.151  17.552  0.00  0.00    +0.000 C 
ATOM     13  C   UNL     1      -3.387  11.599  17.201  0.00  0.00    +0.000 C 
ATOM     14  C   UNL     1      -1.038  12.252  18.027  0.00  0.00    +0.000 C 
ENDBRANCH   4   6
BRANCH   1  18
ATOM     15  C   UNL     1       4.132   5.950  17.934  0.00  0.00    +0.000 A 
ATOM     16  C   UNL     1       3.352   5.733  19.083  0.00  0.00    +0.000 A 
ATOM     17  C   UNL     1       2.452   6.698  19.543  0.00  0.00    +0.000 A 
ATOM     18  C   UNL     1       2.282   7.894  18.842  0.00  0.00    +0.000 A 
ATOM     19  C   UNL     1       2.979   8.075  17.641  0.00  0.00    +0.000 A 
ATOM     20  C   UNL     1       3.881   7.111  17.188  0.00  0.00    +0.000 A 
BRANCH  15  21
ATOM     21  C   UNL     1       5.265   5.023  17.589  0.00  0.00    +0.000 C 
ATOM     22  C   UNL     1       5.030   3.560  17.259  0.00  0.00    +0.000 C 
ATOM     23  C   UNL     1       5.364   4.525  16.159  0.00  0.00    +0.000 C 
BRANCH  21  25
ATOM     24  C   UNL     1       7.353   6.919  17.830  0.00  0.00    +0.000 C 
ATOM     25  S   UNL     1       6.892   5.307  18.406  0.00  0.00    +0.000 S 
ATOM     26  O   UNL     1       7.817   4.338  17.865  0.00  0.00    +0.000 OA
ATOM     27  O   UNL     1       6.663   5.403  19.838  0.00  0.00    +0.000 OA
ENDBRANCH  21  25
ENDBRANCH  15  21
ENDBRANCH   1  18
TORSDOF 4
ENDMDL
MODEL 3
REMARK VINA RESULT:      -8.2      2.555      3.809
REMARK  Name = 
REMARK  5 active torsions:
REMARK  status: ('A' for Active; 'I' for Inactive)
REMARK    1  A    between atoms: C_1  and  S_2
REMARK    2  A    between atoms: S_2  and  C_5
REMARK    3  A    between atoms: C_5  and  C_6
REMARK    4  A    between atoms: C_9  and  C_10
REMARK    5  A    between atoms: C_13  and  C_14
REMARK                            x       y       z     vdW  Elec       q    Type
REMARK                         _______ _______ _______ _____ _____    ______ ____
ROOT
ATOM      1  C   UNL     1       2.100   7.936  19.021  0.00  0.00    +0.000 A 
ATOM      2  N   UNL     1       2.640   8.103  17.802  0.00  0.00    +0.000 NA
ATOM      3  O   UNL     1       3.517   7.027  17.678  0.00  0.00    +0.000 OA
ATOM      4  C   UNL     1       3.434   6.323  18.844  0.00  0.00    +0.000 A 
ATOM      5  N   UNL     1       2.542   6.808  19.675  0.00  0.00    +0.000 NA
ENDROOT
BRANCH   4   6
ATOM      6  C   UNL     1       4.431   5.233  19.048  0.00  0.00    +0.000 C 
ATOM      7  C   UNL     1       5.119   4.827  17.738  0.00  0.00    +0.000 C 
ATOM      8  C   UNL     1       4.169   4.082  16.806  0.00  0.00    +0.000 C 
ATOM      9  O   UNL     1       3.560   2.987  17.484  0.00  0.00    +0.000 OA
ATOM     10  C   UNL     1       2.849   3.280  18.716  0.00  0.00    +0.000 C 
ATOM     11  C   UNL     1       1.406   3.860  18.575  0.00  0.00    +0.000 C 
ATOM     12  C   UNL     1       0.868   2.425  18.642  0.00  0.00    +0.000 C 
ATOM     13  C   UNL     1       2.175   2.021  19.344  0.00  0.00    +0.000 C 
ATOM     14  C   UNL     1       3.786   3.997  19.695  0.00  0.00    +0.000 C 
ENDBRANCH   4   6
BRANCH   1  18
ATOM     15  C   UNL     1      -0.197  10.947  21.020  0.00  0.00    +0.000 A 
ATOM     16  C   UNL     1      -0.088  10.936  19.618  0.00  0.00    +0.000 A 
ATOM     17  C   UNL     1       0.630   9.939  18.953  0.00  0.00    +0.000 A 
ATOM     18  C   UNL     1       1.227   8.901  19.673  0.00  0.00    +0.000 A 
ATOM     19  C   UNL     1       1.036   8.847  21.059  0.00  0.00    +0.000 A 
ATOM     20  C   UNL     1       0.323   9.849  21.720  0.00  0.00    +0.000 A 
BRANCH  15  21
ATOM     21  C   UNL     1      -0.754  12.146  21.737  0.00  0.00    +0.000 C 
ATOM     22  C   UNL     1      -2.247  12.413  21.810  0.00  0.00    +0.000 C 
ATOM     23  C   UNL     1      -1.522  11.910  23.024  0.00  0.00    +0.000 C 
BRANCH  21  25
ATOM     24  C   UNL     1      -0.380  14.556  20.298  0.00  0.00    +0.000 C 
ATOM     25  S   UNL     1       0.239  13.698  21.722  0.00  0.00    +0.000 S 
ATOM     26  O   UNL     1       1.613  13.324  21.478  0.00  0.00    +0.000 OA
ATOM     27  O   UNL     1      -0.128  14.475  22.894  0.00  0.00    +0.000 OA
ENDBRANCH  21  25
ENDBRANCH  15  21
ENDBRANCH   1  18
TORSDOF 4
ENDMDL
MODEL 4
REMARK VINA RESULT:      -8.1      3.335      8.422
REMARK  Name = 
REMARK  5 active torsions:
REMARK  status: ('A' for Active; 'I' for Inactive)
REMARK    1  A    between atoms: C_1  and  S_2
REMARK    2  A    between atoms: S_2  and  C_5
REMARK    3  A    between atoms: C_5  and  C_6
REMARK    4  A    between atoms: C_9  and  C_10
REMARK    5  A    between atoms: C_13  and  C_14
REMARK                            x       y       z     vdW  Elec       q    Type
REMARK                         _______ _______ _______ _____ _____    ______ ____
ROOT
ATOM      1  C   UNL     1       0.752   9.348  20.916  0.00  0.00    +0.000 A 
ATOM      2  N   UNL     1       1.180  10.071  21.964  0.00  0.00    +0.000 NA
ATOM      3  O   UNL     1       0.334  11.177  21.971  0.00  0.00    +0.000 OA
ATOM      4  C   UNL     1      -0.515  11.022  20.914  0.00  0.00    +0.000 A 
ATOM      5  N   UNL     1      -0.334   9.894  20.270  0.00  0.00    +0.000 NA
ENDROOT
BRANCH   4   6
ATOM      6  C   UNL     1      -1.393  12.181  20.576  0.00  0.00    +0.000 C 
ATOM      7  C   UNL     1      -2.268  11.904  19.347  0.00  0.00    +0.000 C 
ATOM      8  C   UNL     1      -1.447  11.871  18.062  0.00  0.00    +0.000 C 
ATOM      9  O   UNL     1      -0.664  13.055  17.940  0.00  0.00    +0.000 OA
ATOM     10  C   UNL     1       0.228  13.379  19.039  0.00  0.00    +0.000 C 
ATOM     11  C   UNL     1       1.587  12.611  19.095  0.00  0.00    +0.000 C 
ATOM     12  C   UNL     1       2.217  13.753  18.287  0.00  0.00    +0.000 C 
ATOM     13  C   UNL     1       1.078  14.662  18.777  0.00  0.00    +0.000 C 
ATOM     14  C   UNL     1      -0.570  13.458  20.346  0.00  0.00    +0.000 C 
ENDBRANCH   4   6
BRANCH   1  18
ATOM     15  C   UNL     1       2.437   5.753  19.309  0.00  0.00    +0.000 A 
ATOM     16  C   UNL     1       2.517   6.965  18.601  0.00  0.00    +0.000 A 
ATOM     17  C   UNL     1       2.002   8.151  19.131  0.00  0.00    +0.000 A 
ATOM     18  C   UNL     1       1.425   8.162  20.404  0.00  0.00    +0.000 A 
ATOM     19  C   UNL     1       1.434   6.983  21.157  0.00  0.00    +0.000 A 
ATOM     20  C   UNL     1       1.945   5.799  20.622  0.00  0.00    +0.000 A 
BRANCH  15  21
ATOM     21  C   UNL     1       2.766   4.449  18.636  0.00  0.00    +0.000 C 
ATOM     22  C   UNL     1       1.800   3.278  18.647  0.00  0.00    +0.000 C 
ATOM     23  C   UNL     1       1.984   4.077  17.390  0.00  0.00    +0.000 C 
BRANCH  21  25
ATOM     24  C   UNL     1       5.395   5.353  19.165  0.00  0.00    +0.000 C 
ATOM     25  S   UNL     1       4.527   3.908  18.614  0.00  0.00    +0.000 S 
ATOM     26  O   UNL     1       4.878   3.652  17.237  0.00  0.00    +0.000 OA
ATOM     27  O   UNL     1       4.694   2.884  19.632  0.00  0.00    +0.000 OA
ENDBRANCH  21  25
ENDBRANCH  15  21
ENDBRANCH   1  18
TORSDOF 4
ENDMDL
MODEL 5
REMARK VINA RESULT:      -8.1      1.117      1.729
REMARK  Name = 
REMARK  5 active torsions:
REMARK  status: ('A' for Active; 'I' for Inactive)
REMARK    1  A    between atoms: C_1  and  S_2
REMARK    2  A    between atoms: S_2  and  C_5
REMARK    3  A    between atoms: C_5  and  C_6
REMARK    4  A    between atoms: C_9  and  C_10
REMARK    5  A    between atoms: C_13  and  C_14
REMARK                            x       y       z     vdW  Elec       q    Type
REMARK                         _______ _______ _______ _____ _____    ______ ____
ROOT
ATOM      1  C   UNL     1       3.328   6.329  18.978  0.00  0.00    +0.000 A 
ATOM      2  N   UNL     1       2.906   5.079  18.724  0.00  0.00    +0.000 NA
ATOM      3  O   UNL     1       4.083   4.336  18.676  0.00  0.00    +0.000 OA
ATOM      4  C   UNL     1       5.105   5.215  18.888  0.00  0.00    +0.000 A 
ATOM      5  N   UNL     1       4.692   6.436  19.132  0.00  0.00    +0.000 NA
ENDROOT
BRANCH   4   6
ATOM      6  C   UNL     1       6.491   4.703  18.681  0.00  0.00    +0.000 C 
ATOM      7  C   UNL     1       7.543   5.812  18.814  0.00  0.00    +0.000 C 
ATOM      8  C   UNL     1       7.492   6.786  17.642  0.00  0.00    +0.000 C 
ATOM      9  O   UNL     1       7.570   6.082  16.405  0.00  0.00    +0.000 OA
ATOM     10  C   UNL     1       6.588   5.039  16.170  0.00  0.00    +0.000 C 
ATOM     11  C   UNL     1       5.171   5.498  15.700  0.00  0.00    +0.000 C 
ATOM     12  C   UNL     1       5.646   5.335  14.250  0.00  0.00    +0.000 C 
ATOM     13  C   UNL     1       6.729   4.374  14.765  0.00  0.00    +0.000 C 
ATOM     14  C   UNL     1       6.636   4.018  17.313  0.00  0.00    +0.000 C 
ENDBRANCH   4   6
BRANCH   1  18
ATOM     15  C   UNL     1       1.047   9.953  19.101  0.00  0.00    +0.000 A 
ATOM     16  C   UNL     1       1.678   9.538  17.915  0.00  0.00    +0.000 A 
ATOM     17  C   UNL     1       2.395   8.341  17.853  0.00  0.00    +0.000 A 
ATOM     18  C   UNL     1       2.468   7.505  18.971  0.00  0.00    +0.000 A 
ATOM     19  C   UNL     1       1.758   7.859  20.124  0.00  0.00    +0.000 A 
ATOM     20  C   UNL     1       1.048   9.059  20.183  0.00  0.00    +0.000 A 
BRANCH  15  21
ATOM     21  C   UNL     1       0.494  11.345  19.230  0.00  0.00    +0.000 C 
ATOM     22  C   UNL     1       1.043  12.334  20.243  0.00  0.00    +0.000 C 
ATOM     23  C   UNL     1       1.372  12.501  18.789  0.00  0.00    +0.000 C 
BRANCH  21  25
ATOM     24  C   UNL     1      -1.800  10.044  18.201  0.00  0.00    +0.000 C 
ATOM     25  S   UNL     1      -1.303  11.593  18.907  0.00  0.00    +0.000 S 
ATOM     26  O   UNL     1      -1.418  12.621  17.899  0.00  0.00    +0.000 OA
ATOM     27  O   UNL     1      -1.975  11.724  20.189  0.00  0.00    +0.000 OA
ENDBRANCH  21  25
ENDBRANCH  15  21
ENDBRANCH   1  18
TORSDOF 4
ENDMDL
MODEL 6
REMARK VINA RESULT:      -7.9      2.795      8.384
REMARK  Name = 
REMARK  5 active torsions:
REMARK  status: ('A' for Active; 'I' for Inactive)
REMARK    1  A    between atoms: C_1  and  S_2
REMARK    2  A    between atoms: S_2  and  C_5
REMARK    3  A    between atoms: C_5  and  C_6
REMARK    4  A    between atoms: C_9  and  C_10
REMARK    5  A    between atoms: C_13  and  C_14
REMARK                            x       y       z     vdW  Elec       q    Type
REMARK                         _______ _______ _______ _____ _____    ______ ____
ROOT
ATOM      1  C   UNL     1       1.079   9.066  20.431  0.00  0.00    +0.000 A 
ATOM      2  N   UNL     1       1.439   9.497  21.652  0.00  0.00    +0.000 NA
ATOM      3  O   UNL     1       0.585  10.571  21.889  0.00  0.00    +0.000 OA
ATOM      4  C   UNL     1      -0.199  10.695  20.779  0.00  0.00    +0.000 A 
ATOM      5  N   UNL     1       0.028   9.766  19.882  0.00  0.00    +0.000 NA
ENDROOT
BRANCH   4   6
ATOM      6  C   UNL     1      -1.065  11.907  20.696  0.00  0.00    +0.000 C 
ATOM      7  C   UNL     1      -2.050  11.834  19.522  0.00  0.00    +0.000 C 
ATOM      8  C   UNL     1      -1.343  11.979  18.179  0.00  0.00    +0.000 C 
ATOM      9  O   UNL     1      -0.536  13.153  18.163  0.00  0.00    +0.000 OA
ATOM     10  C   UNL     1       0.456  13.292  19.215  0.00  0.00    +0.000 C 
ATOM     11  C   UNL     1       1.790  12.499  19.035  0.00  0.00    +0.000 C 
ATOM     12  C   UNL     1       2.385  13.737  18.352  0.00  0.00    +0.000 C 
ATOM     13  C   UNL     1       1.321  14.584  19.070  0.00  0.00    +0.000 C 
ATOM     14  C   UNL     1      -0.226  13.190  20.584  0.00  0.00    +0.000 C 
ENDBRANCH   4   6
BRANCH   1  18
ATOM     15  C   UNL     1       3.455   6.195  18.321  0.00  0.00    +0.000 A 
ATOM     16  C   UNL     1       2.831   5.861  19.535  0.00  0.00    +0.000 A 
ATOM     17  C   UNL     1       2.025   6.777  20.215  0.00  0.00    +0.000 A 
ATOM     18  C   UNL     1       1.791   8.045  19.676  0.00  0.00    +0.000 A 
ATOM     19  C   UNL     1       2.324   8.351  18.418  0.00  0.00    +0.000 A 
ATOM     20  C   UNL     1       3.134   7.434  17.745  0.00  0.00    +0.000 A 
BRANCH  15  21
ATOM     21  C   UNL     1       4.509   5.301  17.728  0.00  0.00    +0.000 C 
ATOM     22  C   UNL     1       4.185   4.298  16.635  0.00  0.00    +0.000 C 
ATOM     23  C   UNL     1       4.929   5.555  16.292  0.00  0.00    +0.000 C 
BRANCH  21  25
ATOM     24  C   UNL     1       7.228   4.515  17.700  0.00  0.00    +0.000 C 
ATOM     25  S   UNL     1       5.875   4.730  18.825  0.00  0.00    +0.000 S 
ATOM     26  O   UNL     1       5.492   3.438  19.346  0.00  0.00    +0.000 OA
ATOM     27  O   UNL     1       6.218   5.824  19.718  0.00  0.00    +0.000 OA
ENDBRANCH  21  25
ENDBRANCH  15  21
ENDBRANCH   1  18
TORSDOF 4
ENDMDL
MODEL 7
REMARK VINA RESULT:      -7.9      3.483      8.501
REMARK  Name = 
REMARK  5 active torsions:
REMARK  status: ('A' for Active; 'I' for Inactive)
REMARK    1  A    between atoms: C_1  and  S_2
REMARK    2  A    between atoms: S_2  and  C_5
REMARK    3  A    between atoms: C_5  and  C_6
REMARK    4  A    between atoms: C_9  and  C_10
REMARK    5  A    between atoms: C_13  and  C_14
REMARK                            x       y       z     vdW  Elec       q    Type
REMARK                         _______ _______ _______ _____ _____    ______ ____
ROOT
ATOM      1  C   UNL     1       0.757   9.352  20.837  0.00  0.00    +0.000 A 
ATOM      2  N   UNL     1       1.093  10.023  21.952  0.00  0.00    +0.000 NA
ATOM      3  O   UNL     1       0.209  11.099  21.969  0.00  0.00    +0.000 OA
ATOM      4  C   UNL     1      -0.566  10.982  20.852  0.00  0.00    +0.000 A 
ATOM      5  N   UNL     1      -0.305   9.901  20.156  0.00  0.00    +0.000 NA
ENDROOT
BRANCH   4   6
ATOM      6  C   UNL     1      -1.462  12.129  20.528  0.00  0.00    +0.000 C 
ATOM      7  C   UNL     1      -2.296  11.873  19.266  0.00  0.00    +0.000 C 
ATOM      8  C   UNL     1      -1.440  11.902  18.005  0.00  0.00    +0.000 C 
ATOM      9  O   UNL     1      -0.683  13.107  17.943  0.00  0.00    +0.000 OA
ATOM     10  C   UNL     1       0.171  13.416  19.077  0.00  0.00    +0.000 C 
ATOM     11  C   UNL     1       1.545  12.679  19.145  0.00  0.00    +0.000 C 
ATOM     12  C   UNL     1       2.170  13.861  18.393  0.00  0.00    +0.000 C 
ATOM     13  C   UNL     1       0.995  14.726  18.880  0.00  0.00    +0.000 C 
ATOM     14  C   UNL     1      -0.665  13.433  20.362  0.00  0.00    +0.000 C 
ENDBRANCH   4   6
BRANCH   1  18
ATOM     15  C   UNL     1       2.664   5.895  19.175  0.00  0.00    +0.000 A 
ATOM     16  C   UNL     1       2.601   7.100  18.454  0.00  0.00    +0.000 A 
ATOM     17  C   UNL     1       2.014   8.245  19.000  0.00  0.00    +0.000 A 
ATOM     18  C   UNL     1       1.504   8.222  20.301  0.00  0.00    +0.000 A 
ATOM     19  C   UNL     1       1.654   7.058  21.063  0.00  0.00    +0.000 A 
ATOM     20  C   UNL     1       2.237   5.916  20.511  0.00  0.00    +0.000 A 
BRANCH  15  21
ATOM     21  C   UNL     1       3.069   4.615  18.497  0.00  0.00    +0.000 C 
ATOM     22  C   UNL     1       4.344   4.512  17.679  0.00  0.00    +0.000 C 
ATOM     23  C   UNL     1       4.280   3.879  19.038  0.00  0.00    +0.000 C 
BRANCH  21  25
ATOM     24  C   UNL     1       0.943   2.951  19.347  0.00  0.00    +0.000 C 
ATOM     25  S   UNL     1       1.734   3.514  17.863  0.00  0.00    +0.000 S 
ATOM     26  O   UNL     1       2.377   2.390  17.223  0.00  0.00    +0.000 OA
ATOM     27  O   UNL     1       0.778   4.339  17.144  0.00  0.00    +0.000 OA
ENDBRANCH  21  25
ENDBRANCH  15  21
ENDBRANCH   1  18
TORSDOF 4
ENDMDL
MODEL 8
REMARK VINA RESULT:      -7.9      3.745      8.524
REMARK  Name = 
REMARK  5 active torsions:
REMARK  status: ('A' for Active; 'I' for Inactive)
REMARK    1  A    between atoms: C_1  and  S_2
REMARK    2  A    between atoms: S_2  and  C_5
REMARK    3  A    between atoms: C_5  and  C_6
REMARK    4  A    between atoms: C_9  and  C_10
REMARK    5  A    between atoms: C_13  and  C_14
REMARK                            x       y       z     vdW  Elec       q    Type
REMARK                         _______ _______ _______ _____ _____    ______ ____
ROOT
ATOM      1  C   UNL     1       1.871   9.001  18.793  0.00  0.00    +0.000 A 
ATOM      2  N   UNL     1       2.319   9.521  17.638  0.00  0.00    +0.000 NA
ATOM      3  O   UNL     1       1.925  10.856  17.701  0.00  0.00    +0.000 OA
ATOM      4  C   UNL     1       1.260  11.008  18.883  0.00  0.00    +0.000 A 
ATOM      5  N   UNL     1       1.246   9.916  19.610  0.00  0.00    +0.000 NA
ENDROOT
BRANCH   4   6
ATOM      6  C   UNL     1       0.553  12.304  19.099  0.00  0.00    +0.000 C 
ATOM      7  C   UNL     1       0.079  12.470  20.549  0.00  0.00    +0.000 C 
ATOM      8  C   UNL     1      -1.077  11.533  20.878  0.00  0.00    +0.000 C 
ATOM      9  O   UNL     1      -2.125  11.679  19.924  0.00  0.00    +0.000 OA
ATOM     10  C   UNL     1      -1.782  11.499  18.525  0.00  0.00    +0.000 C 
ATOM     11  C   UNL     1      -1.662  10.029  18.012  0.00  0.00    +0.000 C 
ATOM     12  C   UNL     1      -3.141  10.094  17.609  0.00  0.00    +0.000 C 
ATOM     13  C   UNL     1      -3.013  11.626  17.574  0.00  0.00    +0.000 C 
ATOM     14  C   UNL     1      -0.644  12.455  18.146  0.00  0.00    +0.000 C 
ENDBRANCH   4   6
BRANCH   1  18
ATOM     15  C   UNL     1       2.310   4.862  19.801  0.00  0.00    +0.000 A 
ATOM     16  C   UNL     1       1.894   5.797  20.764  0.00  0.00    +0.000 A 
ATOM     17  C   UNL     1       1.713   7.144  20.438  0.00  0.00    +0.000 A 
ATOM     18  C   UNL     1       1.909   7.584  19.127  0.00  0.00    +0.000 A 
ATOM     19  C   UNL     1       2.223   6.642  18.140  0.00  0.00    +0.000 A 
ATOM     20  C   UNL     1       2.408   5.298  18.472  0.00  0.00    +0.000 A 
BRANCH  15  21
ATOM     21  C   UNL     1       2.738   3.479  20.209  0.00  0.00    +0.000 C 
ATOM     22  C   UNL     1       2.384   2.900  21.567  0.00  0.00    +0.000 C 
ATOM     23  C   UNL     1       1.665   2.415  20.342  0.00  0.00    +0.000 C 
BRANCH  21  25
ATOM     24  C   UNL     1       3.902   2.059  18.055  0.00  0.00    +0.000 C 
ATOM     25  S   UNL     1       4.351   2.852  19.576  0.00  0.00    +0.000 S 
ATOM     26  O   UNL     1       4.814   1.848  20.506  0.00  0.00    +0.000 OA
ATOM     27  O   UNL     1       5.177   4.001  19.242  0.00  0.00    +0.000 OA
ENDBRANCH  21  25
ENDBRANCH  15  21
ENDBRANCH   1  18
TORSDOF 4
ENDMDL
MODEL 9
REMARK VINA RESULT:      -7.9      3.773      8.500
REMARK  Name = 
REMARK  5 active torsions:
REMARK  status: ('A' for Active; 'I' for Inactive)
REMARK    1  A    between atoms: C_1  and  S_2
REMARK    2  A    between atoms: S_2  and  C_5
REMARK    3  A    between atoms: C_5  and  C_6
REMARK    4  A    between atoms: C_9  and  C_10
REMARK    5  A    between atoms: C_13  and  C_14
REMARK                            x       y       z     vdW  Elec       q    Type
REMARK                         _______ _______ _______ _____ _____    ______ ____
ROOT
ATOM      1  C   UNL     1       1.959   9.347  18.719  0.00  0.00    +0.000 A 
ATOM      2  N   UNL     1       2.220   9.937  17.540  0.00  0.00    +0.000 NA
ATOM      3  O   UNL     1       1.679  11.212  17.682  0.00  0.00    +0.000 OA
ATOM      4  C   UNL     1       1.128  11.263  18.929  0.00  0.00    +0.000 A 
ATOM      5  N   UNL     1       1.319  10.166  19.621  0.00  0.00    +0.000 NA
ENDROOT
BRANCH   4   6
ATOM      6  C   UNL     1       0.299  12.461  19.253  0.00  0.00    +0.000 C 
ATOM      7  C   UNL     1      -0.193  12.447  20.706  0.00  0.00    +0.000 C 
ATOM      8  C   UNL     1      -1.256  11.378  20.935  0.00  0.00    +0.000 C 
ATOM      9  O   UNL     1      -2.310  11.511  19.986  0.00  0.00    +0.000 OA
ATOM     10  C   UNL     1      -1.946  11.494  18.580  0.00  0.00    +0.000 C 
ATOM     11  C   UNL     1      -1.684  10.095  17.937  0.00  0.00    +0.000 C 
ATOM     12  C   UNL     1      -3.161  10.055  17.523  0.00  0.00    +0.000 C 
ATOM     13  C   UNL     1      -3.180  11.589  17.629  0.00  0.00    +0.000 C 
ATOM     14  C   UNL     1      -0.904  12.584  18.304  0.00  0.00    +0.000 C 
ENDBRANCH   4   6
BRANCH   1  18
ATOM     15  C   UNL     1       2.343   5.153  19.499  0.00  0.00    +0.000 A 
ATOM     16  C   UNL     1       2.751   5.697  18.269  0.00  0.00    +0.000 A 
ATOM     17  C   UNL     1       2.664   7.069  18.016  0.00  0.00    +0.000 A 
ATOM     18  C   UNL     1       2.198   7.939  19.005  0.00  0.00    +0.000 A 
ATOM     19  C   UNL     1       1.887   7.420  20.267  0.00  0.00    +0.000 A 
ATOM     20  C   UNL     1       1.971   6.048  20.513  0.00  0.00    +0.000 A 
BRANCH  15  21
ATOM     21  C   UNL     1       2.208   3.665  19.674  0.00  0.00    +0.000 C 
ATOM     22  C   UNL     1       0.995   3.045  20.344  0.00  0.00    +0.000 C 
ATOM     23  C   UNL     1       1.151   2.948  18.854  0.00  0.00    +0.000 C 
BRANCH  21  25
ATOM     24  C   UNL     1       3.602   1.376  18.764  0.00  0.00    +0.000 C 
ATOM     25  S   UNL     1       3.743   2.686  19.951  0.00  0.00    +0.000 S 
ATOM     26  O   UNL     1       3.656   2.122  21.278  0.00  0.00    +0.000 OA
ATOM     27  O   UNL     1       4.876   3.509  19.561  0.00  0.00    +0.000 OA
ENDBRANCH  21  25
ENDBRANCH  15  21
ENDBRANCH   1  18
TORSDOF 4
ENDMDL
