MODEL 1
REMARK VINA RESULT:      -8.3      0.000      0.000
REMARK  Name = 
REMARK  2 active torsions:
REMARK  status: ('A' for Active; 'I' for Inactive)
REMARK    1  A    between atoms: C_4  and  C_5
REMARK    2  A    between atoms: C_10  and  C_11
REMARK                            x       y       z     vdW  Elec       q    Type
REMARK                         _______ _______ _______ _____ _____    ______ ____
ROOT
ATOM      1  C   UNL     1       1.211   9.691  18.696  0.00  0.00    +0.000 C 
ATOM      2  O   UNL     1       0.604   9.127  19.604  0.00  0.00    +0.000 OA
ATOM      3  N   UNL     1       2.218   9.150  17.927  0.00  0.00    +0.000 N 
ATOM      4  C   UNL     1       2.642   7.863  18.105  0.00  0.00    +0.000 A 
ATOM      5  N   UNL     1       2.123   6.924  18.845  0.00  0.00    +0.000 NA
ATOM      6  C   UNL     1       2.900   5.779  18.777  0.00  0.00    +0.000 A 
ATOM      7  C   UNL     1       3.988   5.878  17.929  0.00  0.00    +0.000 A 
ATOM      8  S   UNL     1       4.045   7.449  17.229  0.00  0.00    +0.000 S 
ATOM      9  H   UNL     1       2.760   9.711  17.288  0.00  0.00    +0.000 HD
ENDROOT
BRANCH   1  13
ATOM     10  O   UNL     1       2.102  12.732  21.350  0.00  0.00    +0.000 OA
ATOM     11  C   UNL     1       1.318  12.468  20.443  0.00  0.00    +0.000 C 
ATOM     12  C   UNL     1       1.779  12.120  19.051  0.00  0.00    +0.000 C 
ATOM     13  C   UNL     1       0.851  11.136  18.347  0.00  0.00    +0.000 C 
ATOM     14  C   UNL     1      -0.609  11.442  18.575  0.00  0.00    +0.000 A 
ATOM     15  C   UNL     1      -1.588  10.969  17.690  0.00  0.00    +0.000 A 
ATOM     16  C   UNL     1      -2.935  11.219  17.942  0.00  0.00    +0.000 A 
ATOM     17  C   UNL     1      -3.299  11.933  19.078  0.00  0.00    +0.000 A 
ATOM     18  F   UNL     1      -4.596  12.169  19.321  0.00  0.00    +0.000 F 
ATOM     19  C   UNL     1      -2.344  12.398  19.976  0.00  0.00    +0.000 A 
ATOM     20  C   UNL     1      -0.999  12.147  19.720  0.00  0.00    +0.000 A 
ATOM     21  N   UNL     1      -0.032  12.553  20.643  0.00  0.00    +0.000 N 
ATOM     22  H   UNL     1      -0.316  12.939  21.537  0.00  0.00    +0.000 HD
ENDBRANCH   1  13
BRANCH   6  23
ATOM     23  C   UNL     1       2.488   4.587  19.514  0.00  0.00    +0.000 A 
ATOM     24  C   UNL     1       2.416   4.701  20.917  0.00  0.00    +0.000 A 
ATOM     25  C   UNL     1       2.063   3.615  21.720  0.00  0.00    +0.000 A 
ATOM     26  C   UNL     1       1.779   2.388  21.134  0.00  0.00    +0.000 A 
ATOM     27  C   UNL     1       1.853   2.248  19.747  0.00  0.00    +0.000 A 
ATOM     28  C   UNL     1       2.211   3.337  18.937  0.00  0.00    +0.000 A 
ATOM     29 CL   UNL     1       2.347   3.013  17.242  0.00  0.00    +0.000 Cl
ENDBRANCH   6  23
TORSDOF 2
ENDMDL
MODEL 2
REMARK VINA RESULT:      -8.3      4.154      8.575
REMARK  Name = 
REMARK  2 active torsions:
REMARK  status: ('A' for Active; 'I' for Inactive)
REMARK    1  A    between atoms: C_4  and  C_5
REMARK    2  A    between atoms: C_10  and  C_11
REMARK                            x       y       z     vdW  Elec       q    Type
REMARK                         _______ _______ _______ _____ _____    ______ ____
ROOT
ATOM      1  C   UNL     1       2.405   7.767  18.116  0.00  0.00    +0.000 C 
ATOM      2  O   UNL     1       2.454   8.737  17.362  0.00  0.00    +0.000 OA
ATOM      3  N   UNL     1       1.925   7.760  19.408  0.00  0.00    +0.000 N 
ATOM      4  C   UNL     1       1.420   8.889  19.990  0.00  0.00    +0.000 A 
ATOM      5  N   UNL     1       1.157  10.043  19.446  0.00  0.00    +0.000 NA
ATOM      6  C   UNL     1       0.703  10.931  20.409  0.00  0.00    +0.000 A 
ATOM      7  C   UNL     1       0.594  10.390  21.677  0.00  0.00    +0.000 A 
ATOM      8  S   UNL     1       1.096   8.744  21.657  0.00  0.00    +0.000 S 
ATOM      9  H   UNL     1       2.035   6.960  20.012  0.00  0.00    +0.000 HD
ENDROOT
BRANCH   1  13
ATOM     10  O   UNL     1       1.612   4.346  20.296  0.00  0.00    +0.000 OA
ATOM     11  C   UNL     1       2.427   4.787  19.492  0.00  0.00    +0.000 C 
ATOM     12  C   UNL     1       2.031   5.276  18.122  0.00  0.00    +0.000 C 
ATOM     13  C   UNL     1       2.913   6.413  17.619  0.00  0.00    +0.000 C 
ATOM     14  C   UNL     1       4.376   6.196  17.918  0.00  0.00    +0.000 A 
ATOM     15  C   UNL     1       5.366   6.855  17.176  0.00  0.00    +0.000 A 
ATOM     16  C   UNL     1       6.710   6.682  17.499  0.00  0.00    +0.000 A 
ATOM     17  C   UNL     1       7.060   5.857  18.562  0.00  0.00    +0.000 A 
ATOM     18  F   UNL     1       8.353   5.695  18.872  0.00  0.00    +0.000 F 
ATOM     19  C   UNL     1       6.092   5.206  19.320  0.00  0.00    +0.000 A 
ATOM     20  C   UNL     1       4.750   5.381  18.994  0.00  0.00    +0.000 A 
ATOM     21  N   UNL     1       3.764   4.784  19.782  0.00  0.00    +0.000 N 
ATOM     22  H   UNL     1       4.020   4.308  20.641  0.00  0.00    +0.000 HD
ENDBRANCH   1  13
BRANCH   6  23
ATOM     23  C   UNL     1       0.324  12.285  20.015  0.00  0.00    +0.000 A 
ATOM     24  C   UNL     1      -0.894  12.778  20.525  0.00  0.00    +0.000 A 
ATOM     25  C   UNL     1      -1.367  14.048  20.187  0.00  0.00    +0.000 A 
ATOM     26  C   UNL     1      -0.629  14.852  19.327  0.00  0.00    +0.000 A 
ATOM     27  C   UNL     1       0.576  14.382  18.802  0.00  0.00    +0.000 A 
ATOM     28  C   UNL     1       1.052  13.105  19.136  0.00  0.00    +0.000 A 
ATOM     29 CL   UNL     1       2.515  12.608  18.355  0.00  0.00    +0.000 Cl
ENDBRANCH   6  23
TORSDOF 2
ENDMDL
MODEL 3
REMARK VINA RESULT:      -8.2      4.178      8.638
REMARK  Name = 
REMARK  2 active torsions:
REMARK  status: ('A' for Active; 'I' for Inactive)
REMARK    1  A    between atoms: C_4  and  C_5
REMARK    2  A    between atoms: C_10  and  C_11
REMARK                            x       y       z     vdW  Elec       q    Type
REMARK                         _______ _______ _______ _____ _____    ______ ____
ROOT
ATOM      1  C   UNL     1       2.396   7.884  18.232  0.00  0.00    +0.000 C 
ATOM      2  O   UNL     1       2.669   8.831  17.496  0.00  0.00    +0.000 OA
ATOM      3  N   UNL     1       1.741   7.953  19.442  0.00  0.00    +0.000 N 
ATOM      4  C   UNL     1       1.298   9.142  19.951  0.00  0.00    +0.000 A 
ATOM      5  N   UNL     1       1.257  10.312  19.380  0.00  0.00    +0.000 NA
ATOM      6  C   UNL     1       0.782  11.261  20.271  0.00  0.00    +0.000 A 
ATOM      7  C   UNL     1       0.430  10.754  21.509  0.00  0.00    +0.000 A 
ATOM      8  S   UNL     1       0.726   9.059  21.554  0.00  0.00    +0.000 S 
ATOM      9  H   UNL     1       1.667   7.154  20.053  0.00  0.00    +0.000 HD
ENDROOT
BRANCH   1  13
ATOM     10  O   UNL     1       1.645   4.686  20.739  0.00  0.00    +0.000 OA
ATOM     11  C   UNL     1       2.407   5.023  19.839  0.00  0.00    +0.000 C 
ATOM     12  C   UNL     1       1.918   5.423  18.470  0.00  0.00    +0.000 C 
ATOM     13  C   UNL     1       2.802   6.473  17.807  0.00  0.00    +0.000 C 
ATOM     14  C   UNL     1       4.275   6.207  18.004  0.00  0.00    +0.000 A 
ATOM     15  C   UNL     1       5.226   6.757  17.133  0.00  0.00    +0.000 A 
ATOM     16  C   UNL     1       6.583   6.543  17.358  0.00  0.00    +0.000 A 
ATOM     17  C   UNL     1       6.986   5.787  18.454  0.00  0.00    +0.000 A 
ATOM     18  F   UNL     1       8.293   5.585  18.670  0.00  0.00    +0.000 F 
ATOM     19  C   UNL     1       6.059   5.245  19.337  0.00  0.00    +0.000 A 
ATOM     20  C   UNL     1       4.703   5.460  19.108  0.00  0.00    +0.000 A 
ATOM     21  N   UNL     1       3.762   4.976  20.020  0.00  0.00    +0.000 N 
ATOM     22  H   UNL     1       4.070   4.556  20.891  0.00  0.00    +0.000 HD
ENDBRANCH   1  13
BRANCH   6  23
ATOM     23  C   UNL     1       0.630  12.645  19.833  0.00  0.00    +0.000 A 
ATOM     24  C   UNL     1       1.514  13.591  20.391  0.00  0.00    +0.000 A 
ATOM     25  C   UNL     1       1.435  14.946  20.066  0.00  0.00    +0.000 A 
ATOM     26  C   UNL     1       0.465  15.385  19.174  0.00  0.00    +0.000 A 
ATOM     27  C   UNL     1      -0.428  14.469  18.615  0.00  0.00    +0.000 A 
ATOM     28  C   UNL     1      -0.354  13.107  18.943  0.00  0.00    +0.000 A 
ATOM     29 CL   UNL     1      -1.569  12.088  18.247  0.00  0.00    +0.000 Cl
ENDBRANCH   6  23
TORSDOF 2
ENDMDL
MODEL 4
REMARK VINA RESULT:      -8.0      2.628      4.242
REMARK  Name = 
REMARK  2 active torsions:
REMARK  status: ('A' for Active; 'I' for Inactive)
REMARK    1  A    between atoms: C_4  and  C_5
REMARK    2  A    between atoms: C_10  and  C_11
REMARK                            x       y       z     vdW  Elec       q    Type
REMARK                         _______ _______ _______ _____ _____    ______ ____
ROOT
ATOM      1  C   UNL     1       0.789   9.900  19.235  0.00  0.00    +0.000 C 
ATOM      2  O   UNL     1       1.196   9.969  18.077  0.00  0.00    +0.000 OA
ATOM      3  N   UNL     1       1.004   8.861  20.116  0.00  0.00    +0.000 N 
ATOM      4  C   UNL     1       1.741   7.765  19.765  0.00  0.00    +0.000 A 
ATOM      5  N   UNL     1       2.462   7.571  18.696  0.00  0.00    +0.000 NA
ATOM      6  C   UNL     1       3.005   6.296  18.713  0.00  0.00    +0.000 A 
ATOM      7  C   UNL     1       2.703   5.564  19.847  0.00  0.00    +0.000 A 
ATOM      8  S   UNL     1       1.700   6.490  20.894  0.00  0.00    +0.000 S 
ATOM      9  H   UNL     1       0.531   8.812  21.005  0.00  0.00    +0.000 HD
ENDROOT
BRANCH   1  13
ATOM     10  O   UNL     1      -2.363  11.436  17.048  0.00  0.00    +0.000 OA
ATOM     11  C   UNL     1      -1.566  11.769  17.919  0.00  0.00    +0.000 C 
ATOM     12  C   UNL     1      -1.456  11.043  19.236  0.00  0.00    +0.000 C 
ATOM     13  C   UNL     1      -0.040  11.052  19.802  0.00  0.00    +0.000 C 
ATOM     14  C   UNL     1       0.643  12.390  19.649  0.00  0.00    +0.000 A 
ATOM     15  C   UNL     1       1.721  12.743  20.472  0.00  0.00    +0.000 A 
ATOM     16  C   UNL     1       2.372  13.960  20.285  0.00  0.00    +0.000 A 
ATOM     17  C   UNL     1       1.948  14.816  19.274  0.00  0.00    +0.000 A 
ATOM     18  F   UNL     1       2.578  15.985  19.093  0.00  0.00    +0.000 F 
ATOM     19  C   UNL     1       0.890  14.478  18.438  0.00  0.00    +0.000 A 
ATOM     20  C   UNL     1       0.241  13.261  18.629  0.00  0.00    +0.000 A 
ATOM     21  N   UNL     1      -0.783  12.879  17.759  0.00  0.00    +0.000 N 
ATOM     22  H   UNL     1      -0.985  13.438  16.938  0.00  0.00    +0.000 HD
ENDBRANCH   1  13
BRANCH   6  23
ATOM     23  C   UNL     1       3.872   5.871  17.618  0.00  0.00    +0.000 A 
ATOM     24  C   UNL     1       4.576   6.882  16.935  0.00  0.00    +0.000 A 
ATOM     25  C   UNL     1       5.409   6.589  15.853  0.00  0.00    +0.000 A 
ATOM     26  C   UNL     1       5.551   5.274  15.429  0.00  0.00    +0.000 A 
ATOM     27  C   UNL     1       4.856   4.256  16.085  0.00  0.00    +0.000 A 
ATOM     28  C   UNL     1       4.016   4.548  17.170  0.00  0.00    +0.000 A 
ATOM     29 CL   UNL     1       3.148   3.209  17.843  0.00  0.00    +0.000 Cl
ENDBRANCH   6  23
TORSDOF 2
ENDMDL
MODEL 5
REMARK VINA RESULT:      -8.0      4.454      8.340
REMARK  Name = 
REMARK  2 active torsions:
REMARK  status: ('A' for Active; 'I' for Inactive)
REMARK    1  A    between atoms: C_4  and  C_5
REMARK    2  A    between atoms: C_10  and  C_11
REMARK                            x       y       z     vdW  Elec       q    Type
REMARK                         _______ _______ _______ _____ _____    ______ ____
ROOT
ATOM      1  C   UNL     1       2.437   5.240  18.628  0.00  0.00    +0.000 C 
ATOM      2  O   UNL     1       1.720   5.064  19.611  0.00  0.00    +0.000 OA
ATOM      3  N   UNL     1       2.731   6.449  18.036  0.00  0.00    +0.000 N 
ATOM      4  C   UNL     1       2.237   7.625  18.527  0.00  0.00    +0.000 A 
ATOM      5  N   UNL     1       1.593   7.842  19.638  0.00  0.00    +0.000 NA
ATOM      6  C   UNL     1       1.228   9.176  19.724  0.00  0.00    +0.000 A 
ATOM      7  C   UNL     1       1.657   9.954  18.665  0.00  0.00    +0.000 A 
ATOM      8  S   UNL     1       2.513   8.982  17.532  0.00  0.00    +0.000 S 
ATOM      9  H   UNL     1       3.220   6.506  17.156  0.00  0.00    +0.000 HD
ENDROOT
BRANCH   1  13
ATOM     10  O   UNL     1       4.576   2.535  20.908  0.00  0.00    +0.000 OA
ATOM     11  C   UNL     1       4.505   2.954  19.757  0.00  0.00    +0.000 C 
ATOM     12  C   UNL     1       3.241   2.872  18.941  0.00  0.00    +0.000 C 
ATOM     13  C   UNL     1       3.091   4.030  17.959  0.00  0.00    +0.000 C 
ATOM     14  C   UNL     1       4.384   4.378  17.263  0.00  0.00    +0.000 A 
ATOM     15  C   UNL     1       4.379   5.067  16.042  0.00  0.00    +0.000 A 
ATOM     16  C   UNL     1       5.582   5.424  15.439  0.00  0.00    +0.000 A 
ATOM     17  C   UNL     1       6.784   5.099  16.058  0.00  0.00    +0.000 A 
ATOM     18  F   UNL     1       7.940   5.447  15.477  0.00  0.00    +0.000 F 
ATOM     19  C   UNL     1       6.810   4.428  17.276  0.00  0.00    +0.000 A 
ATOM     20  C   UNL     1       5.605   4.072  17.876  0.00  0.00    +0.000 A 
ATOM     21  N   UNL     1       5.613   3.454  19.128  0.00  0.00    +0.000 N 
ATOM     22  H   UNL     1       6.484   3.355  19.639  0.00  0.00    +0.000 HD
ENDBRANCH   1  13
BRANCH   6  23
ATOM     23  C   UNL     1       0.513   9.650  20.906  0.00  0.00    +0.000 A 
ATOM     24  C   UNL     1       0.823   9.024  22.131  0.00  0.00    +0.000 A 
ATOM     25  C   UNL     1       0.176   9.378  23.316  0.00  0.00    +0.000 A 
ATOM     26  C   UNL     1      -0.799  10.368  23.300  0.00  0.00    +0.000 A 
ATOM     27  C   UNL     1      -1.130  10.995  22.098  0.00  0.00    +0.000 A 
ATOM     28  C   UNL     1      -0.485  10.639  20.905  0.00  0.00    +0.000 A 
ATOM     29 CL   UNL     1      -1.043  11.433  19.470  0.00  0.00    +0.000 Cl
ENDBRANCH   6  23
TORSDOF 2
ENDMDL
MODEL 6
REMARK VINA RESULT:      -7.9      2.831      4.486
REMARK  Name = 
REMARK  2 active torsions:
REMARK  status: ('A' for Active; 'I' for Inactive)
REMARK    1  A    between atoms: C_4  and  C_5
REMARK    2  A    between atoms: C_10  and  C_11
REMARK                            x       y       z     vdW  Elec       q    Type
REMARK                         _______ _______ _______ _____ _____    ______ ____
ROOT
ATOM      1  C   UNL     1       1.386   9.177  19.300  0.00  0.00    +0.000 C 
ATOM      2  O   UNL     1       2.002   9.464  18.276  0.00  0.00    +0.000 OA
ATOM      3  N   UNL     1       1.490   8.004  20.016  0.00  0.00    +0.000 N 
ATOM      4  C   UNL     1       2.347   7.008  19.638  0.00  0.00    +0.000 A 
ATOM      5  N   UNL     1       3.269   7.027  18.718  0.00  0.00    +0.000 NA
ATOM      6  C   UNL     1       3.876   5.785  18.625  0.00  0.00    +0.000 A 
ATOM      7  C   UNL     1       3.408   4.853  19.534  0.00  0.00    +0.000 A 
ATOM      8  S   UNL     1       2.167   5.550  20.502  0.00  0.00    +0.000 S 
ATOM      9  H   UNL     1       0.859   7.784  20.772  0.00  0.00    +0.000 HD
ENDROOT
BRANCH   1  13
ATOM     10  O   UNL     1      -2.029  10.150  17.184  0.00  0.00    +0.000 OA
ATOM     11  C   UNL     1      -1.275  10.620  18.030  0.00  0.00    +0.000 C 
ATOM     12  C   UNL     1      -1.015   9.941  19.350  0.00  0.00    +0.000 C 
ATOM     13  C   UNL     1       0.394  10.188  19.878  0.00  0.00    +0.000 C 
ATOM     14  C   UNL     1       0.846  11.616  19.694  0.00  0.00    +0.000 A 
ATOM     15  C   UNL     1       1.873  12.151  20.484  0.00  0.00    +0.000 A 
ATOM     16  C   UNL     1       2.312  13.455  20.266  0.00  0.00    +0.000 A 
ATOM     17  C   UNL     1       1.729  14.216  19.259  0.00  0.00    +0.000 A 
ATOM     18  F   UNL     1       2.156  15.469  19.050  0.00  0.00    +0.000 F 
ATOM     19  C   UNL     1       0.719  13.699  18.455  0.00  0.00    +0.000 A 
ATOM     20  C   UNL     1       0.283  12.396  18.676  0.00  0.00    +0.000 A 
ATOM     21  N   UNL     1      -0.687  11.840  17.838  0.00  0.00    +0.000 N 
ATOM     22  H   UNL     1      -0.998  12.348  17.017  0.00  0.00    +0.000 HD
ENDBRANCH   1  13
BRANCH   6  23
ATOM     23  C   UNL     1       4.961   5.585  17.669  0.00  0.00    +0.000 A 
ATOM     24  C   UNL     1       4.597   5.428  16.317  0.00  0.00    +0.000 A 
ATOM     25  C   UNL     1       5.552   5.200  15.325  0.00  0.00    +0.000 A 
ATOM     26  C   UNL     1       6.896   5.121  15.667  0.00  0.00    +0.000 A 
ATOM     27  C   UNL     1       7.280   5.264  17.002  0.00  0.00    +0.000 A 
ATOM     28  C   UNL     1       6.323   5.489  18.001  0.00  0.00    +0.000 A 
ATOM     29 CL   UNL     1       6.919   5.566  19.625  0.00  0.00    +0.000 Cl
ENDBRANCH   6  23
TORSDOF 2
ENDMDL
MODEL 7
REMARK VINA RESULT:      -7.8      4.487      8.719
REMARK  Name = 
REMARK  2 active torsions:
REMARK  status: ('A' for Active; 'I' for Inactive)
REMARK    1  A    between atoms: C_4  and  C_5
REMARK    2  A    between atoms: C_10  and  C_11
REMARK                            x       y       z     vdW  Elec       q    Type
REMARK                         _______ _______ _______ _____ _____    ______ ____
ROOT
ATOM      1  C   UNL     1       3.797   6.206  18.307  0.00  0.00    +0.000 C 
ATOM      2  O   UNL     1       4.032   7.150  17.555  0.00  0.00    +0.000 OA
ATOM      3  N   UNL     1       2.905   6.202  19.358  0.00  0.00    +0.000 N 
ATOM      4  C   UNL     1       2.152   7.301  19.663  0.00  0.00    +0.000 A 
ATOM      5  N   UNL     1       2.010   8.408  18.991  0.00  0.00    +0.000 NA
ATOM      6  C   UNL     1       1.192   9.285  19.686  0.00  0.00    +0.000 A 
ATOM      7  C   UNL     1       0.694   8.780  20.873  0.00  0.00    +0.000 A 
ATOM      8  S   UNL     1       1.288   7.186  21.128  0.00  0.00    +0.000 S 
ATOM      9  H   UNL     1       2.859   5.436  20.013  0.00  0.00    +0.000 HD
ENDROOT
BRANCH   1  13
ATOM     10  O   UNL     1       7.413   5.557  20.199  0.00  0.00    +0.000 OA
ATOM     11  C   UNL     1       6.789   5.199  19.206  0.00  0.00    +0.000 C 
ATOM     12  C   UNL     1       5.427   4.558  19.292  0.00  0.00    +0.000 C 
ATOM     13  C   UNL     1       4.539   4.886  18.097  0.00  0.00    +0.000 C 
ATOM     14  C   UNL     1       5.283   4.839  16.784  0.00  0.00    +0.000 A 
ATOM     15  C   UNL     1       4.595   4.661  15.576  0.00  0.00    +0.000 A 
ATOM     16  C   UNL     1       5.292   4.670  14.370  0.00  0.00    +0.000 A 
ATOM     17  C   UNL     1       6.668   4.864  14.374  0.00  0.00    +0.000 A 
ATOM     18  F   UNL     1       7.336   4.876  13.212  0.00  0.00    +0.000 F 
ATOM     19  C   UNL     1       7.367   5.058  15.561  0.00  0.00    +0.000 A 
ATOM     20  C   UNL     1       6.667   5.046  16.765  0.00  0.00    +0.000 A 
ATOM     21  N   UNL     1       7.344   5.301  17.960  0.00  0.00    +0.000 N 
ATOM     22  H   UNL     1       8.317   5.588  17.940  0.00  0.00    +0.000 HD
ENDBRANCH   1  13
BRANCH   6  23
ATOM     23  C   UNL     1       0.875  10.586  19.103  0.00  0.00    +0.000 A 
ATOM     24  C   UNL     1       1.886  11.566  19.148  0.00  0.00    +0.000 A 
ATOM     25  C   UNL     1       1.679  12.853  18.648  0.00  0.00    +0.000 A 
ATOM     26  C   UNL     1       0.450  13.187  18.093  0.00  0.00    +0.000 A 
ATOM     27  C   UNL     1      -0.570  12.236  18.046  0.00  0.00    +0.000 A 
ATOM     28  C   UNL     1      -0.367  10.943  18.551  0.00  0.00    +0.000 A 
ATOM     29 CL   UNL     1      -1.735   9.883  18.508  0.00  0.00    +0.000 Cl
ENDBRANCH   6  23
TORSDOF 2
ENDMDL
MODEL 8
REMARK VINA RESULT:      -7.8      3.678      8.190
REMARK  Name = 
REMARK  2 active torsions:
REMARK  status: ('A' for Active; 'I' for Inactive)
REMARK    1  A    between atoms: C_4  and  C_5
REMARK    2  A    between atoms: C_10  and  C_11
REMARK                            x       y       z     vdW  Elec       q    Type
REMARK                         _______ _______ _______ _____ _____    ______ ____
ROOT
ATOM      1  C   UNL     1       2.948   6.961  19.545  0.00  0.00    +0.000 C 
ATOM      2  O   UNL     1       3.108   7.699  18.575  0.00  0.00    +0.000 OA
ATOM      3  N   UNL     1       2.172   7.225  20.654  0.00  0.00    +0.000 N 
ATOM      4  C   UNL     1       1.461   8.386  20.770  0.00  0.00    +0.000 A 
ATOM      5  N   UNL     1       1.254   9.312  19.878  0.00  0.00    +0.000 NA
ATOM      6  C   UNL     1       0.519  10.349  20.430  0.00  0.00    +0.000 A 
ATOM      7  C   UNL     1       0.147  10.146  21.746  0.00  0.00    +0.000 A 
ATOM      8  S   UNL     1       0.756   8.636  22.302  0.00  0.00    +0.000 S 
ATOM      9  H   UNL     1       2.191   6.632  21.469  0.00  0.00    +0.000 HD
ENDROOT
BRANCH   1  13
ATOM     10  O   UNL     1       5.165   5.732  16.281  0.00  0.00    +0.000 OA
ATOM     11  C   UNL     1       4.545   5.267  17.232  0.00  0.00    +0.000 C 
ATOM     12  C   UNL     1       4.879   5.606  18.662  0.00  0.00    +0.000 C 
ATOM     13  C   UNL     1       3.657   5.607  19.573  0.00  0.00    +0.000 C 
ATOM     14  C   UNL     1       2.721   4.454  19.300  0.00  0.00    +0.000 A 
ATOM     15  C   UNL     1       1.817   4.016  20.277  0.00  0.00    +0.000 A 
ATOM     16  C   UNL     1       0.926   2.985  19.990  0.00  0.00    +0.000 A 
ATOM     17  C   UNL     1       0.938   2.399  18.729  0.00  0.00    +0.000 A 
ATOM     18  F   UNL     1       0.078   1.409  18.454  0.00  0.00    +0.000 F 
ATOM     19  C   UNL     1       1.817   2.829  17.741  0.00  0.00    +0.000 A 
ATOM     20  C   UNL     1       2.707   3.860  18.032  0.00  0.00    +0.000 A 
ATOM     21  N   UNL     1       3.554   4.345  17.033  0.00  0.00    +0.000 N 
ATOM     22  H   UNL     1       3.452   4.015  16.078  0.00  0.00    +0.000 HD
ENDBRANCH   1  13
BRANCH   6  23
ATOM     23  C   UNL     1       0.149  11.490  19.596  0.00  0.00    +0.000 A 
ATOM     24  C   UNL     1       0.846  12.695  19.821  0.00  0.00    +0.000 A 
ATOM     25  C   UNL     1       0.550  13.854  19.102  0.00  0.00    +0.000 A 
ATOM     26  C   UNL     1      -0.454  13.833  18.143  0.00  0.00    +0.000 A 
ATOM     27  C   UNL     1      -1.164  12.655  17.909  0.00  0.00    +0.000 A 
ATOM     28  C   UNL     1      -0.872  11.489  18.632  0.00  0.00    +0.000 A 
ATOM     29 CL   UNL     1      -1.879  10.118  18.306  0.00  0.00    +0.000 Cl
ENDBRANCH   6  23
TORSDOF 2
ENDMDL
MODEL 9
REMARK VINA RESULT:      -7.8      3.968      8.284
REMARK  Name = 
REMARK  2 active torsions:
REMARK  status: ('A' for Active; 'I' for Inactive)
REMARK    1  A    between atoms: C_4  and  C_5
REMARK    2  A    between atoms: C_10  and  C_11
REMARK                            x       y       z     vdW  Elec       q    Type
REMARK                         _______ _______ _______ _____ _____    ______ ____
ROOT
ATOM      1  C   UNL     1       2.215   7.544  18.819  0.00  0.00    +0.000 C 
ATOM      2  O   UNL     1       1.678   7.434  17.719  0.00  0.00    +0.000 OA
ATOM      3  N   UNL     1       1.866   8.431  19.814  0.00  0.00    +0.000 N 
ATOM      4  C   UNL     1       0.825   9.303  19.664  0.00  0.00    +0.000 A 
ATOM      5  N   UNL     1      -0.068   9.356  18.716  0.00  0.00    +0.000 NA
ATOM      6  C   UNL     1      -0.917  10.432  18.922  0.00  0.00    +0.000 A 
ATOM      7  C   UNL     1      -0.657  11.151  20.075  0.00  0.00    +0.000 A 
ATOM      8  S   UNL     1       0.694  10.473  20.896  0.00  0.00    +0.000 S 
ATOM      9  H   UNL     1       2.433   8.554  20.640  0.00  0.00    +0.000 HD
ENDROOT
BRANCH   1  13
ATOM     10  O   UNL     1       4.881   6.411  15.871  0.00  0.00    +0.000 OA
ATOM     11  C   UNL     1       4.445   6.025  16.950  0.00  0.00    +0.000 C 
ATOM     12  C   UNL     1       4.558   6.846  18.210  0.00  0.00    +0.000 C 
ATOM     13  C   UNL     1       3.390   6.629  19.166  0.00  0.00    +0.000 C 
ATOM     14  C   UNL     1       2.985   5.179  19.277  0.00  0.00    +0.000 A 
ATOM     15  C   UNL     1       2.276   4.715  20.394  0.00  0.00    +0.000 A 
ATOM     16  C   UNL     1       1.867   3.385  20.457  0.00  0.00    +0.000 A 
ATOM     17  C   UNL     1       2.161   2.527  19.404  0.00  0.00    +0.000 A 
ATOM     18  F   UNL     1       1.763   1.249  19.465  0.00  0.00    +0.000 F 
ATOM     19  C   UNL     1       2.850   2.971  18.280  0.00  0.00    +0.000 A 
ATOM     20  C   UNL     1       3.259   4.300  18.222  0.00  0.00    +0.000 A 
ATOM     21  N   UNL     1       3.897   4.778  17.075  0.00  0.00    +0.000 N 
ATOM     22  H   UNL     1       3.974   4.186  16.254  0.00  0.00    +0.000 HD
ENDBRANCH   1  13
BRANCH   6  23
ATOM     23  C   UNL     1      -2.015  10.669  17.988  0.00  0.00    +0.000 A 
ATOM     24  C   UNL     1      -1.909  10.071  16.716  0.00  0.00    +0.000 A 
ATOM     25  C   UNL     1      -2.886  10.258  15.737  0.00  0.00    +0.000 A 
ATOM     26  C   UNL     1      -3.992  11.053  16.011  0.00  0.00    +0.000 A 
ATOM     27  C   UNL     1      -4.114  11.664  17.259  0.00  0.00    +0.000 A 
ATOM     28  C   UNL     1      -3.132  11.481  18.244  0.00  0.00    +0.000 A 
ATOM     29 CL   UNL     1      -3.360  12.357  19.720  0.00  0.00    +0.000 Cl
ENDBRANCH   6  23
TORSDOF 2
ENDMDL
