MODEL 1
REMARK VINA RESULT:      -8.1      0.000      0.000
REMARK  Name = 
REMARK  9 active torsions:
REMARK  status: ('A' for Active; 'I' for Inactive)
REMARK    1  A    between atoms: C_1  and  C_2
REMARK    2  A    between atoms: C_6  and  O_7
REMARK    3  A    between atoms: O_7  and  C_8
REMARK    4  A    between atoms: C_8  and  C_9
REMARK    5  A    between atoms: C_9  and  O_10
REMARK    6  A    between atoms: C_9  and  C_11
REMARK    7  A    between atoms: C_11  and  N_12
REMARK    8  A    between atoms: C_13  and  C_15
REMARK    9  A    between atoms: N_24  and  C_25
REMARK                            x       y       z     vdW  Elec       q    Type
REMARK                         _______ _______ _______ _____ _____    ______ ____
ROOT
ATOM      1  N   UNL     1       3.950   7.328  17.559  0.00  0.00    +0.000 N 
ATOM      2  C   UNL     1       2.745   6.965  18.118  0.00  0.00    +0.000 C 
ATOM      3  O   UNL     1       2.232   5.864  17.964  0.00  0.00    +0.000 OA
ATOM      4  H   UNL     1       4.106   8.312  17.378  0.00  0.00    +0.000 HD
ENDROOT
BRANCH   2   5
ATOM      5  C   UNL     1       2.042   8.006  18.923  0.00  0.00    +0.000 A 
ATOM      6  C   UNL     1       1.554   9.141  18.222  0.00  0.00    +0.000 A 
ATOM      7  C   UNL     1       0.890  10.163  18.880  0.00  0.00    +0.000 A 
ATOM      8  C   UNL     1       0.652   9.986  20.222  0.00  0.00    +0.000 A 
ATOM      9  C   UNL     1       1.076   8.859  20.923  0.00  0.00    +0.000 A 
ATOM     10  C   UNL     1       1.794   7.854  20.302  0.00  0.00    +0.000 A 
ATOM     11  N   UNL     1       0.604   8.984  22.229  0.00  0.00    +0.000 N 
ATOM     12  C   UNL     1      -0.116  10.205  22.352  0.00  0.00    +0.000 A 
ATOM     13  O   UNL     1      -0.675  10.614  23.350  0.00  0.00    +0.000 OA
ATOM     14  N   UNL     1      -0.052  10.824  21.082  0.00  0.00    +0.000 N 
ATOM     15  C   UNL     1      -0.617  12.059  20.617  0.00  0.00    +0.000 C 
ATOM     16  H   UNL     1       0.695   8.313  22.977  0.00  0.00    +0.000 HD
ENDBRANCH   2   5
BRANCH   1  17
ATOM     17  C   UNL     1       4.743   6.393  16.770  0.00  0.00    +0.000 C 
BRANCH  17  18
ATOM     18  C   UNL     1       6.043   5.983  17.484  0.00  0.00    +0.000 C 
BRANCH  18  19
ATOM     19  O   UNL     1       7.162   6.488  16.736  0.00  0.00    +0.000 OA
ATOM     20  H   UNL     1       7.833   6.799  17.365  0.00  0.00    +0.000 HD
ENDBRANCH  18  19
BRANCH  18  21
ATOM     21  C   UNL     1       6.094   4.451  17.619  0.00  0.00    +0.000 C 
BRANCH  21  22
ATOM     22  O   UNL     1       5.547   4.043  18.876  0.00  0.00    +0.000 OA
BRANCH  22  28
ATOM     23  C   UNL     1       1.598   2.833  21.421  0.00  0.00    +0.000 C 
ATOM     24  C   UNL     1       2.362   2.797  20.131  0.00  0.00    +0.000 A 
ATOM     25  C   UNL     1       1.830   2.159  19.007  0.00  0.00    +0.000 A 
ATOM     26  C   UNL     1       2.541   2.139  17.808  0.00  0.00    +0.000 A 
ATOM     27  C   UNL     1       3.790   2.758  17.720  0.00  0.00    +0.000 A 
ATOM     28  C   UNL     1       4.337   3.399  18.834  0.00  0.00    +0.000 A 
ATOM     29  C   UNL     1       3.619   3.411  20.035  0.00  0.00    +0.000 A 
ENDBRANCH  22  28
ENDBRANCH  21  22
ENDBRANCH  18  21
ENDBRANCH  17  18
ENDBRANCH   1  17
TORSDOF 7
ENDMDL
MODEL 2
REMARK VINA RESULT:      -7.8      0.814      1.561
REMARK  Name = 
REMARK  9 active torsions:
REMARK  status: ('A' for Active; 'I' for Inactive)
REMARK    1  A    between atoms: C_1  and  C_2
REMARK    2  A    between atoms: C_6  and  O_7
REMARK    3  A    between atoms: O_7  and  C_8
REMARK    4  A    between atoms: C_8  and  C_9
REMARK    5  A    between atoms: C_9  and  O_10
REMARK    6  A    between atoms: C_9  and  C_11
REMARK    7  A    between atoms: C_11  and  N_12
REMARK    8  A    between atoms: C_13  and  C_15
REMARK    9  A    between atoms: N_24  and  C_25
REMARK                            x       y       z     vdW  Elec       q    Type
REMARK                         _______ _______ _______ _____ _____    ______ ____
ROOT
ATOM      1  N   UNL     1       3.992   7.418  17.584  0.00  0.00    +0.000 N 
ATOM      2  C   UNL     1       2.807   6.938  18.096  0.00  0.00    +0.000 C 
ATOM      3  O   UNL     1       2.377   5.815  17.866  0.00  0.00    +0.000 OA
ATOM      4  H   UNL     1       4.081   8.420  17.466  0.00  0.00    +0.000 HD
ENDROOT
BRANCH   2   5
ATOM      5  C   UNL     1       2.019   7.876  18.947  0.00  0.00    +0.000 A 
ATOM      6  C   UNL     1       1.813   7.498  20.301  0.00  0.00    +0.000 A 
ATOM      7  C   UNL     1       1.093   8.301  21.170  0.00  0.00    +0.000 A 
ATOM      8  C   UNL     1       0.665   9.514  20.685  0.00  0.00    +0.000 A 
ATOM      9  C   UNL     1       0.899   9.931  19.377  0.00  0.00    +0.000 A 
ATOM     10  C   UNL     1       1.561   9.121  18.472  0.00  0.00    +0.000 A 
ATOM     11  N   UNL     1       0.392  11.224  19.258  0.00  0.00    +0.000 N 
ATOM     12  C   UNL     1      -0.173  11.622  20.503  0.00  0.00    +0.000 A 
ATOM     13  O   UNL     1      -0.682  12.696  20.752  0.00  0.00    +0.000 OA
ATOM     14  N   UNL     1      -0.005  10.520  21.375  0.00  0.00    +0.000 N 
ATOM     15  C   UNL     1      -0.363  10.363  22.756  0.00  0.00    +0.000 C 
ATOM     16  H   UNL     1       0.446  11.829  18.452  0.00  0.00    +0.000 HD
ENDBRANCH   2   5
BRANCH   1  17
ATOM     17  C   UNL     1       4.863   6.591  16.757  0.00  0.00    +0.000 C 
BRANCH  17  18
ATOM     18  C   UNL     1       6.098   6.092  17.528  0.00  0.00    +0.000 C 
BRANCH  18  19
ATOM     19  O   UNL     1       7.280   6.621  16.903  0.00  0.00    +0.000 OA
ATOM     20  H   UNL     1       8.044   6.391  17.456  0.00  0.00    +0.000 HD
ENDBRANCH  18  19
BRANCH  18  21
ATOM     21  C   UNL     1       6.105   4.553  17.547  0.00  0.00    +0.000 C 
BRANCH  21  22
ATOM     22  O   UNL     1       5.647   4.067  18.812  0.00  0.00    +0.000 OA
BRANCH  22  28
ATOM     23  C   UNL     1       1.768   2.902  21.482  0.00  0.00    +0.000 C 
ATOM     24  C   UNL     1       2.499   2.839  20.174  0.00  0.00    +0.000 A 
ATOM     25  C   UNL     1       1.941   2.175  19.078  0.00  0.00    +0.000 A 
ATOM     26  C   UNL     1       2.622   2.131  17.863  0.00  0.00    +0.000 A 
ATOM     27  C   UNL     1       3.866   2.752  17.730  0.00  0.00    +0.000 A 
ATOM     28  C   UNL     1       4.439   3.419  18.815  0.00  0.00    +0.000 A 
ATOM     29  C   UNL     1       3.751   3.456  20.032  0.00  0.00    +0.000 A 
ENDBRANCH  22  28
ENDBRANCH  21  22
ENDBRANCH  18  21
ENDBRANCH  17  18
ENDBRANCH   1  17
TORSDOF 7
ENDMDL
MODEL 3
REMARK VINA RESULT:      -7.8      5.222      6.790
REMARK  Name = 
REMARK  9 active torsions:
REMARK  status: ('A' for Active; 'I' for Inactive)
REMARK    1  A    between atoms: C_1  and  C_2
REMARK    2  A    between atoms: C_6  and  O_7
REMARK    3  A    between atoms: O_7  and  C_8
REMARK    4  A    between atoms: C_8  and  C_9
REMARK    5  A    between atoms: C_9  and  O_10
REMARK    6  A    between atoms: C_9  and  C_11
REMARK    7  A    between atoms: C_11  and  N_12
REMARK    8  A    between atoms: C_13  and  C_15
REMARK    9  A    between atoms: N_24  and  C_25
REMARK                            x       y       z     vdW  Elec       q    Type
REMARK                         _______ _______ _______ _____ _____    ______ ____
ROOT
ATOM      1  N   UNL     1       8.481   7.498  18.795  0.00  0.00    +0.000 N 
ATOM      2  C   UNL     1       8.108   8.537  17.971  0.00  0.00    +0.000 C 
ATOM      3  O   UNL     1       7.456   8.386  16.946  0.00  0.00    +0.000 OA
ATOM      4  H   UNL     1       9.317   7.618  19.353  0.00  0.00    +0.000 HD
ENDROOT
BRANCH   2   5
ATOM      5  C   UNL     1       8.568   9.899  18.367  0.00  0.00    +0.000 A 
ATOM      6  C   UNL     1       9.308  10.003  19.576  0.00  0.00    +0.000 A 
ATOM      7  C   UNL     1       9.778  11.225  20.029  0.00  0.00    +0.000 A 
ATOM      8  C   UNL     1       9.569  12.312  19.214  0.00  0.00    +0.000 A 
ATOM      9  C   UNL     1       8.891  12.228  18.000  0.00  0.00    +0.000 A 
ATOM     10  C   UNL     1       8.360  11.032  17.555  0.00  0.00    +0.000 A 
ATOM     11  N   UNL     1       8.930  13.494  17.417  0.00  0.00    +0.000 N 
ATOM     12  C   UNL     1       9.632  14.384  18.277  0.00  0.00    +0.000 A 
ATOM     13  O   UNL     1       9.865  15.557  18.064  0.00  0.00    +0.000 OA
ATOM     14  N   UNL     1      10.004  13.620  19.408  0.00  0.00    +0.000 N 
ATOM     15  C   UNL     1      10.746  13.989  20.580  0.00  0.00    +0.000 C 
ATOM     16  H   UNL     1       8.574  13.759  16.511  0.00  0.00    +0.000 HD
ENDBRANCH   2   5
BRANCH   1  17
ATOM     17  C   UNL     1       8.075   6.123  18.529  0.00  0.00    +0.000 C 
BRANCH  17  18
ATOM     18  C   UNL     1       6.755   5.758  19.232  0.00  0.00    +0.000 C 
BRANCH  18  19
ATOM     19  O   UNL     1       7.056   5.009  20.422  0.00  0.00    +0.000 OA
ATOM     20  H   UNL     1       7.651   4.280  20.180  0.00  0.00    +0.000 HD
ENDBRANCH  18  19
BRANCH  18  21
ATOM     21  C   UNL     1       5.864   4.957  18.266  0.00  0.00    +0.000 C 
BRANCH  21  22
ATOM     22  O   UNL     1       5.316   3.812  18.926  0.00  0.00    +0.000 OA
BRANCH  22  28
ATOM     23  C   UNL     1       1.397   2.660  21.542  0.00  0.00    +0.000 C 
ATOM     24  C   UNL     1       1.992   3.108  20.241  0.00  0.00    +0.000 A 
ATOM     25  C   UNL     1       1.175   3.384  19.142  0.00  0.00    +0.000 A 
ATOM     26  C   UNL     1       1.735   3.811  17.939  0.00  0.00    +0.000 A 
ATOM     27  C   UNL     1       3.118   3.968  17.823  0.00  0.00    +0.000 A 
ATOM     28  C   UNL     1       3.951   3.695  18.911  0.00  0.00    +0.000 A 
ATOM     29  C   UNL     1       3.381   3.264  20.114  0.00  0.00    +0.000 A 
ENDBRANCH  22  28
ENDBRANCH  21  22
ENDBRANCH  18  21
ENDBRANCH  17  18
ENDBRANCH   1  17
TORSDOF 7
ENDMDL
MODEL 4
REMARK VINA RESULT:      -7.7      1.704      2.517
REMARK  Name = 
REMARK  9 active torsions:
REMARK  status: ('A' for Active; 'I' for Inactive)
REMARK    1  A    between atoms: C_1  and  C_2
REMARK    2  A    between atoms: C_6  and  O_7
REMARK    3  A    between atoms: O_7  and  C_8
REMARK    4  A    between atoms: C_8  and  C_9
REMARK    5  A    between atoms: C_9  and  O_10
REMARK    6  A    between atoms: C_9  and  C_11
REMARK    7  A    between atoms: C_11  and  N_12
REMARK    8  A    between atoms: C_13  and  C_15
REMARK    9  A    between atoms: N_24  and  C_25
REMARK                            x       y       z     vdW  Elec       q    Type
REMARK                         _______ _______ _______ _____ _____    ______ ____
ROOT
ATOM      1  N   UNL     1       5.427   5.829  17.771  0.00  0.00    +0.000 N 
ATOM      2  C   UNL     1       4.642   6.748  17.111  0.00  0.00    +0.000 C 
ATOM      3  O   UNL     1       4.842   7.103  15.957  0.00  0.00    +0.000 OA
ATOM      4  H   UNL     1       5.471   5.889  18.781  0.00  0.00    +0.000 HD
ENDROOT
BRANCH   2   5
ATOM      5  C   UNL     1       3.516   7.343  17.887  0.00  0.00    +0.000 A 
ATOM      6  C   UNL     1       3.206   6.740  19.136  0.00  0.00    +0.000 A 
ATOM      7  C   UNL     1       2.176   7.218  19.930  0.00  0.00    +0.000 A 
ATOM      8  C   UNL     1       1.530   8.350  19.494  0.00  0.00    +0.000 A 
ATOM      9  C   UNL     1       1.849   8.990  18.298  0.00  0.00    +0.000 A 
ATOM     10  C   UNL     1       2.830   8.497  17.459  0.00  0.00    +0.000 A 
ATOM     11  N   UNL     1       1.050  10.130  18.214  0.00  0.00    +0.000 N 
ATOM     12  C   UNL     1       0.215  10.202  19.365  0.00  0.00    +0.000 A 
ATOM     13  O   UNL     1      -0.586  11.079  19.618  0.00  0.00    +0.000 OA
ATOM     14  N   UNL     1       0.524   9.061  20.141  0.00  0.00    +0.000 N 
ATOM     15  C   UNL     1       0.008   8.630  21.410  0.00  0.00    +0.000 C 
ATOM     16  H   UNL     1       1.071  10.837  17.495  0.00  0.00    +0.000 HD
ENDBRANCH   2   5
BRANCH   1  17
ATOM     17  C   UNL     1       6.544   5.160  17.115  0.00  0.00    +0.000 C 
BRANCH  17  18
ATOM     18  C   UNL     1       6.076   4.084  16.119  0.00  0.00    +0.000 C 
BRANCH  18  19
ATOM     19  O   UNL     1       6.212   4.599  14.783  0.00  0.00    +0.000 OA
ATOM     20  H   UNL     1       5.873   5.509  14.773  0.00  0.00    +0.000 HD
ENDBRANCH  18  19
BRANCH  18  21
ATOM     21  C   UNL     1       4.622   3.691  16.433  0.00  0.00    +0.000 C 
BRANCH  21  22
ATOM     22  O   UNL     1       4.523   3.158  17.756  0.00  0.00    +0.000 OA
BRANCH  22  28
ATOM     23  C   UNL     1       2.106   2.826  21.949  0.00  0.00    +0.000 C 
ATOM     24  C   UNL     1       2.091   3.049  20.466  0.00  0.00    +0.000 A 
ATOM     25  C   UNL     1       0.892   3.314  19.799  0.00  0.00    +0.000 A 
ATOM     26  C   UNL     1       0.888   3.531  18.422  0.00  0.00    +0.000 A 
ATOM     27  C   UNL     1       2.082   3.488  17.699  0.00  0.00    +0.000 A 
ATOM     28  C   UNL     1       3.289   3.224  18.349  0.00  0.00    +0.000 A 
ATOM     29  C   UNL     1       3.284   3.003  19.731  0.00  0.00    +0.000 A 
ENDBRANCH  22  28
ENDBRANCH  21  22
ENDBRANCH  18  21
ENDBRANCH  17  18
ENDBRANCH   1  17
TORSDOF 7
ENDMDL
MODEL 5
REMARK VINA RESULT:      -7.7      1.405      1.615
REMARK  Name = 
REMARK  9 active torsions:
REMARK  status: ('A' for Active; 'I' for Inactive)
REMARK    1  A    between atoms: C_1  and  C_2
REMARK    2  A    between atoms: C_6  and  O_7
REMARK    3  A    between atoms: O_7  and  C_8
REMARK    4  A    between atoms: C_8  and  C_9
REMARK    5  A    between atoms: C_9  and  O_10
REMARK    6  A    between atoms: C_9  and  C_11
REMARK    7  A    between atoms: C_11  and  N_12
REMARK    8  A    between atoms: C_13  and  C_15
REMARK    9  A    between atoms: N_24  and  C_25
REMARK                            x       y       z     vdW  Elec       q    Type
REMARK                         _______ _______ _______ _____ _____    ______ ____
ROOT
ATOM      1  N   UNL     1       5.639   6.790  17.899  0.00  0.00    +0.000 N 
ATOM      2  C   UNL     1       4.406   6.922  17.302  0.00  0.00    +0.000 C 
ATOM      3  O   UNL     1       4.161   6.541  16.164  0.00  0.00    +0.000 OA
ATOM      4  H   UNL     1       5.885   7.456  18.622  0.00  0.00    +0.000 HD
ENDROOT
BRANCH   2   5
ATOM      5  C   UNL     1       3.345   7.599  18.104  0.00  0.00    +0.000 A 
ATOM      6  C   UNL     1       2.673   8.691  17.491  0.00  0.00    +0.000 A 
ATOM      7  C   UNL     1       1.675   9.385  18.155  0.00  0.00    +0.000 A 
ATOM      8  C   UNL     1       1.309   8.914  19.394  0.00  0.00    +0.000 A 
ATOM      9  C   UNL     1       1.918   7.815  19.995  0.00  0.00    +0.000 A 
ATOM     10  C   UNL     1       2.957   7.143  19.380  0.00  0.00    +0.000 A 
ATOM     11  N   UNL     1       1.253   7.582  21.199  0.00  0.00    +0.000 N 
ATOM     12  C   UNL     1       0.222   8.550  21.359  0.00  0.00    +0.000 A 
ATOM     13  O   UNL     1      -0.559   8.623  22.286  0.00  0.00    +0.000 OA
ATOM     14  N   UNL     1       0.294   9.386  20.220  0.00  0.00    +0.000 N 
ATOM     15  C   UNL     1      -0.511  10.512  19.839  0.00  0.00    +0.000 C 
ATOM     16  H   UNL     1       1.416   6.828  21.849  0.00  0.00    +0.000 HD
ENDBRANCH   2   5
BRANCH   1  17
ATOM     17  C   UNL     1       6.751   6.127  17.228  0.00  0.00    +0.000 C 
BRANCH  17  18
ATOM     18  C   UNL     1       7.046   4.738  17.820  0.00  0.00    +0.000 C 
BRANCH  18  19
ATOM     19  O   UNL     1       8.124   4.139  17.081  0.00  0.00    +0.000 OA
ATOM     20  H   UNL     1       8.131   4.522  16.190  0.00  0.00    +0.000 HD
ENDBRANCH  18  19
BRANCH  18  21
ATOM     21  C   UNL     1       5.772   3.876  17.766  0.00  0.00    +0.000 C 
BRANCH  21  22
ATOM     22  O   UNL     1       5.144   3.833  19.051  0.00  0.00    +0.000 OA
BRANCH  22  28
ATOM     23  C   UNL     1       1.335   2.643  21.809  0.00  0.00    +0.000 C 
ATOM     24  C   UNL     1       1.890   3.002  20.463  0.00  0.00    +0.000 A 
ATOM     25  C   UNL     1       1.051   3.097  19.349  0.00  0.00    +0.000 A 
ATOM     26  C   UNL     1       1.574   3.441  18.103  0.00  0.00    +0.000 A 
ATOM     27  C   UNL     1       2.939   3.696  17.959  0.00  0.00    +0.000 A 
ATOM     28  C   UNL     1       3.792   3.605  19.061  0.00  0.00    +0.000 A 
ATOM     29  C   UNL     1       3.261   3.255  20.307  0.00  0.00    +0.000 A 
ENDBRANCH  22  28
ENDBRANCH  21  22
ENDBRANCH  18  21
ENDBRANCH  17  18
ENDBRANCH   1  17
TORSDOF 7
ENDMDL
MODEL 6
REMARK VINA RESULT:      -7.7      0.891      1.542
REMARK  Name = 
REMARK  9 active torsions:
REMARK  status: ('A' for Active; 'I' for Inactive)
REMARK    1  A    between atoms: C_1  and  C_2
REMARK    2  A    between atoms: C_6  and  O_7
REMARK    3  A    between atoms: O_7  and  C_8
REMARK    4  A    between atoms: C_8  and  C_9
REMARK    5  A    between atoms: C_9  and  O_10
REMARK    6  A    between atoms: C_9  and  C_11
REMARK    7  A    between atoms: C_11  and  N_12
REMARK    8  A    between atoms: C_13  and  C_15
REMARK    9  A    between atoms: N_24  and  C_25
REMARK                            x       y       z     vdW  Elec       q    Type
REMARK                         _______ _______ _______ _____ _____    ______ ____
ROOT
ATOM      1  N   UNL     1       4.088   6.775  17.695  0.00  0.00    +0.000 N 
ATOM      2  C   UNL     1       2.755   6.655  18.020  0.00  0.00    +0.000 C 
ATOM      3  O   UNL     1       2.058   5.709  17.676  0.00  0.00    +0.000 OA
ATOM      4  H   UNL     1       4.476   7.708  17.642  0.00  0.00    +0.000 HD
ENDROOT
BRANCH   2   5
ATOM      5  C   UNL     1       2.157   7.773  18.806  0.00  0.00    +0.000 A 
ATOM      6  C   UNL     1       1.798   8.945  18.088  0.00  0.00    +0.000 A 
ATOM      7  C   UNL     1       1.238  10.038  18.729  0.00  0.00    +0.000 A 
ATOM      8  C   UNL     1       0.969   9.901  20.070  0.00  0.00    +0.000 A 
ATOM      9  C   UNL     1       1.265   8.744  20.787  0.00  0.00    +0.000 A 
ATOM     10  C   UNL     1       1.880   7.662  20.183  0.00  0.00    +0.000 A 
ATOM     11  N   UNL     1       0.795   8.931  22.086  0.00  0.00    +0.000 N 
ATOM     12  C   UNL     1       0.206  10.222  22.189  0.00  0.00    +0.000 A 
ATOM     13  O   UNL     1      -0.317  10.698  23.176  0.00  0.00    +0.000 OA
ATOM     14  N   UNL     1       0.348  10.817  20.914  0.00  0.00    +0.000 N 
ATOM     15  C   UNL     1      -0.080  12.100  20.431  0.00  0.00    +0.000 C 
ATOM     16  H   UNL     1       0.807   8.262  22.841  0.00  0.00    +0.000 HD
ENDBRANCH   2   5
BRANCH   1  17
ATOM     17  C   UNL     1       4.793   5.739  16.949  0.00  0.00    +0.000 C 
BRANCH  17  18
ATOM     18  C   UNL     1       6.010   5.193  17.716  0.00  0.00    +0.000 C 
BRANCH  18  19
ATOM     19  O   UNL     1       6.438   3.969  17.094  0.00  0.00    +0.000 OA
ATOM     20  H   UNL     1       6.095   3.227  17.618  0.00  0.00    +0.000 HD
ENDBRANCH  18  19
BRANCH  18  21
ATOM     21  C   UNL     1       5.632   4.979  19.193  0.00  0.00    +0.000 C 
BRANCH  21  22
ATOM     22  O   UNL     1       5.069   3.677  19.380  0.00  0.00    +0.000 OA
BRANCH  22  28
ATOM     23  C   UNL     1       0.680   1.804  18.509  0.00  0.00    +0.000 C 
ATOM     24  C   UNL     1       1.564   2.684  19.342  0.00  0.00    +0.000 A 
ATOM     25  C   UNL     1       1.052   3.365  20.449  0.00  0.00    +0.000 A 
ATOM     26  C   UNL     1       1.883   4.172  21.224  0.00  0.00    +0.000 A 
ATOM     27  C   UNL     1       3.235   4.305  20.902  0.00  0.00    +0.000 A 
ATOM     28  C   UNL     1       3.764   3.632  19.798  0.00  0.00    +0.000 A 
ATOM     29  C   UNL     1       2.923   2.827  19.023  0.00  0.00    +0.000 A 
ENDBRANCH  22  28
ENDBRANCH  21  22
ENDBRANCH  18  21
ENDBRANCH  17  18
ENDBRANCH   1  17
TORSDOF 7
ENDMDL
MODEL 7
REMARK VINA RESULT:      -7.6      1.400      1.970
REMARK  Name = 
REMARK  9 active torsions:
REMARK  status: ('A' for Active; 'I' for Inactive)
REMARK    1  A    between atoms: C_1  and  C_2
REMARK    2  A    between atoms: C_6  and  O_7
REMARK    3  A    between atoms: O_7  and  C_8
REMARK    4  A    between atoms: C_8  and  C_9
REMARK    5  A    between atoms: C_9  and  O_10
REMARK    6  A    between atoms: C_9  and  C_11
REMARK    7  A    between atoms: C_11  and  N_12
REMARK    8  A    between atoms: C_13  and  C_15
REMARK    9  A    between atoms: N_24  and  C_25
REMARK                            x       y       z     vdW  Elec       q    Type
REMARK                         _______ _______ _______ _____ _____    ______ ____
ROOT
ATOM      1  N   UNL     1       4.861   6.800  17.905  0.00  0.00    +0.000 N 
ATOM      2  C   UNL     1       3.787   7.443  17.330  0.00  0.00    +0.000 C 
ATOM      3  O   UNL     1       3.675   7.627  16.125  0.00  0.00    +0.000 OA
ATOM      4  H   UNL     1       5.093   7.037  18.862  0.00  0.00    +0.000 HD
ENDROOT
BRANCH   2   5
ATOM      5  C   UNL     1       2.740   7.956  18.262  0.00  0.00    +0.000 A 
ATOM      6  C   UNL     1       2.563   7.250  19.482  0.00  0.00    +0.000 A 
ATOM      7  C   UNL     1       1.616   7.646  20.411  0.00  0.00    +0.000 A 
ATOM      8  C   UNL     1       0.919   8.799  20.136  0.00  0.00    +0.000 A 
ATOM      9  C   UNL     1       1.110   9.538  18.970  0.00  0.00    +0.000 A 
ATOM     10  C   UNL     1       2.006   9.129  17.999  0.00  0.00    +0.000 A 
ATOM     11  N   UNL     1       0.298  10.667  19.059  0.00  0.00    +0.000 N 
ATOM     12  C   UNL     1      -0.417  10.634  20.290  0.00  0.00    +0.000 A 
ATOM     13  O   UNL     1      -1.196  11.474  20.692  0.00  0.00    +0.000 OA
ATOM     14  N   UNL     1      -0.022   9.439  20.936  0.00  0.00    +0.000 N 
ATOM     15  C   UNL     1      -0.403   8.900  22.211  0.00  0.00    +0.000 C 
ATOM     16  H   UNL     1       0.240  11.430  18.402  0.00  0.00    +0.000 HD
ENDBRANCH   2   5
BRANCH   1  17
ATOM     17  C   UNL     1       5.938   6.235  17.101  0.00  0.00    +0.000 C 
BRANCH  17  18
ATOM     18  C   UNL     1       6.760   5.192  17.879  0.00  0.00    +0.000 C 
BRANCH  18  19
ATOM     19  O   UNL     1       7.021   4.071  17.016  0.00  0.00    +0.000 OA
ATOM     20  H   UNL     1       7.799   4.280  16.475  0.00  0.00    +0.000 HD
ENDBRANCH  18  19
BRANCH  18  21
ATOM     21  C   UNL     1       5.990   4.769  19.143  0.00  0.00    +0.000 C 
BRANCH  21  22
ATOM     22  O   UNL     1       5.331   3.518  18.930  0.00  0.00    +0.000 OA
BRANCH  22  28
ATOM     23  C   UNL     1       1.330   2.811  21.581  0.00  0.00    +0.000 C 
ATOM     24  C   UNL     1       1.960   3.180  20.272  0.00  0.00    +0.000 A 
ATOM     25  C   UNL     1       1.169   3.530  19.174  0.00  0.00    +0.000 A 
ATOM     26  C   UNL     1       1.763   3.883  17.963  0.00  0.00    +0.000 A 
ATOM     27  C   UNL     1       3.153   3.893  17.838  0.00  0.00    +0.000 A 
ATOM     28  C   UNL     1       3.960   3.545  18.924  0.00  0.00    +0.000 A 
ATOM     29  C   UNL     1       3.356   3.188  20.135  0.00  0.00    +0.000 A 
ENDBRANCH  22  28
ENDBRANCH  21  22
ENDBRANCH  18  21
ENDBRANCH  17  18
ENDBRANCH   1  17
TORSDOF 7
ENDMDL
MODEL 8
REMARK VINA RESULT:      -7.6      5.427      7.041
REMARK  Name = 
REMARK  9 active torsions:
REMARK  status: ('A' for Active; 'I' for Inactive)
REMARK    1  A    between atoms: C_1  and  C_2
REMARK    2  A    between atoms: C_6  and  O_7
REMARK    3  A    between atoms: O_7  and  C_8
REMARK    4  A    between atoms: C_8  and  C_9
REMARK    5  A    between atoms: C_9  and  O_10
REMARK    6  A    between atoms: C_9  and  C_11
REMARK    7  A    between atoms: C_11  and  N_12
REMARK    8  A    between atoms: C_13  and  C_15
REMARK    9  A    between atoms: N_24  and  C_25
REMARK                            x       y       z     vdW  Elec       q    Type
REMARK                         _______ _______ _______ _____ _____    ______ ____
ROOT
ATOM      1  N   UNL     1       8.571   7.699  18.834  0.00  0.00    +0.000 N 
ATOM      2  C   UNL     1       8.138   8.733  18.034  0.00  0.00    +0.000 C 
ATOM      3  O   UNL     1       7.413   8.576  17.060  0.00  0.00    +0.000 OA
ATOM      4  H   UNL     1       9.446   7.823  19.329  0.00  0.00    +0.000 HD
ENDROOT
BRANCH   2   5
ATOM      5  C   UNL     1       8.625  10.098  18.386  0.00  0.00    +0.000 A 
ATOM      6  C   UNL     1       9.446  10.210  19.541  0.00  0.00    +0.000 A 
ATOM      7  C   UNL     1       9.946  11.435  19.952  0.00  0.00    +0.000 A 
ATOM      8  C   UNL     1       9.683  12.516  19.144  0.00  0.00    +0.000 A 
ATOM      9  C   UNL     1       8.924  12.423  17.980  0.00  0.00    +0.000 A 
ATOM     10  C   UNL     1       8.363  11.224  17.581  0.00  0.00    +0.000 A 
ATOM     11  N   UNL     1       8.924  13.685  17.385  0.00  0.00    +0.000 N 
ATOM     12  C   UNL     1       9.684  14.580  18.189  0.00  0.00    +0.000 A 
ATOM     13  O   UNL     1       9.903  15.751  17.952  0.00  0.00    +0.000 OA
ATOM     14  N   UNL     1      10.131  13.824  19.297  0.00  0.00    +0.000 N 
ATOM     15  C   UNL     1      10.952  14.202  20.413  0.00  0.00    +0.000 C 
ATOM     16  H   UNL     1       8.508  13.943  16.504  0.00  0.00    +0.000 HD
ENDBRANCH   2   5
BRANCH   1  17
ATOM     17  C   UNL     1       8.147   6.322  18.607  0.00  0.00    +0.000 C 
BRANCH  17  18
ATOM     18  C   UNL     1       7.266   5.787  19.749  0.00  0.00    +0.000 C 
BRANCH  18  19
ATOM     19  O   UNL     1       8.109   5.161  20.731  0.00  0.00    +0.000 OA
ATOM     20  H   UNL     1       8.441   5.849  21.330  0.00  0.00    +0.000 HD
ENDBRANCH  18  19
BRANCH  18  21
ATOM     21  C   UNL     1       6.228   4.803  19.180  0.00  0.00    +0.000 C 
BRANCH  21  22
ATOM     22  O   UNL     1       5.474   5.423  18.135  0.00  0.00    +0.000 OA
BRANCH  22  28
ATOM     23  C   UNL     1       2.298   1.757  18.142  0.00  0.00    +0.000 C 
ATOM     24  C   UNL     1       2.566   3.230  18.060  0.00  0.00    +0.000 A 
ATOM     25  C   UNL     1       1.513   4.139  17.931  0.00  0.00    +0.000 A 
ATOM     26  C   UNL     1       1.770   5.508  17.866  0.00  0.00    +0.000 A 
ATOM     27  C   UNL     1       3.083   5.981  17.931  0.00  0.00    +0.000 A 
ATOM     28  C   UNL     1       4.148   5.086  18.058  0.00  0.00    +0.000 A 
ATOM     29  C   UNL     1       3.881   3.714  18.119  0.00  0.00    +0.000 A 
ENDBRANCH  22  28
ENDBRANCH  21  22
ENDBRANCH  18  21
ENDBRANCH  17  18
ENDBRANCH   1  17
TORSDOF 7
ENDMDL
MODEL 9
REMARK VINA RESULT:      -7.5      1.981      3.888
REMARK  Name = 
REMARK  9 active torsions:
REMARK  status: ('A' for Active; 'I' for Inactive)
REMARK    1  A    between atoms: C_1  and  C_2
REMARK    2  A    between atoms: C_6  and  O_7
REMARK    3  A    between atoms: O_7  and  C_8
REMARK    4  A    between atoms: C_8  and  C_9
REMARK    5  A    between atoms: C_9  and  O_10
REMARK    6  A    between atoms: C_9  and  C_11
REMARK    7  A    between atoms: C_11  and  N_12
REMARK    8  A    between atoms: C_13  and  C_15
REMARK    9  A    between atoms: N_24  and  C_25
REMARK                            x       y       z     vdW  Elec       q    Type
REMARK                         _______ _______ _______ _____ _____    ______ ____
ROOT
ATOM      1  N   UNL     1       1.748   6.050  20.915  0.00  0.00    +0.000 N 
ATOM      2  C   UNL     1       1.996   7.126  20.093  0.00  0.00    +0.000 C 
ATOM      3  O   UNL     1       2.750   7.082  19.129  0.00  0.00    +0.000 OA
ATOM      4  H   UNL     1       1.475   6.241  21.871  0.00  0.00    +0.000 HD
ENDROOT
BRANCH   2   5
ATOM      5  C   UNL     1       1.316   8.406  20.448  0.00  0.00    +0.000 A 
ATOM      6  C   UNL     1       1.161   9.362  19.408  0.00  0.00    +0.000 A 
ATOM      7  C   UNL     1       0.544  10.581  19.637  0.00  0.00    +0.000 A 
ATOM      8  C   UNL     1       0.017  10.784  20.890  0.00  0.00    +0.000 A 
ATOM      9  C   UNL     1       0.110   9.842  21.912  0.00  0.00    +0.000 A 
ATOM     10  C   UNL     1       0.774   8.644  21.727  0.00  0.00    +0.000 A 
ATOM     11  N   UNL     1      -0.589  10.349  23.007  0.00  0.00    +0.000 N 
ATOM     12  C   UNL     1      -1.122  11.626  22.671  0.00  0.00    +0.000 A 
ATOM     13  O   UNL     1      -1.800  12.334  23.387  0.00  0.00    +0.000 OA
ATOM     14  N   UNL     1      -0.708  11.882  21.343  0.00  0.00    +0.000 N 
ATOM     15  C   UNL     1      -0.970  13.004  20.485  0.00  0.00    +0.000 C 
ATOM     16  H   UNL     1      -0.756   9.890  23.889  0.00  0.00    +0.000 HD
ENDBRANCH   2   5
BRANCH   1  17
ATOM     17  C   UNL     1       2.335   4.739  20.662  0.00  0.00    +0.000 C 
BRANCH  17  18
ATOM     18  C   UNL     1       1.575   3.959  19.573  0.00  0.00    +0.000 C 
BRANCH  18  19
ATOM     19  O   UNL     1       0.645   3.066  20.208  0.00  0.00    +0.000 OA
ATOM     20  H   UNL     1       1.147   2.334  20.602  0.00  0.00    +0.000 HD
ENDBRANCH  18  19
BRANCH  18  21
ATOM     21  C   UNL     1       2.580   3.200  18.689  0.00  0.00    +0.000 C 
BRANCH  21  22
ATOM     22  O   UNL     1       2.976   4.008  17.577  0.00  0.00    +0.000 OA
BRANCH  22  28
ATOM     23  C   UNL     1       6.621   4.284  14.388  0.00  0.00    +0.000 C 
ATOM     24  C   UNL     1       6.142   4.350  15.808  0.00  0.00    +0.000 A 
ATOM     25  C   UNL     1       7.034   4.623  16.848  0.00  0.00    +0.000 A 
ATOM     26  C   UNL     1       6.579   4.693  18.164  0.00  0.00    +0.000 A 
ATOM     27  C   UNL     1       5.228   4.494  18.453  0.00  0.00    +0.000 A 
ATOM     28  C   UNL     1       4.322   4.219  17.425  0.00  0.00    +0.000 A 
ATOM     29  C   UNL     1       4.787   4.146  16.108  0.00  0.00    +0.000 A 
ENDBRANCH  22  28
ENDBRANCH  21  22
ENDBRANCH  18  21
ENDBRANCH  17  18
ENDBRANCH   1  17
TORSDOF 7
ENDMDL
