MODEL 1
REMARK VINA RESULT:      -8.8      0.000      0.000
REMARK  Name = 
REMARK  7 active torsions:
REMARK  status: ('A' for Active; 'I' for Inactive)
REMARK    1  A    between atoms: C_1  and  N_2
REMARK    2  A    between atoms: C_6  and  C_7
REMARK    3  A    between atoms: C_7  and  C_8
REMARK    4  A    between atoms: C_8  and  C_9
REMARK    5  A    between atoms: C_13  and  C_14
REMARK    6  A    between atoms: C_14  and  C_15
REMARK    7  A    between atoms: C_16  and  O_17
REMARK                            x       y       z     vdW  Elec       q    Type
REMARK                         _______ _______ _______ _____ _____    ______ ____
ROOT
ATOM      1  C   UNL     1       3.626   6.298  18.319  0.00  0.00    +0.000 A 
ATOM      2  C   UNL     1       3.189   5.934  19.607  0.00  0.00    +0.000 A 
ATOM      3  C   UNL     1       2.246   6.692  20.296  0.00  0.00    +0.000 A 
ATOM      4  C   UNL     1       1.730   7.857  19.724  0.00  0.00    +0.000 A 
ATOM      5  C   UNL     1       2.138   8.288  18.451  0.00  0.00    +0.000 A 
ATOM      6  C   UNL     1       3.068   7.491  17.765  0.00  0.00    +0.000 A 
ENDROOT
BRANCH   1   7
ATOM      7  C   UNL     1       4.748   5.412  17.556  0.00  0.00    +0.000 C 
ATOM      8  C   UNL     1       5.677   6.192  16.579  0.00  0.00    +0.000 C 
ATOM      9  O   UNL     1       6.866   5.805  17.292  0.00  0.00    +0.000 OA
ATOM     10  C   UNL     1       6.086   5.144  18.311  0.00  0.00    +0.000 C 
BRANCH   7  11
ATOM     11  C   UNL     1       4.134   4.191  16.844  0.00  0.00    +0.000 C 
BRANCH  11  17
ATOM     12  C   UNL     1       4.217   2.221  19.340  0.00  0.00    +0.000 C 
ATOM     13  N   UNL     1       3.055   2.704  18.647  0.00  0.00    +0.000 N 
ATOM     14  C   UNL     1       1.770   2.507  19.041  0.00  0.00    +0.000 A 
ATOM     15  N   UNL     1       0.954   3.067  18.185  0.00  0.00    +0.000 NA
ATOM     16  N   UNL     1       1.721   3.674  17.220  0.00  0.00    +0.000 NA
ATOM     17  C   UNL     1       2.995   3.480  17.519  0.00  0.00    +0.000 A 
ENDBRANCH  11  17
ENDBRANCH   7  11
ENDBRANCH   1   7
BRANCH   5  18
ATOM     18  C   UNL     1       1.647   9.665  17.978  0.00  0.00    +0.000 C 
BRANCH  18  19
ATOM     19  C   UNL     1       0.470  10.385  18.673  0.00  0.00    +0.000 C 
ATOM     20  C   UNL     1      -0.813  10.367  18.208  0.00  0.00    +0.000 C 
ATOM     21  C   UNL     1      -2.016  11.175  18.691  0.00  0.00    +0.000 A 
ATOM     22  C   UNL     1      -3.235  11.141  17.962  0.00  0.00    +0.000 A 
ATOM     23  C   UNL     1      -4.397  11.831  18.373  0.00  0.00    +0.000 A 
ATOM     24  C   UNL     1      -4.399  12.573  19.542  0.00  0.00    +0.000 A 
ATOM     25  C   UNL     1      -3.221  12.669  20.263  0.00  0.00    +0.000 A 
ATOM     26  C   UNL     1      -2.045  12.028  19.820  0.00  0.00    +0.000 A 
ATOM     27  O   UNL     1      -0.971  12.402  20.583  0.00  0.00    +0.000 OA
ATOM     28  C   UNL     1       0.199  12.596  19.803  0.00  0.00    +0.000 C 
ATOM     29  C   UNL     1       0.936  11.277  19.794  0.00  0.00    +0.000 C 
BRANCH  20  30
ATOM     30  O   UNL     1      -1.071   9.520  17.137  0.00  0.00    +0.000 OA
ATOM     31  H   UNL     1      -1.716   8.852  17.424  0.00  0.00    +0.000 HD
ENDBRANCH  20  30
ENDBRANCH  18  19
ENDBRANCH   5  18
TORSDOF 6
ENDMDL
MODEL 2
REMARK VINA RESULT:      -8.7      0.851      1.374
REMARK  Name = 
REMARK  7 active torsions:
REMARK  status: ('A' for Active; 'I' for Inactive)
REMARK    1  A    between atoms: C_1  and  N_2
REMARK    2  A    between atoms: C_6  and  C_7
REMARK    3  A    between atoms: C_7  and  C_8
REMARK    4  A    between atoms: C_8  and  C_9
REMARK    5  A    between atoms: C_13  and  C_14
REMARK    6  A    between atoms: C_14  and  C_15
REMARK    7  A    between atoms: C_16  and  O_17
REMARK                            x       y       z     vdW  Elec       q    Type
REMARK                         _______ _______ _______ _____ _____    ______ ____
ROOT
ATOM      1  C   UNL     1       3.556   6.727  18.104  0.00  0.00    +0.000 A 
ATOM      2  C   UNL     1       3.123   6.260  19.360  0.00  0.00    +0.000 A 
ATOM      3  C   UNL     1       2.166   6.949  20.102  0.00  0.00    +0.000 A 
ATOM      4  C   UNL     1       1.633   8.146  19.617  0.00  0.00    +0.000 A 
ATOM      5  C   UNL     1       2.036   8.678  18.381  0.00  0.00    +0.000 A 
ATOM      6  C   UNL     1       2.980   7.949  17.640  0.00  0.00    +0.000 A 
ENDROOT
BRANCH   1   7
ATOM      7  C   UNL     1       4.694   5.919  17.280  0.00  0.00    +0.000 C 
ATOM      8  C   UNL     1       5.086   6.522  15.899  0.00  0.00    +0.000 C 
ATOM      9  O   UNL     1       6.465   6.673  16.280  0.00  0.00    +0.000 OA
ATOM     10  C   UNL     1       6.183   6.227  17.623  0.00  0.00    +0.000 C 
BRANCH   7  11
ATOM     11  C   UNL     1       4.345   4.425  17.128  0.00  0.00    +0.000 C 
BRANCH  11  17
ATOM     12  C   UNL     1       1.864   2.717  18.151  0.00  0.00    +0.000 C 
ATOM     13  N   UNL     1       3.169   2.805  18.746  0.00  0.00    +0.000 N 
ATOM     14  C   UNL     1       3.609   2.047  19.784  0.00  0.00    +0.000 A 
ATOM     15  N   UNL     1       4.836   2.384  20.089  0.00  0.00    +0.000 NA
ATOM     16  N   UNL     1       5.225   3.367  19.211  0.00  0.00    +0.000 NA
ATOM     17  C   UNL     1       4.223   3.598  18.378  0.00  0.00    +0.000 A 
ENDBRANCH  11  17
ENDBRANCH   7  11
ENDBRANCH   1   7
BRANCH   5  18
ATOM     18  C   UNL     1       1.524  10.079  18.011  0.00  0.00    +0.000 C 
BRANCH  18  19
ATOM     19  C   UNL     1       0.311  10.710  18.729  0.00  0.00    +0.000 C 
ATOM     20  C   UNL     1      -0.970  10.638  18.262  0.00  0.00    +0.000 C 
ATOM     21  C   UNL     1      -2.214  11.363  18.771  0.00  0.00    +0.000 A 
ATOM     22  C   UNL     1      -3.430  11.289  18.040  0.00  0.00    +0.000 A 
ATOM     23  C   UNL     1      -4.628  11.901  18.472  0.00  0.00    +0.000 A 
ATOM     24  C   UNL     1      -4.669  12.601  19.666  0.00  0.00    +0.000 A 
ATOM     25  C   UNL     1      -3.498  12.736  20.391  0.00  0.00    +0.000 A 
ATOM     26  C   UNL     1      -2.289  12.174  19.928  0.00  0.00    +0.000 A 
ATOM     27  O   UNL     1      -1.236  12.580  20.704  0.00  0.00    +0.000 OA
ATOM     28  C   UNL     1      -0.078  12.863  19.933  0.00  0.00    +0.000 C 
ATOM     29  C   UNL     1       0.728  11.587  19.881  0.00  0.00    +0.000 C 
BRANCH  20  30
ATOM     30  O   UNL     1      -1.182   9.816  17.163  0.00  0.00    +0.000 OA
ATOM     31  H   UNL     1      -0.733  10.208  16.397  0.00  0.00    +0.000 HD
ENDBRANCH  20  30
ENDBRANCH  18  19
ENDBRANCH   5  18
TORSDOF 6
ENDMDL
MODEL 3
REMARK VINA RESULT:      -8.7      1.419      2.515
REMARK  Name = 
REMARK  7 active torsions:
REMARK  status: ('A' for Active; 'I' for Inactive)
REMARK    1  A    between atoms: C_1  and  N_2
REMARK    2  A    between atoms: C_6  and  C_7
REMARK    3  A    between atoms: C_7  and  C_8
REMARK    4  A    between atoms: C_8  and  C_9
REMARK    5  A    between atoms: C_13  and  C_14
REMARK    6  A    between atoms: C_14  and  C_15
REMARK    7  A    between atoms: C_16  and  O_17
REMARK                            x       y       z     vdW  Elec       q    Type
REMARK                         _______ _______ _______ _____ _____    ______ ____
ROOT
ATOM      1  C   UNL     1       2.216   7.300  19.205  0.00  0.00    +0.000 A 
ATOM      2  C   UNL     1       2.023   7.263  20.599  0.00  0.00    +0.000 A 
ATOM      3  C   UNL     1       1.294   8.249  21.259  0.00  0.00    +0.000 A 
ATOM      4  C   UNL     1       0.756   9.319  20.542  0.00  0.00    +0.000 A 
ATOM      5  C   UNL     1       0.927   9.428  19.152  0.00  0.00    +0.000 A 
ATOM      6  C   UNL     1       1.642   8.406  18.507  0.00  0.00    +0.000 A 
ENDROOT
BRANCH   1   7
ATOM      7  C   UNL     1       3.096   6.154  18.471  0.00  0.00    +0.000 C 
ATOM      8  C   UNL     1       4.104   6.659  17.397  0.00  0.00    +0.000 C 
ATOM      9  O   UNL     1       5.231   6.093  18.090  0.00  0.00    +0.000 OA
ATOM     10  C   UNL     1       4.394   5.677  19.190  0.00  0.00    +0.000 C 
BRANCH   7  11
ATOM     11  C   UNL     1       2.213   5.034  17.886  0.00  0.00    +0.000 C 
BRANCH  11  17
ATOM     12  C   UNL     1       3.357   2.067  17.960  0.00  0.00    +0.000 C 
ATOM     13  N   UNL     1       2.397   2.655  18.852  0.00  0.00    +0.000 N 
ATOM     14  C   UNL     1       1.917   2.072  19.981  0.00  0.00    +0.000 A 
ATOM     15  N   UNL     1       1.052   2.868  20.557  0.00  0.00    +0.000 NA
ATOM     16  N   UNL     1       0.984   4.017  19.805  0.00  0.00    +0.000 NA
ATOM     17  C   UNL     1       1.823   3.898  18.789  0.00  0.00    +0.000 A 
ENDBRANCH  11  17
ENDBRANCH   7  11
ENDBRANCH   1   7
BRANCH   5  18
ATOM     18  C   UNL     1       0.448  10.723  18.477  0.00  0.00    +0.000 C 
BRANCH  18  19
ATOM     19  C   UNL     1      -1.056  11.034  18.303  0.00  0.00    +0.000 C 
ATOM     20  C   UNL     1      -1.769  11.834  19.148  0.00  0.00    +0.000 C 
ATOM     21  C   UNL     1      -3.276  12.072  19.193  0.00  0.00    +0.000 A 
ATOM     22  C   UNL     1      -3.849  12.811  20.263  0.00  0.00    +0.000 A 
ATOM     23  C   UNL     1      -5.228  13.103  20.346  0.00  0.00    +0.000 A 
ATOM     24  C   UNL     1      -6.097  12.684  19.354  0.00  0.00    +0.000 A 
ATOM     25  C   UNL     1      -5.591  11.924  18.313  0.00  0.00    +0.000 A 
ATOM     26  C   UNL     1      -4.223  11.583  18.262  0.00  0.00    +0.000 A 
ATOM     27  O   UNL     1      -3.983  10.688  17.254  0.00  0.00    +0.000 OA
ATOM     28  C   UNL     1      -3.050   9.688  17.635  0.00  0.00    +0.000 C 
ATOM     29  C   UNL     1      -1.686  10.191  17.225  0.00  0.00    +0.000 C 
BRANCH  20  30
ATOM     30  O   UNL     1      -1.042  12.513  20.118  0.00  0.00    +0.000 OA
ATOM     31  H   UNL     1      -1.094  12.009  20.947  0.00  0.00    +0.000 HD
ENDBRANCH  20  30
ENDBRANCH  18  19
ENDBRANCH   5  18
TORSDOF 6
ENDMDL
MODEL 4
REMARK VINA RESULT:      -8.7      2.253      3.606
REMARK  Name = 
REMARK  7 active torsions:
REMARK  status: ('A' for Active; 'I' for Inactive)
REMARK    1  A    between atoms: C_1  and  N_2
REMARK    2  A    between atoms: C_6  and  C_7
REMARK    3  A    between atoms: C_7  and  C_8
REMARK    4  A    between atoms: C_8  and  C_9
REMARK    5  A    between atoms: C_13  and  C_14
REMARK    6  A    between atoms: C_14  and  C_15
REMARK    7  A    between atoms: C_16  and  O_17
REMARK                            x       y       z     vdW  Elec       q    Type
REMARK                         _______ _______ _______ _____ _____    ______ ____
ROOT
ATOM      1  C   UNL     1       2.291   7.353  19.160  0.00  0.00    +0.000 A 
ATOM      2  C   UNL     1       2.031   7.238  20.539  0.00  0.00    +0.000 A 
ATOM      3  C   UNL     1       1.240   8.168  21.210  0.00  0.00    +0.000 A 
ATOM      4  C   UNL     1       0.705   9.259  20.521  0.00  0.00    +0.000 A 
ATOM      5  C   UNL     1       0.941   9.444  19.149  0.00  0.00    +0.000 A 
ATOM      6  C   UNL     1       1.718   8.478  18.490  0.00  0.00    +0.000 A 
ENDROOT
BRANCH   1   7
ATOM      7  C   UNL     1       3.241   6.273  18.414  0.00  0.00    +0.000 C 
ATOM      8  C   UNL     1       4.255   5.520  19.326  0.00  0.00    +0.000 C 
ATOM      9  O   UNL     1       3.713   4.232  18.982  0.00  0.00    +0.000 OA
ATOM     10  C   UNL     1       2.665   4.841  18.197  0.00  0.00    +0.000 C 
BRANCH   7  11
ATOM     11  C   UNL     1       3.969   6.884  17.202  0.00  0.00    +0.000 C 
BRANCH  11  17
ATOM     12  C   UNL     1       5.037   4.247  15.780  0.00  0.00    +0.000 C 
ATOM     13  N   UNL     1       5.813   5.359  16.252  0.00  0.00    +0.000 N 
ATOM     14  C   UNL     1       7.143   5.533  16.038  0.00  0.00    +0.000 A 
ATOM     15  N   UNL     1       7.543   6.641  16.610  0.00  0.00    +0.000 NA
ATOM     16  N   UNL     1       6.442   7.226  17.190  0.00  0.00    +0.000 NA
ATOM     17  C   UNL     1       5.390   6.463  16.945  0.00  0.00    +0.000 A 
ENDBRANCH  11  17
ENDBRANCH   7  11
ENDBRANCH   1   7
BRANCH   5  18
ATOM     18  C   UNL     1       0.456  10.758  18.517  0.00  0.00    +0.000 C 
BRANCH  18  19
ATOM     19  C   UNL     1      -1.048  11.056  18.329  0.00  0.00    +0.000 C 
ATOM     20  C   UNL     1      -1.776  11.848  19.170  0.00  0.00    +0.000 C 
ATOM     21  C   UNL     1      -3.286  12.072  19.200  0.00  0.00    +0.000 A 
ATOM     22  C   UNL     1      -3.876  12.803  20.267  0.00  0.00    +0.000 A 
ATOM     23  C   UNL     1      -5.259  13.082  20.337  0.00  0.00    +0.000 A 
ATOM     24  C   UNL     1      -6.114  12.659  19.335  0.00  0.00    +0.000 A 
ATOM     25  C   UNL     1      -5.591  11.907  18.297  0.00  0.00    +0.000 A 
ATOM     26  C   UNL     1      -4.220  11.578  18.258  0.00  0.00    +0.000 A 
ATOM     27  O   UNL     1      -3.961  10.689  17.249  0.00  0.00    +0.000 OA
ATOM     28  C   UNL     1      -3.024   9.695  17.637  0.00  0.00    +0.000 C 
ATOM     29  C   UNL     1      -1.660  10.212  17.242  0.00  0.00    +0.000 C 
BRANCH  20  30
ATOM     30  O   UNL     1      -1.065  12.529  20.149  0.00  0.00    +0.000 OA
ATOM     31  H   UNL     1      -1.198  13.482  20.016  0.00  0.00    +0.000 HD
ENDBRANCH  20  30
ENDBRANCH  18  19
ENDBRANCH   5  18
TORSDOF 6
ENDMDL
MODEL 5
REMARK VINA RESULT:      -8.7      1.424      2.675
REMARK  Name = 
REMARK  7 active torsions:
REMARK  status: ('A' for Active; 'I' for Inactive)
REMARK    1  A    between atoms: C_1  and  N_2
REMARK    2  A    between atoms: C_6  and  C_7
REMARK    3  A    between atoms: C_7  and  C_8
REMARK    4  A    between atoms: C_8  and  C_9
REMARK    5  A    between atoms: C_13  and  C_14
REMARK    6  A    between atoms: C_14  and  C_15
REMARK    7  A    between atoms: C_16  and  O_17
REMARK                            x       y       z     vdW  Elec       q    Type
REMARK                         _______ _______ _______ _____ _____    ______ ____
ROOT
ATOM      1  C   UNL     1       2.123   7.523  19.240  0.00  0.00    +0.000 A 
ATOM      2  C   UNL     1       1.976   7.450  20.639  0.00  0.00    +0.000 A 
ATOM      3  C   UNL     1       1.249   8.407  21.344  0.00  0.00    +0.000 A 
ATOM      4  C   UNL     1       0.668   9.482  20.669  0.00  0.00    +0.000 A 
ATOM      5  C   UNL     1       0.793   9.626  19.278  0.00  0.00    +0.000 A 
ATOM      6  C   UNL     1       1.506   8.633  18.587  0.00  0.00    +0.000 A 
ENDROOT
BRANCH   1   7
ATOM      7  C   UNL     1       3.001   6.412  18.452  0.00  0.00    +0.000 C 
ATOM      8  C   UNL     1       4.032   6.967  17.426  0.00  0.00    +0.000 C 
ATOM      9  O   UNL     1       5.141   6.345  18.101  0.00  0.00    +0.000 OA
ATOM     10  C   UNL     1       4.281   5.875  19.162  0.00  0.00    +0.000 C 
BRANCH   7  11
ATOM     11  C   UNL     1       2.114   5.341  17.788  0.00  0.00    +0.000 C 
BRANCH  11  17
ATOM     12  C   UNL     1       0.994   3.839  20.358  0.00  0.00    +0.000 C 
ATOM     13  N   UNL     1       1.740   3.270  19.270  0.00  0.00    +0.000 N 
ATOM     14  C   UNL     1       1.972   1.944  19.089  0.00  0.00    +0.000 A 
ATOM     15  N   UNL     1       2.692   1.764  18.010  0.00  0.00    +0.000 NA
ATOM     16  N   UNL     1       2.913   3.000  17.451  0.00  0.00    +0.000 NA
ATOM     17  C   UNL     1       2.309   3.908  18.199  0.00  0.00    +0.000 A 
ENDBRANCH  11  17
ENDBRANCH   7  11
ENDBRANCH   1   7
BRANCH   5  18
ATOM     18  C   UNL     1       0.268  10.926  18.649  0.00  0.00    +0.000 C 
BRANCH  18  19
ATOM     19  C   UNL     1      -1.235  11.128  18.350  0.00  0.00    +0.000 C 
ATOM     20  C   UNL     1      -2.068  11.882  19.124  0.00  0.00    +0.000 C 
ATOM     21  C   UNL     1      -3.588  12.013  19.044  0.00  0.00    +0.000 A 
ATOM     22  C   UNL     1      -4.296  12.718  20.055  0.00  0.00    +0.000 A 
ATOM     23  C   UNL     1      -5.695  12.912  20.022  0.00  0.00    +0.000 A 
ATOM     24  C   UNL     1      -6.448  12.425  18.968  0.00  0.00    +0.000 A 
ATOM     25  C   UNL     1      -5.807  11.696  17.981  0.00  0.00    +0.000 A 
ATOM     26  C   UNL     1      -4.419  11.453  18.046  0.00  0.00    +0.000 A 
ATOM     27  O   UNL     1      -4.035  10.570  17.071  0.00  0.00    +0.000 OA
ATOM     28  C   UNL     1      -3.069   9.640  17.540  0.00  0.00    +0.000 C 
ATOM     29  C   UNL     1      -1.715  10.236  17.235  0.00  0.00    +0.000 C 
BRANCH  20  30
ATOM     30  O   UNL     1      -1.472  12.617  20.141  0.00  0.00    +0.000 OA
ATOM     31  H   UNL     1      -1.744  13.545  20.048  0.00  0.00    +0.000 HD
ENDBRANCH  20  30
ENDBRANCH  18  19
ENDBRANCH   5  18
TORSDOF 6
ENDMDL
MODEL 6
REMARK VINA RESULT:      -8.6      3.095      4.513
REMARK  Name = 
REMARK  7 active torsions:
REMARK  status: ('A' for Active; 'I' for Inactive)
REMARK    1  A    between atoms: C_1  and  N_2
REMARK    2  A    between atoms: C_6  and  C_7
REMARK    3  A    between atoms: C_7  and  C_8
REMARK    4  A    between atoms: C_8  and  C_9
REMARK    5  A    between atoms: C_13  and  C_14
REMARK    6  A    between atoms: C_14  and  C_15
REMARK    7  A    between atoms: C_16  and  O_17
REMARK                            x       y       z     vdW  Elec       q    Type
REMARK                         _______ _______ _______ _____ _____    ______ ____
ROOT
ATOM      1  C   UNL     1       4.223   4.488  16.990  0.00  0.00    +0.000 A 
ATOM      2  C   UNL     1       3.336   3.404  16.845  0.00  0.00    +0.000 A 
ATOM      3  C   UNL     1       2.164   3.318  17.592  0.00  0.00    +0.000 A 
ATOM      4  C   UNL     1       1.857   4.306  18.530  0.00  0.00    +0.000 A 
ATOM      5  C   UNL     1       2.708   5.404  18.740  0.00  0.00    +0.000 A 
ATOM      6  C   UNL     1       3.869   5.482  17.953  0.00  0.00    +0.000 A 
ENDROOT
BRANCH   1   7
ATOM      7  C   UNL     1       5.594   4.543  16.129  0.00  0.00    +0.000 C 
ATOM      8  C   UNL     1       5.798   3.386  15.107  0.00  0.00    +0.000 C 
ATOM      9  O   UNL     1       5.888   4.293  13.994  0.00  0.00    +0.000 OA
ATOM     10  C   UNL     1       5.598   5.424  14.843  0.00  0.00    +0.000 C 
BRANCH   7  11
ATOM     11  C   UNL     1       6.837   4.682  17.030  0.00  0.00    +0.000 C 
BRANCH  11  17
ATOM     12  C   UNL     1       7.968   5.608  19.855  0.00  0.00    +0.000 C 
ATOM     13  N   UNL     1       7.798   6.411  18.676  0.00  0.00    +0.000 N 
ATOM     14  C   UNL     1       8.233   7.690  18.531  0.00  0.00    +0.000 A 
ATOM     15  N   UNL     1       7.909   8.136  17.344  0.00  0.00    +0.000 NA
ATOM     16  N   UNL     1       7.271   7.116  16.680  0.00  0.00    +0.000 NA
ATOM     17  C   UNL     1       7.233   6.061  17.479  0.00  0.00    +0.000 A 
ENDBRANCH  11  17
ENDBRANCH   7  11
ENDBRANCH   1   7
BRANCH   5  18
ATOM     18  C   UNL     1       2.376   6.346  19.907  0.00  0.00    +0.000 C 
BRANCH  18  19
ATOM     19  C   UNL     1       2.042   7.836  19.673  0.00  0.00    +0.000 C 
ATOM     20  C   UNL     1       1.444   8.636  20.603  0.00  0.00    +0.000 C 
ATOM     21  C   UNL     1       0.901  10.053  20.437  0.00  0.00    +0.000 A 
ATOM     22  C   UNL     1       0.155  10.658  21.484  0.00  0.00    +0.000 A 
ATOM     23  C   UNL     1      -0.342  11.978  21.413  0.00  0.00    +0.000 A 
ATOM     24  C   UNL     1      -0.100  12.762  20.299  0.00  0.00    +0.000 A 
ATOM     25  C   UNL     1       0.587  12.202  19.236  0.00  0.00    +0.000 A 
ATOM     26  C   UNL     1       1.031  10.864  19.284  0.00  0.00    +0.000 A 
ATOM     27  O   UNL     1       1.523  10.471  18.067  0.00  0.00    +0.000 OA
ATOM     28  C   UNL     1       1.147   9.141  17.741  0.00  0.00    +0.000 C 
ATOM     29  C   UNL     1       2.257   8.245  18.239  0.00  0.00    +0.000 C 
BRANCH  20  30
ATOM     30  O   UNL     1       1.279   8.093  21.872  0.00  0.00    +0.000 OA
ATOM     31  H   UNL     1       0.337   8.138  22.103  0.00  0.00    +0.000 HD
ENDBRANCH  20  30
ENDBRANCH  18  19
ENDBRANCH   5  18
TORSDOF 6
ENDMDL
MODEL 7
REMARK VINA RESULT:      -8.6      2.100      3.399
REMARK  Name = 
REMARK  7 active torsions:
REMARK  status: ('A' for Active; 'I' for Inactive)
REMARK    1  A    between atoms: C_1  and  N_2
REMARK    2  A    between atoms: C_6  and  C_7
REMARK    3  A    between atoms: C_7  and  C_8
REMARK    4  A    between atoms: C_8  and  C_9
REMARK    5  A    between atoms: C_13  and  C_14
REMARK    6  A    between atoms: C_14  and  C_15
REMARK    7  A    between atoms: C_16  and  O_17
REMARK                            x       y       z     vdW  Elec       q    Type
REMARK                         _______ _______ _______ _____ _____    ______ ____
ROOT
ATOM      1  C   UNL     1       2.441   7.187  19.032  0.00  0.00    +0.000 A 
ATOM      2  C   UNL     1       2.129   7.053  20.399  0.00  0.00    +0.000 A 
ATOM      3  C   UNL     1       1.309   7.970  21.051  0.00  0.00    +0.000 A 
ATOM      4  C   UNL     1       0.796   9.068  20.356  0.00  0.00    +0.000 A 
ATOM      5  C   UNL     1       1.084   9.273  18.996  0.00  0.00    +0.000 A 
ATOM      6  C   UNL     1       1.890   8.317  18.356  0.00  0.00    +0.000 A 
ENDROOT
BRANCH   1   7
ATOM      7  C   UNL     1       3.424   6.119  18.310  0.00  0.00    +0.000 C 
ATOM      8  C   UNL     1       4.291   5.245  19.263  0.00  0.00    +0.000 C 
ATOM      9  O   UNL     1       3.738   4.019  18.753  0.00  0.00    +0.000 OA
ATOM     10  C   UNL     1       2.816   4.741  17.909  0.00  0.00    +0.000 C 
BRANCH   7  11
ATOM     11  C   UNL     1       4.315   6.785  17.243  0.00  0.00    +0.000 C 
BRANCH  11  17
ATOM     12  C   UNL     1       7.435   6.716  17.858  0.00  0.00    +0.000 C 
ATOM     13  N   UNL     1       6.707   5.883  16.942  0.00  0.00    +0.000 N 
ATOM     14  C   UNL     1       7.219   4.813  16.280  0.00  0.00    +0.000 A 
ATOM     15  N   UNL     1       6.297   4.281  15.519  0.00  0.00    +0.000 NA
ATOM     16  N   UNL     1       5.141   4.999  15.707  0.00  0.00    +0.000 NA
ATOM     17  C   UNL     1       5.384   5.950  16.594  0.00  0.00    +0.000 A 
ENDBRANCH  11  17
ENDBRANCH   7  11
ENDBRANCH   1   7
BRANCH   5  18
ATOM     18  C   UNL     1       0.618  10.592  18.363  0.00  0.00    +0.000 C 
BRANCH  18  19
ATOM     19  C   UNL     1      -0.879  10.962  18.277  0.00  0.00    +0.000 C 
ATOM     20  C   UNL     1      -1.507  11.796  19.158  0.00  0.00    +0.000 C 
ATOM     21  C   UNL     1      -2.999  12.094  19.291  0.00  0.00    +0.000 A 
ATOM     22  C   UNL     1      -3.476  12.862  20.388  0.00  0.00    +0.000 A 
ATOM     23  C   UNL     1      -4.835  13.210  20.551  0.00  0.00    +0.000 A 
ATOM     24  C   UNL     1      -5.779  12.820  19.617  0.00  0.00    +0.000 A 
ATOM     25  C   UNL     1      -5.367  12.034  18.554  0.00  0.00    +0.000 A 
ATOM     26  C   UNL     1      -4.019  11.638  18.424  0.00  0.00    +0.000 A 
ATOM     27  O   UNL     1      -3.876  10.728  17.410  0.00  0.00    +0.000 OA
ATOM     28  C   UNL     1      -2.963   9.694  17.743  0.00  0.00    +0.000 C 
ATOM     29  C   UNL     1      -1.607  10.140  17.247  0.00  0.00    +0.000 C 
BRANCH  20  30
ATOM     30  O   UNL     1      -0.697  12.451  20.076  0.00  0.00    +0.000 OA
ATOM     31  H   UNL     1      -1.267  12.899  20.722  0.00  0.00    +0.000 HD
ENDBRANCH  20  30
ENDBRANCH  18  19
ENDBRANCH   5  18
TORSDOF 6
ENDMDL
MODEL 8
REMARK VINA RESULT:      -8.5      1.211      1.708
REMARK  Name = 
REMARK  7 active torsions:
REMARK  status: ('A' for Active; 'I' for Inactive)
REMARK    1  A    between atoms: C_1  and  N_2
REMARK    2  A    between atoms: C_6  and  C_7
REMARK    3  A    between atoms: C_7  and  C_8
REMARK    4  A    between atoms: C_8  and  C_9
REMARK    5  A    between atoms: C_13  and  C_14
REMARK    6  A    between atoms: C_14  and  C_15
REMARK    7  A    between atoms: C_16  and  O_17
REMARK                            x       y       z     vdW  Elec       q    Type
REMARK                         _______ _______ _______ _____ _____    ______ ____
ROOT
ATOM      1  C   UNL     1       2.595   7.115  18.945  0.00  0.00    +0.000 A 
ATOM      2  C   UNL     1       2.307   6.827  20.293  0.00  0.00    +0.000 A 
ATOM      3  C   UNL     1       1.489   7.658  21.055  0.00  0.00    +0.000 A 
ATOM      4  C   UNL     1       0.955   8.820  20.494  0.00  0.00    +0.000 A 
ATOM      5  C   UNL     1       1.219   9.177  19.162  0.00  0.00    +0.000 A 
ATOM      6  C   UNL     1       2.022   8.308  18.407  0.00  0.00    +0.000 A 
ENDROOT
BRANCH   1   7
ATOM      7  C   UNL     1       3.575   6.145  18.094  0.00  0.00    +0.000 C 
ATOM      8  C   UNL     1       4.465   6.849  17.028  0.00  0.00    +0.000 C 
ATOM      9  O   UNL     1       5.683   6.380  17.635  0.00  0.00    +0.000 OA
ATOM     10  C   UNL     1       4.953   5.783  18.728  0.00  0.00    +0.000 C 
BRANCH   7  11
ATOM     11  C   UNL     1       2.812   4.969  17.456  0.00  0.00    +0.000 C 
BRANCH  11  17
ATOM     12  C   UNL     1       1.025   3.631  19.722  0.00  0.00    +0.000 C 
ATOM     13  N   UNL     1       2.112   3.031  19.000  0.00  0.00    +0.000 N 
ATOM     14  C   UNL     1       2.470   1.723  19.069  0.00  0.00    +0.000 A 
ATOM     15  N   UNL     1       3.506   1.507  18.297  0.00  0.00    +0.000 NA
ATOM     16  N   UNL     1       3.818   2.695  17.682  0.00  0.00    +0.000 NA
ATOM     17  C   UNL     1       2.952   3.611  18.086  0.00  0.00    +0.000 A 
ENDBRANCH  11  17
ENDBRANCH   7  11
ENDBRANCH   1   7
BRANCH   5  18
ATOM     18  C   UNL     1       0.730  10.554  18.686  0.00  0.00    +0.000 C 
BRANCH  18  19
ATOM     19  C   UNL     1      -0.711  11.039  18.961  0.00  0.00    +0.000 C 
ATOM     20  C   UNL     1      -1.744  10.889  18.081  0.00  0.00    +0.000 C 
ATOM     21  C   UNL     1      -3.151  11.477  18.152  0.00  0.00    +0.000 A 
ATOM     22  C   UNL     1      -4.034  11.345  17.046  0.00  0.00    +0.000 A 
ATOM     23  C   UNL     1      -5.361  11.829  17.058  0.00  0.00    +0.000 A 
ATOM     24  C   UNL     1      -5.873  12.451  18.183  0.00  0.00    +0.000 A 
ATOM     25  C   UNL     1      -5.036  12.639  19.270  0.00  0.00    +0.000 A 
ATOM     26  C   UNL     1      -3.694  12.208  19.235  0.00  0.00    +0.000 A 
ATOM     27  O   UNL     1      -3.011  12.652  20.336  0.00  0.00    +0.000 OA
ATOM     28  C   UNL     1      -1.695  13.077  20.017  0.00  0.00    +0.000 C 
ATOM     29  C   UNL     1      -0.797  11.877  20.210  0.00  0.00    +0.000 C 
BRANCH  20  30
ATOM     30  O   UNL     1      -1.489  10.119  16.953  0.00  0.00    +0.000 OA
ATOM     31  H   UNL     1      -2.170  10.315  16.289  0.00  0.00    +0.000 HD
ENDBRANCH  20  30
ENDBRANCH  18  19
ENDBRANCH   5  18
TORSDOF 6
ENDMDL
MODEL 9
REMARK VINA RESULT:      -8.5      2.086      2.987
REMARK  Name = 
REMARK  7 active torsions:
REMARK  status: ('A' for Active; 'I' for Inactive)
REMARK    1  A    between atoms: C_1  and  N_2
REMARK    2  A    between atoms: C_6  and  C_7
REMARK    3  A    between atoms: C_7  and  C_8
REMARK    4  A    between atoms: C_8  and  C_9
REMARK    5  A    between atoms: C_13  and  C_14
REMARK    6  A    between atoms: C_14  and  C_15
REMARK    7  A    between atoms: C_16  and  O_17
REMARK                            x       y       z     vdW  Elec       q    Type
REMARK                         _______ _______ _______ _____ _____    ______ ____
ROOT
ATOM      1  C   UNL     1       2.595   6.976  18.931  0.00  0.00    +0.000 A 
ATOM      2  C   UNL     1       2.295   6.680  20.275  0.00  0.00    +0.000 A 
ATOM      3  C   UNL     1       1.489   7.519  21.042  0.00  0.00    +0.000 A 
ATOM      4  C   UNL     1       0.980   8.696  20.490  0.00  0.00    +0.000 A 
ATOM      5  C   UNL     1       1.257   9.062  19.162  0.00  0.00    +0.000 A 
ATOM      6  C   UNL     1       2.048   8.184  18.402  0.00  0.00    +0.000 A 
ENDROOT
BRANCH   1   7
ATOM      7  C   UNL     1       3.561   5.996  18.076  0.00  0.00    +0.000 C 
ATOM      8  C   UNL     1       4.522   5.097  18.908  0.00  0.00    +0.000 C 
ATOM      9  O   UNL     1       3.977   3.885  18.356  0.00  0.00    +0.000 OA
ATOM     10  C   UNL     1       2.974   4.624  17.626  0.00  0.00    +0.000 C 
BRANCH   7  11
ATOM     11  C   UNL     1       4.352   6.763  16.997  0.00  0.00    +0.000 C 
BRANCH  11  17
ATOM     12  C   UNL     1       7.482   6.791  17.560  0.00  0.00    +0.000 C 
ATOM     13  N   UNL     1       6.776   5.999  16.593  0.00  0.00    +0.000 N 
ATOM     14  C   UNL     1       7.325   5.008  15.842  0.00  0.00    +0.000 A 
ATOM     15  N   UNL     1       6.414   4.494  15.054  0.00  0.00    +0.000 NA
ATOM     16  N   UNL     1       5.230   5.141  15.315  0.00  0.00    +0.000 NA
ATOM     17  C   UNL     1       5.445   6.031  16.270  0.00  0.00    +0.000 A 
ENDBRANCH  11  17
ENDBRANCH   7  11
ENDBRANCH   1   7
BRANCH   5  18
ATOM     18  C   UNL     1       0.797  10.452  18.698  0.00  0.00    +0.000 C 
BRANCH  18  19
ATOM     19  C   UNL     1      -0.638  10.958  18.964  0.00  0.00    +0.000 C 
ATOM     20  C   UNL     1      -1.669  10.818  18.080  0.00  0.00    +0.000 C 
ATOM     21  C   UNL     1      -3.068  11.426  18.142  0.00  0.00    +0.000 A 
ATOM     22  C   UNL     1      -3.948  11.301  17.033  0.00  0.00    +0.000 A 
ATOM     23  C   UNL     1      -5.268  11.803  17.036  0.00  0.00    +0.000 A 
ATOM     24  C   UNL     1      -5.777  12.438  18.156  0.00  0.00    +0.000 A 
ATOM     25  C   UNL     1      -4.942  12.620  19.245  0.00  0.00    +0.000 A 
ATOM     26  C   UNL     1      -3.605  12.171  19.218  0.00  0.00    +0.000 A 
ATOM     27  O   UNL     1      -2.922  12.611  20.321  0.00  0.00    +0.000 OA
ATOM     28  C   UNL     1      -1.598  13.015  20.005  0.00  0.00    +0.000 C 
ATOM     29  C   UNL     1      -0.718  11.804  20.208  0.00  0.00    +0.000 C 
BRANCH  20  30
ATOM     30  O   UNL     1      -1.420  10.039  16.957  0.00  0.00    +0.000 OA
ATOM     31  H   UNL     1      -0.620   9.513  17.122  0.00  0.00    +0.000 HD
ENDBRANCH  20  30
ENDBRANCH  18  19
ENDBRANCH   5  18
TORSDOF 6
ENDMDL
