MODEL 1
REMARK VINA RESULT:      -8.8      0.000      0.000
REMARK  Name = 
REMARK  5 active torsions:
REMARK  status: ('A' for Active; 'I' for Inactive)
REMARK    1  A    between atoms: C_1  and  C_2
REMARK    2  A    between atoms: C_2  and  C_3
REMARK    3  A    between atoms: C_7  and  C_8
REMARK    4  A    between atoms: C_11  and  C_13
REMARK    5  A    between atoms: C_13  and  N_14
REMARK                            x       y       z     vdW  Elec       q    Type
REMARK                         _______ _______ _______ _____ _____    ______ ____
ROOT
ATOM      1  C   UNL     1       1.720   8.707  19.170  0.00  0.00    +0.000 C 
ENDROOT
BRANCH   1   2
ATOM      2  N   UNL     1       0.668   9.605  19.584  0.00  0.00    +0.000 N 
ATOM      3  C   UNL     1      -0.504  10.048  18.845  0.00  0.00    +0.000 A 
ATOM      4  C   UNL     1      -0.937   9.636  17.583  0.00  0.00    +0.000 A 
ATOM      5  C   UNL     1      -2.092  10.258  17.072  0.00  0.00    +0.000 A 
ATOM      6  C   UNL     1      -2.782  11.258  17.772  0.00  0.00    +0.000 A 
ATOM      7  C   UNL     1      -2.346  11.651  19.038  0.00  0.00    +0.000 A 
ATOM      8  C   UNL     1      -2.944  12.633  19.826  0.00  0.00    +0.000 A 
ATOM      9  C   UNL     1      -2.421  12.939  21.110  0.00  0.00    +0.000 A 
ATOM     10  C   UNL     1      -1.291  12.278  21.620  0.00  0.00    +0.000 A 
ATOM     11  C   UNL     1      -0.739  11.323  20.791  0.00  0.00    +0.000 A 
ATOM     12  C   UNL     1      -1.231  11.028  19.542  0.00  0.00    +0.000 A 
ATOM     13  S   UNL     1       0.687  10.344  21.107  0.00  0.00    +0.000 S 
ATOM     14  O   UNL     1       0.162   9.536  22.147  0.00  0.00    +0.000 OA
ATOM     15  O   UNL     1       1.613  11.436  21.235  0.00  0.00    +0.000 OA
ENDBRANCH   1   2
BRANCH   1  26
ATOM     16  C   UNL     1       6.709   4.977  17.746  0.00  0.00    +0.000 C 
ATOM     17  C   UNL     1       5.197   5.072  17.414  0.00  0.00    +0.000 C 
ATOM     18  C   UNL     1       5.142   5.005  15.869  0.00  0.00    +0.000 C 
ATOM     19  C   UNL     1       4.552   6.406  17.837  0.00  0.00    +0.000 C 
ATOM     20  C   UNL     1       3.014   6.452  18.155  0.00  0.00    +0.000 C 
ATOM     21  C   UNL     1       2.060   5.266  18.207  0.00  0.00    +0.000 C 
ATOM     22  C   UNL     1       3.010   4.083  18.526  0.00  0.00    +0.000 C 
ATOM     23  C   UNL     1       2.567   3.706  17.012  0.00  0.00    +0.000 C 
ATOM     24  C   UNL     1       3.216   5.130  19.963  0.00  0.00    +0.000 C 
ATOM     25  N   UNL     1       2.980   6.570  19.558  0.00  0.00    +0.000 N 
ATOM     26  C   UNL     1       1.951   7.422  20.027  0.00  0.00    +0.000 C 
ATOM     27  O   UNL     1       1.201   7.102  20.945  0.00  0.00    +0.000 OA
ATOM     28  C   UNL     1       4.536   3.915  18.193  0.00  0.00    +0.000 C 
ENDBRANCH   1  26
TORSDOF 2
ENDMDL
MODEL 2
REMARK VINA RESULT:      -8.8      1.979      3.523
REMARK  Name = 
REMARK  5 active torsions:
REMARK  status: ('A' for Active; 'I' for Inactive)
REMARK    1  A    between atoms: C_1  and  C_2
REMARK    2  A    between atoms: C_2  and  C_3
REMARK    3  A    between atoms: C_7  and  C_8
REMARK    4  A    between atoms: C_11  and  C_13
REMARK    5  A    between atoms: C_13  and  N_14
REMARK                            x       y       z     vdW  Elec       q    Type
REMARK                         _______ _______ _______ _____ _____    ______ ____
ROOT
ATOM      1  C   UNL     1       1.958   8.201  20.162  0.00  0.00    +0.000 C 
ENDROOT
BRANCH   1   2
ATOM      2  N   UNL     1       1.083   9.349  20.132  0.00  0.00    +0.000 N 
ATOM      3  C   UNL     1       0.282   9.920  21.203  0.00  0.00    +0.000 A 
ATOM      4  C   UNL     1       0.238   9.541  22.547  0.00  0.00    +0.000 A 
ATOM      5  C   UNL     1      -0.663  10.235  23.375  0.00  0.00    +0.000 A 
ATOM      6  C   UNL     1      -1.499  11.253  22.894  0.00  0.00    +0.000 A 
ATOM      7  C   UNL     1      -1.436  11.631  21.552  0.00  0.00    +0.000 A 
ATOM      8  C   UNL     1      -2.216  12.622  20.957  0.00  0.00    +0.000 A 
ATOM      9  C   UNL     1      -2.053  12.933  19.582  0.00  0.00    +0.000 A 
ATOM     10  C   UNL     1      -1.119  12.256  18.780  0.00  0.00    +0.000 A 
ATOM     11  C   UNL     1      -0.383  11.282  19.422  0.00  0.00    +0.000 A 
ATOM     12  C   UNL     1      -0.541  10.965  20.751  0.00  0.00    +0.000 A 
ATOM     13  S   UNL     1       0.836  10.234  18.710  0.00  0.00    +0.000 S 
ATOM     14  O   UNL     1       1.833  11.210  18.458  0.00  0.00    +0.000 OA
ATOM     15  O   UNL     1      -0.028   9.603  17.751  0.00  0.00    +0.000 OA
ENDBRANCH   1   2
BRANCH   1  26
ATOM     16  C   UNL     1       0.523   2.103  18.906  0.00  0.00    +0.000 C 
ATOM     17  C   UNL     1       1.703   2.923  19.488  0.00  0.00    +0.000 C 
ATOM     18  C   UNL     1       2.037   2.212  20.822  0.00  0.00    +0.000 C 
ATOM     19  C   UNL     1       1.339   4.381  19.826  0.00  0.00    +0.000 C 
ATOM     20  C   UNL     1       2.464   5.477  19.821  0.00  0.00    +0.000 C 
ATOM     21  C   UNL     1       3.915   5.291  19.397  0.00  0.00    +0.000 C 
ATOM     22  C   UNL     1       3.829   4.084  18.426  0.00  0.00    +0.000 C 
ATOM     23  C   UNL     1       4.648   3.416  19.656  0.00  0.00    +0.000 C 
ATOM     24  C   UNL     1       2.806   5.302  17.605  0.00  0.00    +0.000 C 
ATOM     25  N   UNL     1       2.192   6.211  18.650  0.00  0.00    +0.000 N 
ATOM     26  C   UNL     1       2.410   7.602  18.792  0.00  0.00    +0.000 C 
ATOM     27  O   UNL     1       3.040   8.256  17.966  0.00  0.00    +0.000 OA
ATOM     28  C   UNL     1       2.789   2.907  18.391  0.00  0.00    +0.000 C 
ENDBRANCH   1  26
TORSDOF 2
ENDMDL
MODEL 3
REMARK VINA RESULT:      -8.4      1.155      1.392
REMARK  Name = 
REMARK  5 active torsions:
REMARK  status: ('A' for Active; 'I' for Inactive)
REMARK    1  A    between atoms: C_1  and  C_2
REMARK    2  A    between atoms: C_2  and  C_3
REMARK    3  A    between atoms: C_7  and  C_8
REMARK    4  A    between atoms: C_11  and  C_13
REMARK    5  A    between atoms: C_13  and  N_14
REMARK                            x       y       z     vdW  Elec       q    Type
REMARK                         _______ _______ _______ _____ _____    ______ ____
ROOT
ATOM      1  C   UNL     1       1.484   8.373  19.290  0.00  0.00    +0.000 C 
ENDROOT
BRANCH   1   2
ATOM      2  N   UNL     1       0.634   9.250  20.061  0.00  0.00    +0.000 N 
ATOM      3  C   UNL     1      -0.113  10.419  19.626  0.00  0.00    +0.000 A 
ATOM      4  C   UNL     1      -0.255  10.922  18.330  0.00  0.00    +0.000 A 
ATOM      5  C   UNL     1      -1.005  12.104  18.185  0.00  0.00    +0.000 A 
ATOM      6  C   UNL     1      -1.579  12.773  19.276  0.00  0.00    +0.000 A 
ATOM      7  C   UNL     1      -1.440  12.253  20.563  0.00  0.00    +0.000 A 
ATOM      8  C   UNL     1      -1.959  12.826  21.724  0.00  0.00    +0.000 A 
ATOM      9  C   UNL     1      -1.768  12.197  22.981  0.00  0.00    +0.000 A 
ATOM     10  C   UNL     1      -1.051  10.995  23.101  0.00  0.00    +0.000 A 
ATOM     11  C   UNL     1      -0.556  10.481  21.921  0.00  0.00    +0.000 A 
ATOM     12  C   UNL     1      -0.725  11.088  20.699  0.00  0.00    +0.000 A 
ATOM     13  S   UNL     1       0.406   9.022  21.723  0.00  0.00    +0.000 S 
ATOM     14  O   UNL     1      -0.591   8.067  22.043  0.00  0.00    +0.000 OA
ATOM     15  O   UNL     1       1.509   9.438  22.544  0.00  0.00    +0.000 OA
ENDBRANCH   1   2
BRANCH   1  26
ATOM     16  C   UNL     1       7.055   6.062  17.181  0.00  0.00    +0.000 C 
ATOM     17  C   UNL     1       5.539   5.805  16.979  0.00  0.00    +0.000 C 
ATOM     18  C   UNL     1       5.354   5.818  15.442  0.00  0.00    +0.000 C 
ATOM     19  C   UNL     1       4.639   6.914  17.557  0.00  0.00    +0.000 C 
ATOM     20  C   UNL     1       3.173   6.566  17.998  0.00  0.00    +0.000 C 
ATOM     21  C   UNL     1       2.537   5.182  18.030  0.00  0.00    +0.000 C 
ATOM     22  C   UNL     1       3.767   4.250  18.177  0.00  0.00    +0.000 C 
ATOM     23  C   UNL     1       3.283   3.866  16.677  0.00  0.00    +0.000 C 
ATOM     24  C   UNL     1       3.855   5.228  19.673  0.00  0.00    +0.000 C 
ATOM     25  N   UNL     1       3.246   6.589  19.404  0.00  0.00    +0.000 N 
ATOM     26  C   UNL     1       2.095   7.135  20.021  0.00  0.00    +0.000 C 
ATOM     27  O   UNL     1       1.534   6.588  20.966  0.00  0.00    +0.000 OA
ATOM     28  C   UNL     1       5.250   4.478  17.711  0.00  0.00    +0.000 C 
ENDBRANCH   1  26
TORSDOF 2
ENDMDL
MODEL 4
REMARK VINA RESULT:      -8.1      4.204      9.796
REMARK  Name = 
REMARK  5 active torsions:
REMARK  status: ('A' for Active; 'I' for Inactive)
REMARK    1  A    between atoms: C_1  and  C_2
REMARK    2  A    between atoms: C_2  and  C_3
REMARK    3  A    between atoms: C_7  and  C_8
REMARK    4  A    between atoms: C_11  and  C_13
REMARK    5  A    between atoms: C_13  and  N_14
REMARK                            x       y       z     vdW  Elec       q    Type
REMARK                         _______ _______ _______ _____ _____    ______ ____
ROOT
ATOM      1  C   UNL     1      -2.571  13.088  22.079  0.00  0.00    +0.000 C 
ENDROOT
BRANCH   1   2
ATOM      2  N   UNL     1      -1.785  12.154  21.307  0.00  0.00    +0.000 N 
ATOM      3  C   UNL     1      -0.966  11.045  21.767  0.00  0.00    +0.000 A 
ATOM      4  C   UNL     1      -0.815  10.563  23.070  0.00  0.00    +0.000 A 
ATOM      5  C   UNL     1       0.081   9.493  23.252  0.00  0.00    +0.000 A 
ATOM      6  C   UNL     1       0.811   8.930  22.195  0.00  0.00    +0.000 A 
ATOM      7  C   UNL     1       0.641   9.413  20.897  0.00  0.00    +0.000 A 
ATOM      8  C   UNL     1       1.309   8.940  19.768  0.00  0.00    +0.000 A 
ATOM      9  C   UNL     1       1.043   9.498  18.491  0.00  0.00    +0.000 A 
ATOM     10  C   UNL     1       0.115  10.539  18.322  0.00  0.00    +0.000 A 
ATOM     11  C   UNL     1      -0.508  10.969  19.475  0.00  0.00    +0.000 A 
ATOM     12  C   UNL     1      -0.249  10.443  20.718  0.00  0.00    +0.000 A 
ATOM     13  S   UNL     1      -1.688  12.265  19.620  0.00  0.00    +0.000 S 
ATOM     14  O   UNL     1      -2.766  11.647  18.939  0.00  0.00    +0.000 OA
ATOM     15  O   UNL     1      -0.839  13.318  19.134  0.00  0.00    +0.000 OA
ENDBRANCH   1   2
BRANCH   1  26
ATOM     16  C   UNL     1      -7.636  13.062  18.184  0.00  0.00    +0.000 C 
ATOM     17  C   UNL     1      -6.987  13.994  19.240  0.00  0.00    +0.000 C 
ATOM     18  C   UNL     1      -6.871  15.359  18.521  0.00  0.00    +0.000 C 
ATOM     19  C   UNL     1      -5.563  13.571  19.650  0.00  0.00    +0.000 C 
ATOM     20  C   UNL     1      -5.018  13.970  21.067  0.00  0.00    +0.000 C 
ATOM     21  C   UNL     1      -5.796  14.660  22.181  0.00  0.00    +0.000 C 
ATOM     22  C   UNL     1      -7.262  14.271  21.856  0.00  0.00    +0.000 C 
ATOM     23  C   UNL     1      -7.303  15.864  21.552  0.00  0.00    +0.000 C 
ATOM     24  C   UNL     1      -6.505  12.676  22.149  0.00  0.00    +0.000 C 
ATOM     25  N   UNL     1      -5.040  12.753  21.775  0.00  0.00    +0.000 N 
ATOM     26  C   UNL     1      -3.936  12.586  22.646  0.00  0.00    +0.000 C 
ATOM     27  O   UNL     1      -4.068  12.217  23.810  0.00  0.00    +0.000 OA
ATOM     28  C   UNL     1      -7.915  13.922  20.471  0.00  0.00    +0.000 C 
ENDBRANCH   1  26
TORSDOF 2
ENDMDL
MODEL 5
REMARK VINA RESULT:      -8.1      1.906      3.309
REMARK  Name = 
REMARK  5 active torsions:
REMARK  status: ('A' for Active; 'I' for Inactive)
REMARK    1  A    between atoms: C_1  and  C_2
REMARK    2  A    between atoms: C_2  and  C_3
REMARK    3  A    between atoms: C_7  and  C_8
REMARK    4  A    between atoms: C_11  and  C_13
REMARK    5  A    between atoms: C_13  and  N_14
REMARK                            x       y       z     vdW  Elec       q    Type
REMARK                         _______ _______ _______ _____ _____    ______ ____
ROOT
ATOM      1  C   UNL     1       1.844   8.024  19.830  0.00  0.00    +0.000 C 
ENDROOT
BRANCH   1   2
ATOM      2  N   UNL     1       1.030   9.208  19.968  0.00  0.00    +0.000 N 
ATOM      3  C   UNL     1       0.341   9.716  21.144  0.00  0.00    +0.000 A 
ATOM      4  C   UNL     1       0.379   9.221  22.449  0.00  0.00    +0.000 A 
ATOM      5  C   UNL     1      -0.420   9.879  23.403  0.00  0.00    +0.000 A 
ATOM      6  C   UNL     1      -1.237  10.972  23.078  0.00  0.00    +0.000 A 
ATOM      7  C   UNL     1      -1.256  11.464  21.773  0.00  0.00    +0.000 A 
ATOM      8  C   UNL     1      -2.026  12.538  21.328  0.00  0.00    +0.000 A 
ATOM      9  C   UNL     1      -1.951  12.963  19.976  0.00  0.00    +0.000 A 
ATOM     10  C   UNL     1      -1.116  12.319  19.048  0.00  0.00    +0.000 A 
ATOM     11  C   UNL     1      -0.385  11.260  19.544  0.00  0.00    +0.000 A 
ATOM     12  C   UNL     1      -0.459  10.833  20.849  0.00  0.00    +0.000 A 
ATOM     13  S   UNL     1       0.722  10.227  18.651  0.00  0.00    +0.000 S 
ATOM     14  O   UNL     1       1.745  11.176  18.405  0.00  0.00    +0.000 OA
ATOM     15  O   UNL     1      -0.243   9.722  17.713  0.00  0.00    +0.000 OA
ENDBRANCH   1   2
BRANCH   1  26
ATOM     16  C   UNL     1       2.526   2.012  17.775  0.00  0.00    +0.000 C 
ATOM     17  C   UNL     1       3.342   3.072  18.560  0.00  0.00    +0.000 C 
ATOM     18  C   UNL     1       3.806   2.326  19.835  0.00  0.00    +0.000 C 
ATOM     19  C   UNL     1       2.509   4.284  19.017  0.00  0.00    +0.000 C 
ATOM     20  C   UNL     1       3.219   5.666  19.245  0.00  0.00    +0.000 C 
ATOM     21  C   UNL     1       4.676   6.001  18.952  0.00  0.00    +0.000 C 
ATOM     22  C   UNL     1       5.041   4.971  17.851  0.00  0.00    +0.000 C 
ATOM     23  C   UNL     1       5.955   4.431  19.077  0.00  0.00    +0.000 C 
ATOM     24  C   UNL     1       3.733   5.909  17.069  0.00  0.00    +0.000 C 
ATOM     25  N   UNL     1       2.797   6.431  18.140  0.00  0.00    +0.000 N 
ATOM     26  C   UNL     1       2.547   7.788  18.455  0.00  0.00    +0.000 C 
ATOM     27  O   UNL     1       2.982   8.712  17.773  0.00  0.00    +0.000 OA
ATOM     28  C   UNL     1       4.440   3.545  17.583  0.00  0.00    +0.000 C 
ENDBRANCH   1  26
TORSDOF 2
ENDMDL
MODEL 6
REMARK VINA RESULT:      -8.0      2.164      2.515
REMARK  Name = 
REMARK  5 active torsions:
REMARK  status: ('A' for Active; 'I' for Inactive)
REMARK    1  A    between atoms: C_1  and  C_2
REMARK    2  A    between atoms: C_2  and  C_3
REMARK    3  A    between atoms: C_7  and  C_8
REMARK    4  A    between atoms: C_11  and  C_13
REMARK    5  A    between atoms: C_13  and  N_14
REMARK                            x       y       z     vdW  Elec       q    Type
REMARK                         _______ _______ _______ _____ _____    ______ ____
ROOT
ATOM      1  C   UNL     1       1.736   8.929  18.088  0.00  0.00    +0.000 C 
ENDROOT
BRANCH   1   2
ATOM      2  N   UNL     1       1.022  10.127  18.465  0.00  0.00    +0.000 N 
ATOM      3  C   UNL     1       1.489  11.504  18.487  0.00  0.00    +0.000 A 
ATOM      4  C   UNL     1       2.721  12.007  18.062  0.00  0.00    +0.000 A 
ATOM      5  C   UNL     1       2.938  13.387  18.233  0.00  0.00    +0.000 A 
ATOM      6  C   UNL     1       1.985  14.234  18.816  0.00  0.00    +0.000 A 
ATOM      7  C   UNL     1       0.753  13.721  19.225  0.00  0.00    +0.000 A 
ATOM      8  C   UNL     1      -0.270  14.460  19.818  0.00  0.00    +0.000 A 
ATOM      9  C   UNL     1      -1.490  13.832  20.179  0.00  0.00    +0.000 A 
ATOM     10  C   UNL     1      -1.704  12.461  19.963  0.00  0.00    +0.000 A 
ATOM     11  C   UNL     1      -0.654  11.782  19.380  0.00  0.00    +0.000 A 
ATOM     12  C   UNL     1       0.536  12.378  19.037  0.00  0.00    +0.000 A 
ATOM     13  S   UNL     1      -0.581  10.066  19.005  0.00  0.00    +0.000 S 
ATOM     14  O   UNL     1      -1.540  10.037  17.962  0.00  0.00    +0.000 OA
ATOM     15  O   UNL     1      -0.745   9.595  20.353  0.00  0.00    +0.000 OA
ENDBRANCH   1   2
BRANCH   1  26
ATOM     16  C   UNL     1       6.827   5.188  17.130  0.00  0.00    +0.000 C 
ATOM     17  C   UNL     1       5.285   5.114  16.981  0.00  0.00    +0.000 C 
ATOM     18  C   UNL     1       5.068   4.606  15.535  0.00  0.00    +0.000 C 
ATOM     19  C   UNL     1       4.583   6.480  17.096  0.00  0.00    +0.000 C 
ATOM     20  C   UNL     1       3.091   6.543  17.582  0.00  0.00    +0.000 C 
ATOM     21  C   UNL     1       2.247   5.377  18.082  0.00  0.00    +0.000 C 
ATOM     22  C   UNL     1       3.320   4.380  18.593  0.00  0.00    +0.000 C 
ATOM     23  C   UNL     1       2.747   3.567  17.312  0.00  0.00    +0.000 C 
ATOM     24  C   UNL     1       3.595   5.802  19.645  0.00  0.00    +0.000 C 
ATOM     25  N   UNL     1       3.200   7.054  18.889  0.00  0.00    +0.000 N 
ATOM     26  C   UNL     1       2.162   7.955  19.232  0.00  0.00    +0.000 C 
ATOM     27  O   UNL     1       1.546   7.874  20.290  0.00  0.00    +0.000 OA
ATOM     28  C   UNL     1       4.809   4.196  18.128  0.00  0.00    +0.000 C 
ENDBRANCH   1  26
TORSDOF 2
ENDMDL
MODEL 7
REMARK VINA RESULT:      -8.0      4.055      9.102
REMARK  Name = 
REMARK  5 active torsions:
REMARK  status: ('A' for Active; 'I' for Inactive)
REMARK    1  A    between atoms: C_1  and  C_2
REMARK    2  A    between atoms: C_2  and  C_3
REMARK    3  A    between atoms: C_7  and  C_8
REMARK    4  A    between atoms: C_11  and  C_13
REMARK    5  A    between atoms: C_13  and  N_14
REMARK                            x       y       z     vdW  Elec       q    Type
REMARK                         _______ _______ _______ _____ _____    ______ ____
ROOT
ATOM      1  C   UNL     1      -2.011  13.702  20.955  0.00  0.00    +0.000 C 
ENDROOT
BRANCH   1   2
ATOM      2  N   UNL     1      -1.282  12.534  20.520  0.00  0.00    +0.000 N 
ATOM      3  C   UNL     1      -0.821  11.397  21.302  0.00  0.00    +0.000 A 
ATOM      4  C   UNL     1      -1.054  11.124  22.652  0.00  0.00    +0.000 A 
ATOM      5  C   UNL     1      -0.453   9.966  23.180  0.00  0.00    +0.000 A 
ATOM      6  C   UNL     1       0.359   9.119  22.411  0.00  0.00    +0.000 A 
ATOM      7  C   UNL     1       0.573   9.397  21.060  0.00  0.00    +0.000 A 
ATOM      8  C   UNL     1       1.360   8.636  20.197  0.00  0.00    +0.000 A 
ATOM      9  C   UNL     1       1.493   9.007  18.833  0.00  0.00    +0.000 A 
ATOM     10  C   UNL     1       0.852  10.145  18.315  0.00  0.00    +0.000 A 
ATOM     11  C   UNL     1       0.094  10.861  19.218  0.00  0.00    +0.000 A 
ATOM     12  C   UNL     1      -0.031  10.517  20.543  0.00  0.00    +0.000 A 
ATOM     13  S   UNL     1      -0.803  12.340  18.908  0.00  0.00    +0.000 S 
ATOM     14  O   UNL     1      -1.811  11.804  18.068  0.00  0.00    +0.000 OA
ATOM     15  O   UNL     1       0.324  13.140  18.515  0.00  0.00    +0.000 OA
ENDBRANCH   1   2
BRANCH   1  26
ATOM     16  C   UNL     1      -6.991  10.227  18.968  0.00  0.00    +0.000 C 
ATOM     17  C   UNL     1      -6.569  11.717  19.041  0.00  0.00    +0.000 C 
ATOM     18  C   UNL     1      -6.805  12.249  17.607  0.00  0.00    +0.000 C 
ATOM     19  C   UNL     1      -5.078  11.925  19.365  0.00  0.00    +0.000 C 
ATOM     20  C   UNL     1      -4.618  13.252  20.068  0.00  0.00    +0.000 C 
ATOM     21  C   UNL     1      -5.520  14.363  20.593  0.00  0.00    +0.000 C 
ATOM     22  C   UNL     1      -6.852  13.616  20.861  0.00  0.00    +0.000 C 
ATOM     23  C   UNL     1      -7.288  14.562  19.617  0.00  0.00    +0.000 C 
ATOM     24  C   UNL     1      -5.723  12.781  21.970  0.00  0.00    +0.000 C 
ATOM     25  N   UNL     1      -4.328  12.837  21.382  0.00  0.00    +0.000 N 
ATOM     26  C   UNL     1      -3.201  13.484  21.943  0.00  0.00    +0.000 C 
ATOM     27  O   UNL     1      -3.215  13.969  23.071  0.00  0.00    +0.000 OA
ATOM     28  C   UNL     1      -7.428  12.329  20.169  0.00  0.00    +0.000 C 
ENDBRANCH   1  26
TORSDOF 2
ENDMDL
MODEL 8
REMARK VINA RESULT:      -8.0      1.602      2.571
REMARK  Name = 
REMARK  5 active torsions:
REMARK  status: ('A' for Active; 'I' for Inactive)
REMARK    1  A    between atoms: C_1  and  C_2
REMARK    2  A    between atoms: C_2  and  C_3
REMARK    3  A    between atoms: C_7  and  C_8
REMARK    4  A    between atoms: C_11  and  C_13
REMARK    5  A    between atoms: C_13  and  N_14
REMARK                            x       y       z     vdW  Elec       q    Type
REMARK                         _______ _______ _______ _____ _____    ______ ____
ROOT
ATOM      1  C   UNL     1       1.885   8.503  19.124  0.00  0.00    +0.000 C 
ENDROOT
BRANCH   1   2
ATOM      2  N   UNL     1       0.962   9.502  19.609  0.00  0.00    +0.000 N 
ATOM      3  C   UNL     1       0.491   9.734  20.965  0.00  0.00    +0.000 A 
ATOM      4  C   UNL     1       0.891   9.096  22.141  0.00  0.00    +0.000 A 
ATOM      5  C   UNL     1       0.241   9.483  23.328  0.00  0.00    +0.000 A 
ATOM      6  C   UNL     1      -0.775  10.450  23.351  0.00  0.00    +0.000 A 
ATOM      7  C   UNL     1      -1.156  11.089  22.171  0.00  0.00    +0.000 A 
ATOM      8  C   UNL     1      -2.151  12.060  22.066  0.00  0.00    +0.000 A 
ATOM      9  C   UNL     1      -2.443  12.655  20.812  0.00  0.00    +0.000 A 
ATOM     10  C   UNL     1      -1.755  12.284  19.644  0.00  0.00    +0.000 A 
ATOM     11  C   UNL     1      -0.788  11.315  19.809  0.00  0.00    +0.000 A 
ATOM     12  C   UNL     1      -0.506  10.724  21.018  0.00  0.00    +0.000 A 
ATOM     13  S   UNL     1       0.225  10.607  18.559  0.00  0.00    +0.000 S 
ATOM     14  O   UNL     1       1.021  11.742  18.264  0.00  0.00    +0.000 OA
ATOM     15  O   UNL     1      -0.844  10.063  17.767  0.00  0.00    +0.000 OA
ENDBRANCH   1   2
BRANCH   1  26
ATOM     16  C   UNL     1       6.819   4.652  17.839  0.00  0.00    +0.000 C 
ATOM     17  C   UNL     1       5.325   4.797  17.448  0.00  0.00    +0.000 C 
ATOM     18  C   UNL     1       5.332   4.756  15.901  0.00  0.00    +0.000 C 
ATOM     19  C   UNL     1       4.701   6.141  17.867  0.00  0.00    +0.000 C 
ATOM     20  C   UNL     1       3.154   6.228  18.124  0.00  0.00    +0.000 C 
ATOM     21  C   UNL     1       2.165   5.069  18.117  0.00  0.00    +0.000 C 
ATOM     22  C   UNL     1       3.068   3.854  18.455  0.00  0.00    +0.000 C 
ATOM     23  C   UNL     1       2.676   3.514  16.918  0.00  0.00    +0.000 C 
ATOM     24  C   UNL     1       3.244   4.872  19.916  0.00  0.00    +0.000 C 
ATOM     25  N   UNL     1       3.066   6.325  19.526  0.00  0.00    +0.000 N 
ATOM     26  C   UNL     1       2.044   7.198  19.968  0.00  0.00    +0.000 C 
ATOM     27  O   UNL     1       1.248   6.886  20.850  0.00  0.00    +0.000 OA
ATOM     28  C   UNL     1       4.600   3.647  18.180  0.00  0.00    +0.000 C 
ENDBRANCH   1  26
TORSDOF 2
ENDMDL
MODEL 9
REMARK VINA RESULT:      -7.9      1.746      8.028
REMARK  Name = 
REMARK  5 active torsions:
REMARK  status: ('A' for Active; 'I' for Inactive)
REMARK    1  A    between atoms: C_1  and  C_2
REMARK    2  A    between atoms: C_2  and  C_3
REMARK    3  A    between atoms: C_7  and  C_8
REMARK    4  A    between atoms: C_11  and  C_13
REMARK    5  A    between atoms: C_13  and  N_14
REMARK                            x       y       z     vdW  Elec       q    Type
REMARK                         _______ _______ _______ _____ _____    ______ ____
ROOT
ATOM      1  C   UNL     1       2.217   7.801  19.612  0.00  0.00    +0.000 C 
ENDROOT
BRANCH   1   2
ATOM      2  N   UNL     1       2.518   6.405  19.394  0.00  0.00    +0.000 N 
ATOM      3  C   UNL     1       3.344   5.795  18.365  0.00  0.00    +0.000 A 
ATOM      4  C   UNL     1       4.119   6.427  17.390  0.00  0.00    +0.000 A 
ATOM      5  C   UNL     1       4.798   5.596  16.478  0.00  0.00    +0.000 A 
ATOM      6  C   UNL     1       4.702   4.197  16.517  0.00  0.00    +0.000 A 
ATOM      7  C   UNL     1       3.935   3.578  17.504  0.00  0.00    +0.000 A 
ATOM      8  C   UNL     1       3.761   2.202  17.644  0.00  0.00    +0.000 A 
ATOM      9  C   UNL     1       2.967   1.683  18.700  0.00  0.00    +0.000 A 
ATOM     10  C   UNL     1       2.331   2.527  19.625  0.00  0.00    +0.000 A 
ATOM     11  C   UNL     1       2.534   3.878  19.431  0.00  0.00    +0.000 A 
ATOM     12  C   UNL     1       3.291   4.391  18.405  0.00  0.00    +0.000 A 
ATOM     13  S   UNL     1       1.861   5.196  20.380  0.00  0.00    +0.000 S 
ATOM     14  O   UNL     1       2.580   4.979  21.583  0.00  0.00    +0.000 OA
ATOM     15  O   UNL     1       0.479   4.896  20.125  0.00  0.00    +0.000 OA
ENDBRANCH   1   2
BRANCH   1  26
ATOM     16  C   UNL     1      -2.914  11.437  18.481  0.00  0.00    +0.000 C 
ATOM     17  C   UNL     1      -1.442  11.613  18.940  0.00  0.00    +0.000 C 
ATOM     18  C   UNL     1      -0.882  12.712  18.005  0.00  0.00    +0.000 C 
ATOM     19  C   UNL     1      -0.575  10.356  18.739  0.00  0.00    +0.000 C 
ATOM     20  C   UNL     1       0.677  10.127  19.659  0.00  0.00    +0.000 C 
ATOM     21  C   UNL     1       1.096  10.976  20.853  0.00  0.00    +0.000 C 
ATOM     22  C   UNL     1      -0.245  11.614  21.299  0.00  0.00    +0.000 C 
ATOM     23  C   UNL     1       0.540  12.925  20.754  0.00  0.00    +0.000 C 
ATOM     24  C   UNL     1      -0.570   9.868  21.513  0.00  0.00    +0.000 C 
ATOM     25  N   UNL     1       0.261   9.089  20.515  0.00  0.00    +0.000 N 
ATOM     26  C   UNL     1       1.286   8.159  20.813  0.00  0.00    +0.000 C 
ATOM     27  O   UNL     1       1.518   7.781  21.959  0.00  0.00    +0.000 OA
ATOM     28  C   UNL     1      -1.523  11.944  20.446  0.00  0.00    +0.000 C 
ENDBRANCH   1  26
TORSDOF 2
ENDMDL
