MODEL 1
REMARK VINA RESULT:      -9.3      0.000      0.000
REMARK  Name = 
REMARK  5 active torsions:
REMARK  status: ('A' for Active; 'I' for Inactive)
REMARK    1  A    between atoms: C_2  and  C_3
REMARK    2  A    between atoms: C_3  and  N_4
REMARK    3  A    between atoms: N_13  and  C_14
REMARK    4  A    between atoms: C_17  and  S_18
REMARK    5  A    between atoms: S_18  and  N_21
REMARK                            x       y       z     vdW  Elec       q    Type
REMARK                         _______ _______ _______ _____ _____    ______ ____
ROOT
ATOM      1  C   UNL     1       2.445   7.187  19.128  0.00  0.00    +0.000 A 
ATOM      2  C   UNL     1       2.271   8.049  18.042  0.00  0.00    +0.000 A 
ATOM      3  C   UNL     1       1.591   9.260  18.196  0.00  0.00    +0.000 A 
ATOM      4  C   UNL     1       1.072   9.607  19.444  0.00  0.00    +0.000 A 
ATOM      5  C   UNL     1       1.194   8.734  20.529  0.00  0.00    +0.000 A 
ATOM      6  C   UNL     1       1.862   7.515  20.360  0.00  0.00    +0.000 A 
ENDROOT
BRANCH   1   9
ATOM      7  O   UNL     1       1.527   4.396  19.147  0.00  0.00    +0.000 OA
ATOM      8  C   UNL     1       2.716   4.704  19.057  0.00  0.00    +0.000 C 
ATOM      9  N   UNL     1       3.207   6.001  19.059  0.00  0.00    +0.000 N 
ATOM     10  H   UNL     1       4.197   6.123  18.841  0.00  0.00    +0.000 HD
BRANCH   8  11
ATOM     11  C   UNL     1       3.753   3.596  19.004  0.00  0.00    +0.000 C 
BRANCH  11  12
ATOM     12  N   UNL     1       5.033   4.014  18.483  0.00  0.00    +0.000 N 
ATOM     13  N   UNL     1       6.026   4.317  19.349  0.00  0.00    +0.000 NA
ATOM     14  N   UNL     1       7.068   4.718  18.637  0.00  0.00    +0.000 NA
ATOM     15  C   UNL     1       6.735   4.638  17.312  0.00  0.00    +0.000 A 
ATOM     16  C   UNL     1       7.483   4.937  16.165  0.00  0.00    +0.000 A 
ATOM     17  C   UNL     1       6.884   4.759  14.912  0.00  0.00    +0.000 A 
ATOM     18  C   UNL     1       5.571   4.294  14.805  0.00  0.00    +0.000 A 
ATOM     19  C   UNL     1       4.807   3.995  15.941  0.00  0.00    +0.000 A 
ATOM     20  C   UNL     1       5.426   4.180  17.182  0.00  0.00    +0.000 A 
ENDBRANCH  11  12
ENDBRANCH   8  11
ENDBRANCH   1   9
BRANCH   4  21
ATOM     21  S   UNL     1       0.400  11.246  19.680  0.00  0.00    +0.000 S 
ATOM     22  O   UNL     1      -0.580  11.166  20.742  0.00  0.00    +0.000 OA
ATOM     23  O   UNL     1       1.540  12.135  19.798  0.00  0.00    +0.000 OA
BRANCH  21  24
ATOM     24  N   UNL     1      -0.317  11.598  18.211  0.00  0.00    +0.000 N 
ATOM     25  C   UNL     1      -1.650  11.214  18.105  0.00  0.00    +0.000 A 
ATOM     26  N   UNL     1      -2.581  11.988  18.658  0.00  0.00    +0.000 NA
ATOM     27  C   UNL     1      -3.852  11.610  18.434  0.00  0.00    +0.000 A 
ATOM     28  C   UNL     1      -4.190  10.498  17.697  0.00  0.00    +0.000 A 
ATOM     29  C   UNL     1      -3.134   9.771  17.194  0.00  0.00    +0.000 A 
ATOM     30  N   UNL     1      -1.845  10.113  17.376  0.00  0.00    +0.000 NA
ATOM     31  H   UNL     1       0.212  11.184  17.454  0.00  0.00    +0.000 HD
ENDBRANCH  21  24
ENDBRANCH   4  21
TORSDOF 5
ENDMDL
MODEL 2
REMARK VINA RESULT:      -9.0      0.940      1.591
REMARK  Name = 
REMARK  5 active torsions:
REMARK  status: ('A' for Active; 'I' for Inactive)
REMARK    1  A    between atoms: C_2  and  C_3
REMARK    2  A    between atoms: C_3  and  N_4
REMARK    3  A    between atoms: N_13  and  C_14
REMARK    4  A    between atoms: C_17  and  S_18
REMARK    5  A    between atoms: S_18  and  N_21
REMARK                            x       y       z     vdW  Elec       q    Type
REMARK                         _______ _______ _______ _____ _____    ______ ____
ROOT
ATOM      1  C   UNL     1       2.309   7.433  19.306  0.00  0.00    +0.000 A 
ATOM      2  C   UNL     1       1.747   7.870  20.508  0.00  0.00    +0.000 A 
ATOM      3  C   UNL     1       0.969   9.030  20.550  0.00  0.00    +0.000 A 
ATOM      4  C   UNL     1       0.759   9.764  19.381  0.00  0.00    +0.000 A 
ATOM      5  C   UNL     1       1.356   9.369  18.181  0.00  0.00    +0.000 A 
ATOM      6  C   UNL     1       2.148   8.214  18.154  0.00  0.00    +0.000 A 
ENDROOT
BRANCH   1   9
ATOM      7  O   UNL     1       1.472   4.714  20.043  0.00  0.00    +0.000 OA
ATOM      8  C   UNL     1       2.567   4.958  19.534  0.00  0.00    +0.000 C 
ATOM      9  N   UNL     1       3.020   6.220  19.181  0.00  0.00    +0.000 N 
ATOM     10  H   UNL     1       3.886   6.268  18.643  0.00  0.00    +0.000 HD
BRANCH   8  11
ATOM     11  C   UNL     1       3.542   3.814  19.324  0.00  0.00    +0.000 C 
BRANCH  11  12
ATOM     12  N   UNL     1       4.838   4.227  18.840  0.00  0.00    +0.000 N 
ATOM     13  N   UNL     1       5.760   4.663  19.727  0.00  0.00    +0.000 NA
ATOM     14  N   UNL     1       6.832   5.030  19.041  0.00  0.00    +0.000 NA
ATOM     15  C   UNL     1       6.590   4.794  17.715  0.00  0.00    +0.000 A 
ATOM     16  C   UNL     1       7.401   5.001  16.591  0.00  0.00    +0.000 A 
ATOM     17  C   UNL     1       6.893   4.665  15.330  0.00  0.00    +0.000 A 
ATOM     18  C   UNL     1       5.607   4.135  15.194  0.00  0.00    +0.000 A 
ATOM     19  C   UNL     1       4.781   3.927  16.307  0.00  0.00    +0.000 A 
ATOM     20  C   UNL     1       5.310   4.270  17.556  0.00  0.00    +0.000 A 
ENDBRANCH  11  12
ENDBRANCH   8  11
ENDBRANCH   1   9
BRANCH   4  21
ATOM     21  S   UNL     1      -0.410  11.115  19.402  0.00  0.00    +0.000 S 
ATOM     22  O   UNL     1      -0.318  11.750  20.700  0.00  0.00    +0.000 OA
ATOM     23  O   UNL     1      -0.168  11.876  18.192  0.00  0.00    +0.000 OA
BRANCH  21  24
ATOM     24  N   UNL     1      -1.890  10.364  19.193  0.00  0.00    +0.000 N 
ATOM     25  C   UNL     1      -2.451  10.520  17.930  0.00  0.00    +0.000 A 
ATOM     26  N   UNL     1      -2.007   9.751  16.937  0.00  0.00    +0.000 NA
ATOM     27  C   UNL     1      -2.659   9.886  15.769  0.00  0.00    +0.000 A 
ATOM     28  C   UNL     1      -3.707  10.759  15.585  0.00  0.00    +0.000 A 
ATOM     29  C   UNL     1      -4.058  11.510  16.685  0.00  0.00    +0.000 A 
ATOM     30  N   UNL     1      -3.449  11.405  17.880  0.00  0.00    +0.000 NA
ATOM     31  H   UNL     1      -2.548  10.684  19.893  0.00  0.00    +0.000 HD
ENDBRANCH  21  24
ENDBRANCH   4  21
TORSDOF 5
ENDMDL
MODEL 3
REMARK VINA RESULT:      -8.9      1.979      2.978
REMARK  Name = 
REMARK  5 active torsions:
REMARK  status: ('A' for Active; 'I' for Inactive)
REMARK    1  A    between atoms: C_2  and  C_3
REMARK    2  A    between atoms: C_3  and  N_4
REMARK    3  A    between atoms: N_13  and  C_14
REMARK    4  A    between atoms: C_17  and  S_18
REMARK    5  A    between atoms: S_18  and  N_21
REMARK                            x       y       z     vdW  Elec       q    Type
REMARK                         _______ _______ _______ _____ _____    ______ ____
ROOT
ATOM      1  C   UNL     1       2.330   7.461  19.580  0.00  0.00    +0.000 A 
ATOM      2  C   UNL     1       1.602   7.921  20.680  0.00  0.00    +0.000 A 
ATOM      3  C   UNL     1       0.741   9.015  20.557  0.00  0.00    +0.000 A 
ATOM      4  C   UNL     1       0.617   9.662  19.326  0.00  0.00    +0.000 A 
ATOM      5  C   UNL     1       1.376   9.246  18.229  0.00  0.00    +0.000 A 
ATOM      6  C   UNL     1       2.248   8.159  18.367  0.00  0.00    +0.000 A 
ENDROOT
BRANCH   1   9
ATOM      7  O   UNL     1       1.539   4.645  19.288  0.00  0.00    +0.000 OA
ATOM      8  C   UNL     1       2.709   4.994  19.458  0.00  0.00    +0.000 C 
ATOM      9  N   UNL     1       3.136   6.303  19.616  0.00  0.00    +0.000 N 
ATOM     10  H   UNL     1       4.145   6.465  19.610  0.00  0.00    +0.000 HD
BRANCH   8  11
ATOM     11  C   UNL     1       3.778   3.922  19.568  0.00  0.00    +0.000 C 
BRANCH  11  12
ATOM     12  N   UNL     1       5.035   4.279  18.954  0.00  0.00    +0.000 N 
ATOM     13  N   UNL     1       6.058   4.678  19.742  0.00  0.00    +0.000 NA
ATOM     14  N   UNL     1       7.071   4.998  18.949  0.00  0.00    +0.000 NA
ATOM     15  C   UNL     1       6.686   4.770  17.655  0.00  0.00    +0.000 A 
ATOM     16  C   UNL     1       7.388   4.940  16.454  0.00  0.00    +0.000 A 
ATOM     17  C   UNL     1       6.742   4.623  15.253  0.00  0.00    +0.000 A 
ATOM     18  C   UNL     1       5.428   4.147  15.250  0.00  0.00    +0.000 A 
ATOM     19  C   UNL     1       4.710   3.977  16.441  0.00  0.00    +0.000 A 
ATOM     20  C   UNL     1       5.376   4.300  17.629  0.00  0.00    +0.000 A 
ENDBRANCH  11  12
ENDBRANCH   8  11
ENDBRANCH   1   9
BRANCH   4  21
ATOM     21  S   UNL     1      -0.642  10.913  19.126  0.00  0.00    +0.000 S 
ATOM     22  O   UNL     1      -1.804  10.273  18.545  0.00  0.00    +0.000 OA
ATOM     23  O   UNL     1      -0.740  11.594  20.403  0.00  0.00    +0.000 OA
BRANCH  21  24
ATOM     24  N   UNL     1       0.048  12.007  18.066  0.00  0.00    +0.000 N 
ATOM     25  C   UNL     1       0.730  13.057  18.671  0.00  0.00    +0.000 A 
ATOM     26  N   UNL     1       1.962  12.838  19.126  0.00  0.00    +0.000 NA
ATOM     27  C   UNL     1       2.598  13.919  19.611  0.00  0.00    +0.000 A 
ATOM     28  C   UNL     1       2.031  15.173  19.654  0.00  0.00    +0.000 A 
ATOM     29  C   UNL     1       0.745  15.263  19.170  0.00  0.00    +0.000 A 
ATOM     30  N   UNL     1       0.068  14.217  18.661  0.00  0.00    +0.000 NA
ATOM     31  H   UNL     1      -0.655  12.382  17.441  0.00  0.00    +0.000 HD
ENDBRANCH  21  24
ENDBRANCH   4  21
TORSDOF 5
ENDMDL
MODEL 4
REMARK VINA RESULT:      -8.7      1.362      1.719
REMARK  Name = 
REMARK  5 active torsions:
REMARK  status: ('A' for Active; 'I' for Inactive)
REMARK    1  A    between atoms: C_2  and  C_3
REMARK    2  A    between atoms: C_3  and  N_4
REMARK    3  A    between atoms: N_13  and  C_14
REMARK    4  A    between atoms: C_17  and  S_18
REMARK    5  A    between atoms: S_18  and  N_21
REMARK                            x       y       z     vdW  Elec       q    Type
REMARK                         _______ _______ _______ _____ _____    ______ ____
ROOT
ATOM      1  C   UNL     1       3.098   7.001  18.216  0.00  0.00    +0.000 A 
ATOM      2  C   UNL     1       2.733   8.041  17.358  0.00  0.00    +0.000 A 
ATOM      3  C   UNL     1       1.879   9.058  17.794  0.00  0.00    +0.000 A 
ATOM      4  C   UNL     1       1.378   9.029  19.096  0.00  0.00    +0.000 A 
ATOM      5  C   UNL     1       1.694   7.970  19.952  0.00  0.00    +0.000 A 
ATOM      6  C   UNL     1       2.536   6.947  19.500  0.00  0.00    +0.000 A 
ENDROOT
BRANCH   1   9
ATOM      7  O   UNL     1       2.614   4.235  17.349  0.00  0.00    +0.000 OA
ATOM      8  C   UNL     1       3.745   4.712  17.450  0.00  0.00    +0.000 C 
ATOM      9  N   UNL     1       4.032   6.003  17.868  0.00  0.00    +0.000 N 
ATOM     10  H   UNL     1       5.000   6.315  17.775  0.00  0.00    +0.000 HD
BRANCH   8  11
ATOM     11  C   UNL     1       4.939   3.820  17.161  0.00  0.00    +0.000 C 
BRANCH  11  12
ATOM     12  N   UNL     1       5.917   4.413  16.279  0.00  0.00    +0.000 N 
ATOM     13  N   UNL     1       6.794   5.310  16.783  0.00  0.00    +0.000 NA
ATOM     14  N   UNL     1       7.542   5.743  15.779  0.00  0.00    +0.000 NA
ATOM     15  C   UNL     1       7.148   5.091  14.642  0.00  0.00    +0.000 A 
ATOM     16  C   UNL     1       7.624   5.185  13.328  0.00  0.00    +0.000 A 
ATOM     17  C   UNL     1       7.029   4.387  12.343  0.00  0.00    +0.000 A 
ATOM     18  C   UNL     1       5.984   3.516  12.663  0.00  0.00    +0.000 A 
ATOM     19  C   UNL     1       5.492   3.414  13.970  0.00  0.00    +0.000 A 
ATOM     20  C   UNL     1       6.102   4.220  14.937  0.00  0.00    +0.000 A 
ENDBRANCH  11  12
ENDBRANCH   8  11
ENDBRANCH   1   9
BRANCH   4  21
ATOM     21  S   UNL     1       0.470  10.440  19.709  0.00  0.00    +0.000 S 
ATOM     22  O   UNL     1      -0.599   9.939  20.547  0.00  0.00    +0.000 OA
ATOM     23  O   UNL     1       1.459  11.353  20.248  0.00  0.00    +0.000 OA
BRANCH  21  24
ATOM     24  N   UNL     1      -0.126  11.162  18.324  0.00  0.00    +0.000 N 
ATOM     25  C   UNL     1      -1.486  10.967  18.102  0.00  0.00    +0.000 A 
ATOM     26  N   UNL     1      -2.355  11.718  18.776  0.00  0.00    +0.000 NA
ATOM     27  C   UNL     1      -3.646  11.545  18.442  0.00  0.00    +0.000 A 
ATOM     28  C   UNL     1      -4.064  10.651  17.482  0.00  0.00    +0.000 A 
ATOM     29  C   UNL     1      -3.069   9.922  16.871  0.00  0.00    +0.000 A 
ATOM     30  N   UNL     1      -1.761  10.066  17.157  0.00  0.00    +0.000 NA
ATOM     31  H   UNL     1       0.393  10.849  17.513  0.00  0.00    +0.000 HD
ENDBRANCH  21  24
ENDBRANCH   4  21
TORSDOF 5
ENDMDL
MODEL 5
REMARK VINA RESULT:      -8.6      2.076      2.731
REMARK  Name = 
REMARK  5 active torsions:
REMARK  status: ('A' for Active; 'I' for Inactive)
REMARK    1  A    between atoms: C_2  and  C_3
REMARK    2  A    between atoms: C_3  and  N_4
REMARK    3  A    between atoms: N_13  and  C_14
REMARK    4  A    between atoms: C_17  and  S_18
REMARK    5  A    between atoms: S_18  and  N_21
REMARK                            x       y       z     vdW  Elec       q    Type
REMARK                         _______ _______ _______ _____ _____    ______ ____
ROOT
ATOM      1  C   UNL     1       2.478   7.280  19.204  0.00  0.00    +0.000 A 
ATOM      2  C   UNL     1       1.865   7.730  20.375  0.00  0.00    +0.000 A 
ATOM      3  C   UNL     1       1.062   8.874  20.364  0.00  0.00    +0.000 A 
ATOM      4  C   UNL     1       0.879   9.578  19.173  0.00  0.00    +0.000 A 
ATOM      5  C   UNL     1       1.525   9.170  18.004  0.00  0.00    +0.000 A 
ATOM      6  C   UNL     1       2.342   8.033  18.029  0.00  0.00    +0.000 A 
ENDROOT
BRANCH   1   9
ATOM      7  O   UNL     1       1.502   4.512  19.044  0.00  0.00    +0.000 OA
ATOM      8  C   UNL     1       2.701   4.796  19.042  0.00  0.00    +0.000 C 
ATOM      9  N   UNL     1       3.217   6.080  19.131  0.00  0.00    +0.000 N 
ATOM     10  H   UNL     1       4.222   6.187  18.980  0.00  0.00    +0.000 HD
BRANCH   8  11
ATOM     11  C   UNL     1       3.715   3.667  19.005  0.00  0.00    +0.000 C 
BRANCH  11  12
ATOM     12  N   UNL     1       5.005   4.053  18.482  0.00  0.00    +0.000 N 
ATOM     13  N   UNL     1       6.007   4.325  19.347  0.00  0.00    +0.000 NA
ATOM     14  N   UNL     1       7.058   4.702  18.634  0.00  0.00    +0.000 NA
ATOM     15  C   UNL     1       6.720   4.636  17.309  0.00  0.00    +0.000 A 
ATOM     16  C   UNL     1       7.473   4.921  16.162  0.00  0.00    +0.000 A 
ATOM     17  C   UNL     1       6.866   4.764  14.909  0.00  0.00    +0.000 A 
ATOM     18  C   UNL     1       5.541   4.334  14.805  0.00  0.00    +0.000 A 
ATOM     19  C   UNL     1       4.772   4.051  15.941  0.00  0.00    +0.000 A 
ATOM     20  C   UNL     1       5.399   4.214  17.181  0.00  0.00    +0.000 A 
ENDBRANCH  11  12
ENDBRANCH   8  11
ENDBRANCH   1   9
BRANCH   4  21
ATOM     21  S   UNL     1      -0.318  10.904  19.123  0.00  0.00    +0.000 S 
ATOM     22  O   UNL     1       0.373  12.098  18.687  0.00  0.00    +0.000 OA
ATOM     23  O   UNL     1      -1.451  10.395  18.374  0.00  0.00    +0.000 OA
BRANCH  21  24
ATOM     24  N   UNL     1      -0.831  11.038  20.709  0.00  0.00    +0.000 N 
ATOM     25  C   UNL     1      -1.038  12.342  21.147  0.00  0.00    +0.000 A 
ATOM     26  N   UNL     1      -2.172  12.954  20.810  0.00  0.00    +0.000 NA
ATOM     27  C   UNL     1      -2.350  14.174  21.347  0.00  0.00    +0.000 A 
ATOM     28  C   UNL     1      -1.434  14.773  22.181  0.00  0.00    +0.000 A 
ATOM     29  C   UNL     1      -0.294  14.043  22.437  0.00  0.00    +0.000 A 
ATOM     30  N   UNL     1      -0.072  12.814  21.938  0.00  0.00    +0.000 NA
ATOM     31  H   UNL     1      -0.177  10.577  21.330  0.00  0.00    +0.000 HD
ENDBRANCH  21  24
ENDBRANCH   4  21
TORSDOF 5
ENDMDL
MODEL 6
REMARK VINA RESULT:      -8.6      2.115      3.008
REMARK  Name = 
REMARK  5 active torsions:
REMARK  status: ('A' for Active; 'I' for Inactive)
REMARK    1  A    between atoms: C_2  and  C_3
REMARK    2  A    between atoms: C_3  and  N_4
REMARK    3  A    between atoms: N_13  and  C_14
REMARK    4  A    between atoms: C_17  and  S_18
REMARK    5  A    between atoms: S_18  and  N_21
REMARK                            x       y       z     vdW  Elec       q    Type
REMARK                         _______ _______ _______ _____ _____    ______ ____
ROOT
ATOM      1  C   UNL     1       2.315   7.296  19.447  0.00  0.00    +0.000 A 
ATOM      2  C   UNL     1       2.163   8.192  18.386  0.00  0.00    +0.000 A 
ATOM      3  C   UNL     1       1.467   9.392  18.562  0.00  0.00    +0.000 A 
ATOM      4  C   UNL     1       0.911   9.692  19.806  0.00  0.00    +0.000 A 
ATOM      5  C   UNL     1       1.011   8.784  20.863  0.00  0.00    +0.000 A 
ATOM      6  C   UNL     1       1.695   7.577  20.672  0.00  0.00    +0.000 A 
ENDROOT
BRANCH   1   9
ATOM      7  O   UNL     1       1.428   4.494  19.446  0.00  0.00    +0.000 OA
ATOM      8  C   UNL     1       2.612   4.816  19.349  0.00  0.00    +0.000 C 
ATOM      9  N   UNL     1       3.088   6.119  19.359  0.00  0.00    +0.000 N 
ATOM     10  H   UNL     1       4.075   6.254  19.134  0.00  0.00    +0.000 HD
BRANCH   8  11
ATOM     11  C   UNL     1       3.661   3.721  19.276  0.00  0.00    +0.000 C 
BRANCH  11  12
ATOM     12  N   UNL     1       4.938   4.163  18.768  0.00  0.00    +0.000 N 
ATOM     13  N   UNL     1       5.884   4.573  19.642  0.00  0.00    +0.000 NA
ATOM     14  N   UNL     1       6.932   4.974  18.938  0.00  0.00    +0.000 NA
ATOM     15  C   UNL     1       6.650   4.785  17.612  0.00  0.00    +0.000 A 
ATOM     16  C   UNL     1       7.424   5.040  16.472  0.00  0.00    +0.000 A 
ATOM     17  C   UNL     1       6.880   4.746  15.215  0.00  0.00    +0.000 A 
ATOM     18  C   UNL     1       5.594   4.211  15.100  0.00  0.00    +0.000 A 
ATOM     19  C   UNL     1       4.805   3.955  16.228  0.00  0.00    +0.000 A 
ATOM     20  C   UNL     1       5.370   4.257  17.472  0.00  0.00    +0.000 A 
ENDBRANCH  11  12
ENDBRANCH   8  11
ENDBRANCH   1   9
BRANCH   4  21
ATOM     21  S   UNL     1       0.218  11.317  20.078  0.00  0.00    +0.000 S 
ATOM     22  O   UNL     1      -1.191  11.147  20.364  0.00  0.00    +0.000 OA
ATOM     23  O   UNL     1       1.089  11.971  21.035  0.00  0.00    +0.000 OA
BRANCH  21  24
ATOM     24  N   UNL     1       0.456  12.101  18.620  0.00  0.00    +0.000 N 
ATOM     25  C   UNL     1       1.317  13.192  18.677  0.00  0.00    +0.000 A 
ATOM     26  N   UNL     1       2.629  12.967  18.682  0.00  0.00    +0.000 NA
ATOM     27  C   UNL     1       3.402  14.067  18.639  0.00  0.00    +0.000 A 
ATOM     28  C   UNL     1       2.895  15.346  18.604  0.00  0.00    +0.000 A 
ATOM     29  C   UNL     1       1.521  15.443  18.622  0.00  0.00    +0.000 A 
ATOM     30  N   UNL     1       0.701  14.376  18.649  0.00  0.00    +0.000 NA
ATOM     31  H   UNL     1      -0.431  12.395  18.231  0.00  0.00    +0.000 HD
ENDBRANCH  21  24
ENDBRANCH   4  21
TORSDOF 5
ENDMDL
MODEL 7
REMARK VINA RESULT:      -8.6      2.314      2.759
REMARK  Name = 
REMARK  5 active torsions:
REMARK  status: ('A' for Active; 'I' for Inactive)
REMARK    1  A    between atoms: C_2  and  C_3
REMARK    2  A    between atoms: C_3  and  N_4
REMARK    3  A    between atoms: N_13  and  C_14
REMARK    4  A    between atoms: C_17  and  S_18
REMARK    5  A    between atoms: S_18  and  N_21
REMARK                            x       y       z     vdW  Elec       q    Type
REMARK                         _______ _______ _______ _____ _____    ______ ____
ROOT
ATOM      1  C   UNL     1       2.295   7.309  19.659  0.00  0.00    +0.000 A 
ATOM      2  C   UNL     1       2.162   8.162  18.562  0.00  0.00    +0.000 A 
ATOM      3  C   UNL     1       1.393   9.325  18.653  0.00  0.00    +0.000 A 
ATOM      4  C   UNL     1       0.743   9.632  19.849  0.00  0.00    +0.000 A 
ATOM      5  C   UNL     1       0.824   8.764  20.941  0.00  0.00    +0.000 A 
ATOM      6  C   UNL     1       1.583   7.592  20.834  0.00  0.00    +0.000 A 
ENDROOT
BRANCH   1   9
ATOM      7  O   UNL     1       1.583   4.477  19.322  0.00  0.00    +0.000 OA
ATOM      8  C   UNL     1       2.744   4.857  19.482  0.00  0.00    +0.000 C 
ATOM      9  N   UNL     1       3.135   6.175  19.661  0.00  0.00    +0.000 N 
ATOM     10  H   UNL     1       4.138   6.368  19.644  0.00  0.00    +0.000 HD
BRANCH   8  11
ATOM     11  C   UNL     1       3.846   3.815  19.556  0.00  0.00    +0.000 C 
BRANCH  11  12
ATOM     12  N   UNL     1       5.084   4.224  18.934  0.00  0.00    +0.000 N 
ATOM     13  N   UNL     1       6.101   4.650  19.716  0.00  0.00    +0.000 NA
ATOM     14  N   UNL     1       7.093   5.014  18.917  0.00  0.00    +0.000 NA
ATOM     15  C   UNL     1       6.704   4.786  17.625  0.00  0.00    +0.000 A 
ATOM     16  C   UNL     1       7.388   4.994  16.419  0.00  0.00    +0.000 A 
ATOM     17  C   UNL     1       6.741   4.667  15.220  0.00  0.00    +0.000 A 
ATOM     18  C   UNL     1       5.445   4.146  15.225  0.00  0.00    +0.000 A 
ATOM     19  C   UNL     1       4.745   3.937  16.421  0.00  0.00    +0.000 A 
ATOM     20  C   UNL     1       5.411   4.271  17.605  0.00  0.00    +0.000 A 
ENDBRANCH  11  12
ENDBRANCH   8  11
ENDBRANCH   1   9
BRANCH   4  21
ATOM     21  S   UNL     1      -0.053  11.222  20.022  0.00  0.00    +0.000 S 
ATOM     22  O   UNL     1       0.989  12.221  20.126  0.00  0.00    +0.000 OA
ATOM     23  O   UNL     1      -1.040  11.297  18.962  0.00  0.00    +0.000 OA
BRANCH  21  24
ATOM     24  N   UNL     1      -0.912  11.085  21.450  0.00  0.00    +0.000 N 
ATOM     25  C   UNL     1      -1.398  12.286  21.958  0.00  0.00    +0.000 A 
ATOM     26  N   UNL     1      -2.507  12.798  21.429  0.00  0.00    +0.000 NA
ATOM     27  C   UNL     1      -2.973  13.907  22.031  0.00  0.00    +0.000 A 
ATOM     28  C   UNL     1      -2.357  14.495  23.112  0.00  0.00    +0.000 A 
ATOM     29  C   UNL     1      -1.207  13.878  23.552  0.00  0.00    +0.000 A 
ATOM     30  N   UNL     1      -0.706  12.760  22.996  0.00  0.00    +0.000 NA
ATOM     31  H   UNL     1      -0.350  10.627  22.156  0.00  0.00    +0.000 HD
ENDBRANCH  21  24
ENDBRANCH   4  21
TORSDOF 5
ENDMDL
MODEL 8
REMARK VINA RESULT:      -8.5      2.483      3.181
REMARK  Name = 
REMARK  5 active torsions:
REMARK  status: ('A' for Active; 'I' for Inactive)
REMARK    1  A    between atoms: C_2  and  C_3
REMARK    2  A    between atoms: C_3  and  N_4
REMARK    3  A    between atoms: N_13  and  C_14
REMARK    4  A    between atoms: C_17  and  S_18
REMARK    5  A    between atoms: S_18  and  N_21
REMARK                            x       y       z     vdW  Elec       q    Type
REMARK                         _______ _______ _______ _____ _____    ______ ____
ROOT
ATOM      1  C   UNL     1       2.236   7.500  19.575  0.00  0.00    +0.000 A 
ATOM      2  C   UNL     1       2.080   8.241  18.401  0.00  0.00    +0.000 A 
ATOM      3  C   UNL     1       1.317   9.411  18.393  0.00  0.00    +0.000 A 
ATOM      4  C   UNL     1       0.696   9.839  19.568  0.00  0.00    +0.000 A 
ATOM      5  C   UNL     1       0.800   9.083  20.738  0.00  0.00    +0.000 A 
ATOM      6  C   UNL     1       1.553   7.902  20.731  0.00  0.00    +0.000 A 
ENDROOT
BRANCH   1   9
ATOM      7  O   UNL     1       1.668   4.712  18.837  0.00  0.00    +0.000 OA
ATOM      8  C   UNL     1       2.756   5.072  19.291  0.00  0.00    +0.000 C 
ATOM      9  N   UNL     1       3.073   6.368  19.669  0.00  0.00    +0.000 N 
ATOM     10  H   UNL     1       4.050   6.557  19.899  0.00  0.00    +0.000 HD
BRANCH   8  11
ATOM     11  C   UNL     1       3.829   4.024  19.524  0.00  0.00    +0.000 C 
BRANCH  11  12
ATOM     12  N   UNL     1       5.095   4.330  18.901  0.00  0.00    +0.000 N 
ATOM     13  N   UNL     1       6.133   4.710  19.679  0.00  0.00    +0.000 NA
ATOM     14  N   UNL     1       7.153   4.984  18.878  0.00  0.00    +0.000 NA
ATOM     15  C   UNL     1       6.758   4.745  17.590  0.00  0.00    +0.000 A 
ATOM     16  C   UNL     1       7.461   4.872  16.384  0.00  0.00    +0.000 A 
ATOM     17  C   UNL     1       6.802   4.554  15.190  0.00  0.00    +0.000 A 
ATOM     18  C   UNL     1       5.474   4.121  15.199  0.00  0.00    +0.000 A 
ATOM     19  C   UNL     1       4.754   3.994  16.394  0.00  0.00    +0.000 A 
ATOM     20  C   UNL     1       5.433   4.317  17.574  0.00  0.00    +0.000 A 
ENDBRANCH  11  12
ENDBRANCH   8  11
ENDBRANCH   1   9
BRANCH   4  21
ATOM     21  S   UNL     1      -0.091  11.442  19.600  0.00  0.00    +0.000 S 
ATOM     22  O   UNL     1       0.582  12.277  18.627  0.00  0.00    +0.000 OA
ATOM     23  O   UNL     1      -1.516  11.194  19.495  0.00  0.00    +0.000 OA
BRANCH  21  24
ATOM     24  N   UNL     1       0.175  11.985  21.159  0.00  0.00    +0.000 N 
ATOM     25  C   UNL     1       0.500  13.334  21.261  0.00  0.00    +0.000 A 
ATOM     26  N   UNL     1      -0.481  14.232  21.197  0.00  0.00    +0.000 NA
ATOM     27  C   UNL     1      -0.109  15.508  21.399  0.00  0.00    +0.000 A 
ATOM     28  C   UNL     1       1.192  15.885  21.645  0.00  0.00    +0.000 A 
ATOM     29  C   UNL     1       2.115  14.864  21.667  0.00  0.00    +0.000 A 
ATOM     30  N   UNL     1       1.794  13.569  21.486  0.00  0.00    +0.000 NA
ATOM     31  H   UNL     1       0.897  11.434  21.606  0.00  0.00    +0.000 HD
ENDBRANCH  21  24
ENDBRANCH   4  21
TORSDOF 5
ENDMDL
MODEL 9
REMARK VINA RESULT:      -8.4      3.083      9.156
REMARK  Name = 
REMARK  5 active torsions:
REMARK  status: ('A' for Active; 'I' for Inactive)
REMARK    1  A    between atoms: C_2  and  C_3
REMARK    2  A    between atoms: C_3  and  N_4
REMARK    3  A    between atoms: N_13  and  C_14
REMARK    4  A    between atoms: C_17  and  S_18
REMARK    5  A    between atoms: S_18  and  N_21
REMARK                            x       y       z     vdW  Elec       q    Type
REMARK                         _______ _______ _______ _____ _____    ______ ____
ROOT
ATOM      1  C   UNL     1       2.870   7.261  18.189  0.00  0.00    +0.000 A 
ATOM      2  C   UNL     1       3.158   6.319  19.179  0.00  0.00    +0.000 A 
ATOM      3  C   UNL     1       4.441   5.778  19.295  0.00  0.00    +0.000 A 
ATOM      4  C   UNL     1       5.441   6.175  18.407  0.00  0.00    +0.000 A 
ATOM      5  C   UNL     1       5.157   7.078  17.380  0.00  0.00    +0.000 A 
ATOM      6  C   UNL     1       3.863   7.602  17.261  0.00  0.00    +0.000 A 
ENDROOT
BRANCH   1   9
ATOM      7  O   UNL     1       2.301  10.140  18.022  0.00  0.00    +0.000 OA
ATOM      8  C   UNL     1       1.415   9.285  17.995  0.00  0.00    +0.000 C 
ATOM      9  N   UNL     1       1.624   7.917  18.085  0.00  0.00    +0.000 N 
ATOM     10  H   UNL     1       0.819   7.313  17.911  0.00  0.00    +0.000 HD
BRANCH   8  11
ATOM     11  C   UNL     1      -0.032   9.738  17.920  0.00  0.00    +0.000 C 
BRANCH  11  12
ATOM     12  N   UNL     1      -0.454  10.545  19.041  0.00  0.00    +0.000 N 
ATOM     13  N   UNL     1      -0.883  11.806  18.814  0.00  0.00    +0.000 NA
ATOM     14  N   UNL     1      -1.159  12.351  19.990  0.00  0.00    +0.000 NA
ATOM     15  C   UNL     1      -0.927  11.413  20.959  0.00  0.00    +0.000 A 
ATOM     16  C   UNL     1      -1.072  11.487  22.350  0.00  0.00    +0.000 A 
ATOM     17  C   UNL     1      -0.760  10.356  23.116  0.00  0.00    +0.000 A 
ATOM     18  C   UNL     1      -0.313   9.181  22.506  0.00  0.00    +0.000 A 
ATOM     19  C   UNL     1      -0.156   9.091  21.117  0.00  0.00    +0.000 A 
ATOM     20  C   UNL     1      -0.475  10.233  20.373  0.00  0.00    +0.000 A 
ENDBRANCH  11  12
ENDBRANCH   8  11
ENDBRANCH   1   9
BRANCH   4  21
ATOM     21  S   UNL     1       7.122   5.645  18.699  0.00  0.00    +0.000 S 
ATOM     22  O   UNL     1       7.999   6.686  18.203  0.00  0.00    +0.000 OA
ATOM     23  O   UNL     1       7.181   5.237  20.089  0.00  0.00    +0.000 OA
BRANCH  21  24
ATOM     24  N   UNL     1       7.263   4.246  17.795  0.00  0.00    +0.000 N 
ATOM     25  C   UNL     1       6.820   4.353  16.480  0.00  0.00    +0.000 A 
ATOM     26  N   UNL     1       7.623   4.921  15.583  0.00  0.00    +0.000 NA
ATOM     27  C   UNL     1       7.174   4.904  14.315  0.00  0.00    +0.000 A 
ATOM     28  C   UNL     1       5.967   4.353  13.949  0.00  0.00    +0.000 A 
ATOM     29  C   UNL     1       5.223   3.813  14.974  0.00  0.00    +0.000 A 
ATOM     30  N   UNL     1       5.631   3.790  16.256  0.00  0.00    +0.000 NA
ATOM     31  H   UNL     1       6.776   3.483  18.250  0.00  0.00    +0.000 HD
ENDBRANCH  21  24
ENDBRANCH   4  21
TORSDOF 5
ENDMDL
