MODEL 1
REMARK VINA RESULT:      -8.6      0.000      0.000
REMARK  Name = 
REMARK  4 active torsions:
REMARK  status: ('A' for Active; 'I' for Inactive)
REMARK    1  A    between atoms: C_1  and  C_2
REMARK    2  A    between atoms: C_7  and  S_8
REMARK    3  A    between atoms: S_8  and  N_11
REMARK    4  A    between atoms: C_15  and  C_16
REMARK                            x       y       z     vdW  Elec       q    Type
REMARK                         _______ _______ _______ _____ _____    ______ ____
ROOT
ATOM      1  N   UNL     1       6.606   3.638  15.926  0.00  0.00    +0.000 N 
ATOM      2  C   UNL     1       6.001   4.013  17.151  0.00  0.00    +0.000 A 
ATOM      3  N   UNL     1       6.704   4.537  18.127  0.00  0.00    +0.000 NA
ATOM      4  N   UNL     1       5.859   4.636  19.210  0.00  0.00    +0.000 NA
ATOM      5  C   UNL     1       4.706   4.111  18.836  0.00  0.00    +0.000 A 
ATOM      6  O   UNL     1       4.722   3.699  17.524  0.00  0.00    +0.000 OA
ATOM      7  H   UNL     1       7.609   3.632  16.125  0.00  0.00    +0.000 HD
ENDROOT
BRANCH   5   8
ATOM      8  C   UNL     1       3.507   3.860  19.630  0.00  0.00    +0.000 A 
ATOM      9  C   UNL     1       3.510   2.815  20.571  0.00  0.00    +0.000 A 
ATOM     10  C   UNL     1       2.373   2.526  21.333  0.00  0.00    +0.000 A 
ATOM     11  C   UNL     1       1.215   3.277  21.163  0.00  0.00    +0.000 A 
ATOM     12  C   UNL     1       1.191   4.317  20.234  0.00  0.00    +0.000 A 
ATOM     13  C   UNL     1       2.330   4.607  19.473  0.00  0.00    +0.000 A 
ENDBRANCH   5   8
BRANCH   1  14
ATOM     14  S   UNL     1       6.415   4.895  14.806  0.00  0.00    +0.000 S 
ATOM     15  O   UNL     1       7.719   5.509  14.677  0.00  0.00    +0.000 OA
ATOM     16  O   UNL     1       5.221   5.657  15.089  0.00  0.00    +0.000 OA
BRANCH  14  23
ATOM     17  C   UNL     1       3.179   3.083  11.038  0.00  0.00    +0.000 C 
ATOM     18  C   UNL     1       4.566   3.181  11.605  0.00  0.00    +0.000 A 
ATOM     19  C   UNL     1       5.631   2.499  11.003  0.00  0.00    +0.000 A 
ATOM     20  C   UNL     1       6.909   2.573  11.555  0.00  0.00    +0.000 A 
ATOM     21  F   UNL     1       7.915   1.912  10.968  0.00  0.00    +0.000 F 
ATOM     22  C   UNL     1       7.159   3.311  12.702  0.00  0.00    +0.000 A 
ATOM     23  C   UNL     1       6.102   3.995  13.304  0.00  0.00    +0.000 A 
ATOM     24  C   UNL     1       4.808   3.936  12.763  0.00  0.00    +0.000 A 
ENDBRANCH  14  23
ENDBRANCH   1  14
TORSDOF 3
ENDMDL
MODEL 2
REMARK VINA RESULT:      -8.6      0.077      1.005
REMARK  Name = 
REMARK  4 active torsions:
REMARK  status: ('A' for Active; 'I' for Inactive)
REMARK    1  A    between atoms: C_1  and  C_2
REMARK    2  A    between atoms: C_7  and  S_8
REMARK    3  A    between atoms: S_8  and  N_11
REMARK    4  A    between atoms: C_15  and  C_16
REMARK                            x       y       z     vdW  Elec       q    Type
REMARK                         _______ _______ _______ _____ _____    ______ ____
ROOT
ATOM      1  N   UNL     1       6.614   3.647  15.928  0.00  0.00    +0.000 N 
ATOM      2  C   UNL     1       5.992   3.992  17.152  0.00  0.00    +0.000 A 
ATOM      3  N   UNL     1       6.674   4.532  18.135  0.00  0.00    +0.000 NA
ATOM      4  N   UNL     1       5.821   4.595  19.215  0.00  0.00    +0.000 NA
ATOM      5  C   UNL     1       4.688   4.036  18.833  0.00  0.00    +0.000 A 
ATOM      6  O   UNL     1       4.722   3.634  17.518  0.00  0.00    +0.000 OA
ATOM      7  H   UNL     1       7.616   3.673  16.130  0.00  0.00    +0.000 HD
ENDROOT
BRANCH   5   8
ATOM      8  C   UNL     1       3.495   3.739  19.620  0.00  0.00    +0.000 A 
ATOM      9  C   UNL     1       2.303   4.438  19.355  0.00  0.00    +0.000 A 
ATOM     10  C   UNL     1       1.145   4.201  20.103  0.00  0.00    +0.000 A 
ATOM     11  C   UNL     1       1.163   3.263  21.129  0.00  0.00    +0.000 A 
ATOM     12  C   UNL     1       2.334   2.561  21.409  0.00  0.00    +0.000 A 
ATOM     13  C   UNL     1       3.493   2.797  20.658  0.00  0.00    +0.000 A 
ENDBRANCH   5   8
BRANCH   1  14
ATOM     14  S   UNL     1       6.386   4.905  14.816  0.00  0.00    +0.000 S 
ATOM     15  O   UNL     1       7.675   5.550  14.681  0.00  0.00    +0.000 OA
ATOM     16  O   UNL     1       5.177   5.638  15.111  0.00  0.00    +0.000 OA
BRANCH  14  23
ATOM     17  C   UNL     1       3.176   3.096  11.024  0.00  0.00    +0.000 C 
ATOM     18  C   UNL     1       4.558   3.193  11.601  0.00  0.00    +0.000 A 
ATOM     19  C   UNL     1       5.628   2.512  11.006  0.00  0.00    +0.000 A 
ATOM     20  C   UNL     1       6.902   2.585  11.566  0.00  0.00    +0.000 A 
ATOM     21  F   UNL     1       7.912   1.924  10.986  0.00  0.00    +0.000 F 
ATOM     22  C   UNL     1       7.144   3.322  12.716  0.00  0.00    +0.000 A 
ATOM     23  C   UNL     1       6.083   4.006  13.311  0.00  0.00    +0.000 A 
ATOM     24  C   UNL     1       4.793   3.947  12.761  0.00  0.00    +0.000 A 
ENDBRANCH  14  23
ENDBRANCH   1  14
TORSDOF 3
ENDMDL
MODEL 3
REMARK VINA RESULT:      -8.5      2.608      7.405
REMARK  Name = 
REMARK  4 active torsions:
REMARK  status: ('A' for Active; 'I' for Inactive)
REMARK    1  A    between atoms: C_1  and  C_2
REMARK    2  A    between atoms: C_7  and  S_8
REMARK    3  A    between atoms: S_8  and  N_11
REMARK    4  A    between atoms: C_15  and  C_16
REMARK                            x       y       z     vdW  Elec       q    Type
REMARK                         _______ _______ _______ _____ _____    ______ ____
ROOT
ATOM      1  N   UNL     1       5.376   6.053  17.281  0.00  0.00    +0.000 N 
ATOM      2  C   UNL     1       6.030   5.441  16.183  0.00  0.00    +0.000 A 
ATOM      3  N   UNL     1       7.262   5.758  15.861  0.00  0.00    +0.000 NA
ATOM      4  N   UNL     1       7.535   5.111  14.676  0.00  0.00    +0.000 NA
ATOM      5  C   UNL     1       6.428   4.485  14.324  0.00  0.00    +0.000 A 
ATOM      6  O   UNL     1       5.422   4.645  15.249  0.00  0.00    +0.000 OA
ATOM      7  H   UNL     1       5.952   6.867  17.504  0.00  0.00    +0.000 HD
ENDROOT
BRANCH   5   8
ATOM      8  C   UNL     1       6.134   3.748  13.099  0.00  0.00    +0.000 A 
ATOM      9  C   UNL     1       4.808   3.684  12.633  0.00  0.00    +0.000 A 
ATOM     10  C   UNL     1       4.483   2.967  11.478  0.00  0.00    +0.000 A 
ATOM     11  C   UNL     1       5.478   2.301  10.771  0.00  0.00    +0.000 A 
ATOM     12  C   UNL     1       6.799   2.351  11.217  0.00  0.00    +0.000 A 
ATOM     13  C   UNL     1       7.124   3.070  12.373  0.00  0.00    +0.000 A 
ENDBRANCH   5   8
BRANCH   1  14
ATOM     14  S   UNL     1       5.527   5.054  18.641  0.00  0.00    +0.000 S 
ATOM     15  O   UNL     1       5.896   5.929  19.733  0.00  0.00    +0.000 OA
ATOM     16  O   UNL     1       6.267   3.856  18.320  0.00  0.00    +0.000 OA
BRANCH  14  23
ATOM     17  C   UNL     1       1.731   2.809  21.559  0.00  0.00    +0.000 C 
ATOM     18  C   UNL     1       2.138   3.502  20.291  0.00  0.00    +0.000 A 
ATOM     19  C   UNL     1       1.213   3.700  19.258  0.00  0.00    +0.000 A 
ATOM     20  C   UNL     1       1.609   4.318  18.073  0.00  0.00    +0.000 A 
ATOM     21  F   UNL     1       0.712   4.496  17.096  0.00  0.00    +0.000 F 
ATOM     22  C   UNL     1       2.915   4.745  17.884  0.00  0.00    +0.000 A 
ATOM     23  C   UNL     1       3.840   4.554  18.911  0.00  0.00    +0.000 A 
ATOM     24  C   UNL     1       3.461   3.936  20.112  0.00  0.00    +0.000 A 
ENDBRANCH  14  23
ENDBRANCH   1  14
TORSDOF 3
ENDMDL
MODEL 4
REMARK VINA RESULT:      -8.4      2.866      3.594
REMARK  Name = 
REMARK  4 active torsions:
REMARK  status: ('A' for Active; 'I' for Inactive)
REMARK    1  A    between atoms: C_1  and  C_2
REMARK    2  A    between atoms: C_7  and  S_8
REMARK    3  A    between atoms: S_8  and  N_11
REMARK    4  A    between atoms: C_15  and  C_16
REMARK                            x       y       z     vdW  Elec       q    Type
REMARK                         _______ _______ _______ _____ _____    ______ ____
ROOT
ATOM      1  N   UNL     1       5.275   4.409  16.606  0.00  0.00    +0.000 N 
ATOM      2  C   UNL     1       4.699   5.184  17.643  0.00  0.00    +0.000 A 
ATOM      3  N   UNL     1       4.761   4.800  18.896  0.00  0.00    +0.000 NA
ATOM      4  N   UNL     1       3.981   5.679  19.614  0.00  0.00    +0.000 NA
ATOM      5  C   UNL     1       3.449   6.512  18.739  0.00  0.00    +0.000 A 
ATOM      6  O   UNL     1       3.872   6.258  17.455  0.00  0.00    +0.000 OA
ATOM      7  H   UNL     1       5.452   3.497  17.033  0.00  0.00    +0.000 HD
ENDROOT
BRANCH   5   8
ATOM      8  C   UNL     1       2.457   7.562  18.950  0.00  0.00    +0.000 A 
ATOM      9  C   UNL     1       2.090   8.390  17.873  0.00  0.00    +0.000 A 
ATOM     10  C   UNL     1       1.163   9.423  18.041  0.00  0.00    +0.000 A 
ATOM     11  C   UNL     1       0.591   9.646  19.289  0.00  0.00    +0.000 A 
ATOM     12  C   UNL     1       0.942   8.838  20.369  0.00  0.00    +0.000 A 
ATOM     13  C   UNL     1       1.869   7.802  20.200  0.00  0.00    +0.000 A 
ENDBRANCH   5   8
BRANCH   1  14
ATOM     14  S   UNL     1       6.821   5.009  16.260  0.00  0.00    +0.000 S 
ATOM     15  O   UNL     1       7.750   4.065  16.844  0.00  0.00    +0.000 OA
ATOM     16  O   UNL     1       6.890   6.429  16.516  0.00  0.00    +0.000 OA
BRANCH  14  23
ATOM     17  C   UNL     1       5.630   2.431  11.799  0.00  0.00    +0.000 C 
ATOM     18  C   UNL     1       6.328   3.575  12.477  0.00  0.00    +0.000 A 
ATOM     19  C   UNL     1       7.121   4.464  11.739  0.00  0.00    +0.000 A 
ATOM     20  C   UNL     1       7.789   5.504  12.383  0.00  0.00    +0.000 A 
ATOM     21  F   UNL     1       8.545   6.342  11.662  0.00  0.00    +0.000 F 
ATOM     22  C   UNL     1       7.691   5.685  13.754  0.00  0.00    +0.000 A 
ATOM     23  C   UNL     1       6.899   4.806  14.494  0.00  0.00    +0.000 A 
ATOM     24  C   UNL     1       6.217   3.753  13.865  0.00  0.00    +0.000 A 
ENDBRANCH  14  23
ENDBRANCH   1  14
TORSDOF 3
ENDMDL
MODEL 5
REMARK VINA RESULT:      -8.3      2.605      7.367
REMARK  Name = 
REMARK  4 active torsions:
REMARK  status: ('A' for Active; 'I' for Inactive)
REMARK    1  A    between atoms: C_1  and  C_2
REMARK    2  A    between atoms: C_7  and  S_8
REMARK    3  A    between atoms: S_8  and  N_11
REMARK    4  A    between atoms: C_15  and  C_16
REMARK                            x       y       z     vdW  Elec       q    Type
REMARK                         _______ _______ _______ _____ _____    ______ ____
ROOT
ATOM      1  N   UNL     1       5.386   6.061  17.279  0.00  0.00    +0.000 N 
ATOM      2  C   UNL     1       6.021   5.431  16.181  0.00  0.00    +0.000 A 
ATOM      3  N   UNL     1       7.254   5.730  15.844  0.00  0.00    +0.000 NA
ATOM      4  N   UNL     1       7.507   5.070  14.661  0.00  0.00    +0.000 NA
ATOM      5  C   UNL     1       6.388   4.456  14.326  0.00  0.00    +0.000 A 
ATOM      6  O   UNL     1       5.394   4.636  15.259  0.00  0.00    +0.000 OA
ATOM      7  H   UNL     1       5.975   6.869  17.490  0.00  0.00    +0.000 HD
ENDROOT
BRANCH   5   8
ATOM      8  C   UNL     1       6.073   3.712  13.110  0.00  0.00    +0.000 A 
ATOM      9  C   UNL     1       7.109   3.069  12.407  0.00  0.00    +0.000 A 
ATOM     10  C   UNL     1       6.852   2.368  11.225  0.00  0.00    +0.000 A 
ATOM     11  C   UNL     1       5.556   2.301  10.726  0.00  0.00    +0.000 A 
ATOM     12  C   UNL     1       4.516   2.933  11.406  0.00  0.00    +0.000 A 
ATOM     13  C   UNL     1       4.773   3.634  12.591  0.00  0.00    +0.000 A 
ENDBRANCH   5   8
BRANCH   1  14
ATOM     14  S   UNL     1       5.538   5.072  18.647  0.00  0.00    +0.000 S 
ATOM     15  O   UNL     1       5.897   5.956  19.735  0.00  0.00    +0.000 OA
ATOM     16  O   UNL     1       6.287   3.877  18.336  0.00  0.00    +0.000 OA
BRANCH  14  23
ATOM     17  C   UNL     1       1.748   2.804  21.555  0.00  0.00    +0.000 C 
ATOM     18  C   UNL     1       2.154   3.499  20.288  0.00  0.00    +0.000 A 
ATOM     19  C   UNL     1       1.230   3.694  19.254  0.00  0.00    +0.000 A 
ATOM     20  C   UNL     1       1.626   4.315  18.070  0.00  0.00    +0.000 A 
ATOM     21  F   UNL     1       0.729   4.488  17.091  0.00  0.00    +0.000 F 
ATOM     22  C   UNL     1       2.929   4.749  17.884  0.00  0.00    +0.000 A 
ATOM     23  C   UNL     1       3.853   4.562  18.912  0.00  0.00    +0.000 A 
ATOM     24  C   UNL     1       3.475   3.942  20.112  0.00  0.00    +0.000 A 
ENDBRANCH  14  23
ENDBRANCH   1  14
TORSDOF 3
ENDMDL
MODEL 6
REMARK VINA RESULT:      -8.3      2.879      3.521
REMARK  Name = 
REMARK  4 active torsions:
REMARK  status: ('A' for Active; 'I' for Inactive)
REMARK    1  A    between atoms: C_1  and  C_2
REMARK    2  A    between atoms: C_7  and  S_8
REMARK    3  A    between atoms: S_8  and  N_11
REMARK    4  A    between atoms: C_15  and  C_16
REMARK                            x       y       z     vdW  Elec       q    Type
REMARK                         _______ _______ _______ _____ _____    ______ ____
ROOT
ATOM      1  N   UNL     1       5.282   4.415  16.614  0.00  0.00    +0.000 N 
ATOM      2  C   UNL     1       4.704   5.209  17.635  0.00  0.00    +0.000 A 
ATOM      3  N   UNL     1       4.754   4.843  18.894  0.00  0.00    +0.000 NA
ATOM      4  N   UNL     1       3.976   5.738  19.594  0.00  0.00    +0.000 NA
ATOM      5  C   UNL     1       3.456   6.561  18.702  0.00  0.00    +0.000 A 
ATOM      6  O   UNL     1       3.886   6.286  17.425  0.00  0.00    +0.000 OA
ATOM      7  H   UNL     1       5.450   3.508  17.055  0.00  0.00    +0.000 HD
ENDROOT
BRANCH   5   8
ATOM      8  C   UNL     1       2.470   7.621  18.891  0.00  0.00    +0.000 A 
ATOM      9  C   UNL     1       1.892   7.808  20.160  0.00  0.00    +0.000 A 
ATOM     10  C   UNL     1       0.926   8.796  20.375  0.00  0.00    +0.000 A 
ATOM     11  C   UNL     1       0.522   9.611  19.324  0.00  0.00    +0.000 A 
ATOM     12  C   UNL     1       1.082   9.442  18.058  0.00  0.00    +0.000 A 
ATOM     13  C   UNL     1       2.050   8.454  17.843  0.00  0.00    +0.000 A 
ENDBRANCH   5   8
BRANCH   1  14
ATOM     14  S   UNL     1       6.835   4.999  16.271  0.00  0.00    +0.000 S 
ATOM     15  O   UNL     1       7.753   4.043  16.851  0.00  0.00    +0.000 OA
ATOM     16  O   UNL     1       6.920   6.417  16.533  0.00  0.00    +0.000 OA
BRANCH  14  23
ATOM     17  C   UNL     1       5.636   2.442  11.801  0.00  0.00    +0.000 C 
ATOM     18  C   UNL     1       6.337   3.581  12.482  0.00  0.00    +0.000 A 
ATOM     19  C   UNL     1       7.131   4.471  11.748  0.00  0.00    +0.000 A 
ATOM     20  C   UNL     1       7.801   5.508  12.395  0.00  0.00    +0.000 A 
ATOM     21  F   UNL     1       8.559   6.346  11.677  0.00  0.00    +0.000 F 
ATOM     22  C   UNL     1       7.705   5.683  13.767  0.00  0.00    +0.000 A 
ATOM     23  C   UNL     1       6.912   4.803  14.504  0.00  0.00    +0.000 A 
ATOM     24  C   UNL     1       6.227   3.754  13.871  0.00  0.00    +0.000 A 
ENDBRANCH  14  23
ENDBRANCH   1  14
TORSDOF 3
ENDMDL
MODEL 7
REMARK VINA RESULT:      -8.3      3.169      7.622
REMARK  Name = 
REMARK  4 active torsions:
REMARK  status: ('A' for Active; 'I' for Inactive)
REMARK    1  A    between atoms: C_1  and  C_2
REMARK    2  A    between atoms: C_7  and  S_8
REMARK    3  A    between atoms: S_8  and  N_11
REMARK    4  A    between atoms: C_15  and  C_16
REMARK                            x       y       z     vdW  Elec       q    Type
REMARK                         _______ _______ _______ _____ _____    ______ ____
ROOT
ATOM      1  N   UNL     1       5.321   5.992  17.345  0.00  0.00    +0.000 N 
ATOM      2  C   UNL     1       5.987   5.420  16.232  0.00  0.00    +0.000 A 
ATOM      3  N   UNL     1       7.199   5.795  15.896  0.00  0.00    +0.000 NA
ATOM      4  N   UNL     1       7.484   5.172  14.701  0.00  0.00    +0.000 NA
ATOM      5  C   UNL     1       6.401   4.499  14.359  0.00  0.00    +0.000 A 
ATOM      6  O   UNL     1       5.403   4.606  15.300  0.00  0.00    +0.000 OA
ATOM      7  H   UNL     1       5.864   6.830  17.567  0.00  0.00    +0.000 HD
ENDROOT
BRANCH   5   8
ATOM      8  C   UNL     1       6.123   3.760  13.132  0.00  0.00    +0.000 A 
ATOM      9  C   UNL     1       4.802   3.688  12.653  0.00  0.00    +0.000 A 
ATOM     10  C   UNL     1       4.492   2.969  11.496  0.00  0.00    +0.000 A 
ATOM     11  C   UNL     1       5.498   2.308  10.799  0.00  0.00    +0.000 A 
ATOM     12  C   UNL     1       6.814   2.365  11.257  0.00  0.00    +0.000 A 
ATOM     13  C   UNL     1       7.124   3.087  12.416  0.00  0.00    +0.000 A 
ENDBRANCH   5   8
BRANCH   1  14
ATOM     14  S   UNL     1       5.537   4.990  18.694  0.00  0.00    +0.000 S 
ATOM     15  O   UNL     1       6.202   5.805  19.688  0.00  0.00    +0.000 OA
ATOM     16  O   UNL     1       6.030   3.692  18.296  0.00  0.00    +0.000 OA
BRANCH  14  23
ATOM     17  C   UNL     1       1.048   2.206  18.912  0.00  0.00    +0.000 C 
ATOM     18  C   UNL     1       1.819   3.435  19.296  0.00  0.00    +0.000 A 
ATOM     19  C   UNL     1       1.207   4.460  20.030  0.00  0.00    +0.000 A 
ATOM     20  C   UNL     1       1.923   5.610  20.356  0.00  0.00    +0.000 A 
ATOM     21  F   UNL     1       1.321   6.580  21.055  0.00  0.00    +0.000 F 
ATOM     22  C   UNL     1       3.244   5.772  19.966  0.00  0.00    +0.000 A 
ATOM     23  C   UNL     1       3.860   4.753  19.239  0.00  0.00    +0.000 A 
ATOM     24  C   UNL     1       3.158   3.587  18.902  0.00  0.00    +0.000 A 
ENDBRANCH  14  23
ENDBRANCH   1  14
TORSDOF 3
ENDMDL
MODEL 8
REMARK VINA RESULT:      -8.2      2.528      7.208
REMARK  Name = 
REMARK  4 active torsions:
REMARK  status: ('A' for Active; 'I' for Inactive)
REMARK    1  A    between atoms: C_1  and  C_2
REMARK    2  A    between atoms: C_7  and  S_8
REMARK    3  A    between atoms: S_8  and  N_11
REMARK    4  A    between atoms: C_15  and  C_16
REMARK                            x       y       z     vdW  Elec       q    Type
REMARK                         _______ _______ _______ _____ _____    ______ ____
ROOT
ATOM      1  N   UNL     1       5.875   6.078  17.243  0.00  0.00    +0.000 N 
ATOM      2  C   UNL     1       6.373   5.479  16.059  0.00  0.00    +0.000 A 
ATOM      3  N   UNL     1       7.517   5.852  15.536  0.00  0.00    +0.000 NA
ATOM      4  N   UNL     1       7.627   5.198  14.329  0.00  0.00    +0.000 NA
ATOM      5  C   UNL     1       6.512   4.510  14.170  0.00  0.00    +0.000 A 
ATOM      6  O   UNL     1       5.664   4.637  15.246  0.00  0.00    +0.000 OA
ATOM      7  H   UNL     1       6.437   6.924  17.360  0.00  0.00    +0.000 HD
ENDROOT
BRANCH   5   8
ATOM      8  C   UNL     1       6.062   3.736  13.017  0.00  0.00    +0.000 A 
ATOM      9  C   UNL     1       4.728   3.854  12.585  0.00  0.00    +0.000 A 
ATOM     10  C   UNL     1       4.252   3.111  11.501  0.00  0.00    +0.000 A 
ATOM     11  C   UNL     1       5.102   2.235  10.834  0.00  0.00    +0.000 A 
ATOM     12  C   UNL     1       6.426   2.102  11.247  0.00  0.00    +0.000 A 
ATOM     13  C   UNL     1       6.904   2.848  12.332  0.00  0.00    +0.000 A 
ENDBRANCH   5   8
BRANCH   1  14
ATOM     14  S   UNL     1       6.299   5.115  18.571  0.00  0.00    +0.000 S 
ATOM     15  O   UNL     1       6.574   6.035  19.653  0.00  0.00    +0.000 OA
ATOM     16  O   UNL     1       7.224   4.077  18.178  0.00  0.00    +0.000 OA
BRANCH  14  23
ATOM     17  C   UNL     1       1.457   5.048  20.694  0.00  0.00    +0.000 C 
ATOM     18  C   UNL     1       2.542   4.332  19.942  0.00  0.00    +0.000 A 
ATOM     19  C   UNL     1       2.391   2.987  19.580  0.00  0.00    +0.000 A 
ATOM     20  C   UNL     1       3.416   2.325  18.908  0.00  0.00    +0.000 A 
ATOM     21  F   UNL     1       3.255   1.038  18.574  0.00  0.00    +0.000 F 
ATOM     22  C   UNL     1       4.601   2.968  18.585  0.00  0.00    +0.000 A 
ATOM     23  C   UNL     1       4.756   4.309  18.939  0.00  0.00    +0.000 A 
ATOM     24  C   UNL     1       3.735   4.995  19.614  0.00  0.00    +0.000 A 
ENDBRANCH  14  23
ENDBRANCH   1  14
TORSDOF 3
ENDMDL
MODEL 9
REMARK VINA RESULT:      -8.2      3.103      7.787
REMARK  Name = 
REMARK  4 active torsions:
REMARK  status: ('A' for Active; 'I' for Inactive)
REMARK    1  A    between atoms: C_1  and  C_2
REMARK    2  A    between atoms: C_7  and  S_8
REMARK    3  A    between atoms: S_8  and  N_11
REMARK    4  A    between atoms: C_15  and  C_16
REMARK                            x       y       z     vdW  Elec       q    Type
REMARK                         _______ _______ _______ _____ _____    ______ ____
ROOT
ATOM      1  N   UNL     1       5.435   6.040  17.490  0.00  0.00    +0.000 N 
ATOM      2  C   UNL     1       6.054   5.441  16.366  0.00  0.00    +0.000 A 
ATOM      3  N   UNL     1       7.280   5.755  16.016  0.00  0.00    +0.000 NA
ATOM      4  N   UNL     1       7.516   5.125  14.813  0.00  0.00    +0.000 NA
ATOM      5  C   UNL     1       6.395   4.513  14.482  0.00  0.00    +0.000 A 
ATOM      6  O   UNL     1       5.416   4.665  15.436  0.00  0.00    +0.000 OA
ATOM      7  H   UNL     1       6.023   6.846  17.711  0.00  0.00    +0.000 HD
ENDROOT
BRANCH   5   8
ATOM      8  C   UNL     1       6.063   3.798  13.254  0.00  0.00    +0.000 A 
ATOM      9  C   UNL     1       7.088   3.166  12.525  0.00  0.00    +0.000 A 
ATOM     10  C   UNL     1       6.815   2.493  11.331  0.00  0.00    +0.000 A 
ATOM     11  C   UNL     1       5.513   2.442  10.845  0.00  0.00    +0.000 A 
ATOM     12  C   UNL     1       4.483   3.062  11.551  0.00  0.00    +0.000 A 
ATOM     13  C   UNL     1       4.757   3.735  12.748  0.00  0.00    +0.000 A 
ENDBRANCH   5   8
BRANCH   1  14
ATOM     14  S   UNL     1       5.615   5.019  18.831  0.00  0.00    +0.000 S 
ATOM     15  O   UNL     1       6.547   5.687  19.713  0.00  0.00    +0.000 OA
ATOM     16  O   UNL     1       5.786   3.647  18.412  0.00  0.00    +0.000 OA
BRANCH  14  23
ATOM     17  C   UNL     1       1.416   2.847  21.200  0.00  0.00    +0.000 C 
ATOM     18  C   UNL     1       2.098   4.070  20.660  0.00  0.00    +0.000 A 
ATOM     19  C   UNL     1       1.448   5.311  20.667  0.00  0.00    +0.000 A 
ATOM     20  C   UNL     1       2.079   6.435  20.136  0.00  0.00    +0.000 A 
ATOM     21  F   UNL     1       1.440   7.611  20.148  0.00  0.00    +0.000 F 
ATOM     22  C   UNL     1       3.351   6.357  19.589  0.00  0.00    +0.000 A 
ATOM     23  C   UNL     1       4.005   5.125  19.583  0.00  0.00    +0.000 A 
ATOM     24  C   UNL     1       3.389   3.982  20.114  0.00  0.00    +0.000 A 
ENDBRANCH  14  23
ENDBRANCH   1  14
TORSDOF 3
ENDMDL
