MODEL 1
REMARK VINA RESULT:      -8.7      0.000      0.000
REMARK  Name = 
REMARK  8 active torsions:
REMARK  status: ('A' for Active; 'I' for Inactive)
REMARK    1  A    between atoms: C_1  and  N_2
REMARK    2  A    between atoms: N_2  and  C_3
REMARK    3  A    between atoms: N_2  and  S_4
REMARK    4  A    between atoms: S_4  and  C_7
REMARK    5  A    between atoms: C_11  and  C_12
REMARK    6  A    between atoms: N_14  and  C_15
REMARK    7  A    between atoms: C_17  and  C_18
REMARK    8  A    between atoms: C_24  and  N_25
REMARK                            x       y       z     vdW  Elec       q    Type
REMARK                         _______ _______ _______ _____ _____    ______ ____
ROOT
ATOM      1  C   UNL     1       4.092   6.166  17.399  0.00  0.00    +0.000 C 
ATOM      2  O   UNL     1       4.256   7.313  17.001  0.00  0.00    +0.000 OA
ATOM      3  N   UNL     1       4.606   5.005  16.855  0.00  0.00    +0.000 N 
ATOM      4  H   UNL     1       4.244   4.115  17.208  0.00  0.00    +0.000 HD
ENDROOT
BRANCH   1   9
ATOM      5  C   UNL     1       2.207   4.448  20.156  0.00  0.00    +0.000 A 
ATOM      6  C   UNL     1       1.577   5.522  20.794  0.00  0.00    +0.000 A 
ATOM      7  C   UNL     1       1.705   6.812  20.273  0.00  0.00    +0.000 A 
ATOM      8  C   UNL     1       2.504   7.038  19.149  0.00  0.00    +0.000 A 
ATOM      9  C   UNL     1       3.176   5.968  18.547  0.00  0.00    +0.000 A 
ATOM     10  C   UNL     1       3.006   4.666  19.031  0.00  0.00    +0.000 A 
BRANCH   5  11
ATOM     11  S   UNL     1       2.124   2.810  20.865  0.00  0.00    +0.000 S 
ATOM     12  O   UNL     1       0.941   2.775  21.697  0.00  0.00    +0.000 OA
ATOM     13  O   UNL     1       3.429   2.513  21.412  0.00  0.00    +0.000 OA
BRANCH  11  15
ATOM     14  C   UNL     1       0.687   2.040  18.702  0.00  0.00    +0.000 C 
ATOM     15  N   UNL     1       1.877   1.794  19.528  0.00  0.00    +0.000 NA
ATOM     16  C   UNL     1       3.068   1.375  18.773  0.00  0.00    +0.000 C 
ENDBRANCH  11  15
ENDBRANCH   5  11
ENDBRANCH   1   9
BRANCH   3  17
ATOM     17  C   UNL     1       5.433   4.873  15.709  0.00  0.00    +0.000 A 
ATOM     18  C   UNL     1       4.948   4.244  14.550  0.00  0.00    +0.000 A 
ATOM     19  C   UNL     1       5.744   4.072  13.409  0.00  0.00    +0.000 A 
ATOM     20  C   UNL     1       7.043   4.582  13.411  0.00  0.00    +0.000 A 
ATOM     21  C   UNL     1       7.547   5.225  14.545  0.00  0.00    +0.000 A 
ATOM     22  C   UNL     1       6.764   5.363  15.710  0.00  0.00    +0.000 A 
BRANCH  22  23
ATOM     23  N   UNL     1       7.366   5.944  16.873  0.00  0.00    +0.000 N 
ATOM     24  C   UNL     1       7.663   5.326  18.076  0.00  0.00    +0.000 A 
ATOM     25  C   UNL     1       8.124   6.292  18.937  0.00  0.00    +0.000 A 
ATOM     26  C   UNL     1       8.119   7.468  18.178  0.00  0.00    +0.000 A 
ATOM     27  N   UNL     1       7.694   7.267  16.926  0.00  0.00    +0.000 NA
ENDBRANCH  22  23
BRANCH  19  28
ATOM     28  C   UNL     1       5.218   3.337  12.199  0.00  0.00    +0.000 C 
ATOM     29  F   UNL     1       5.512   3.937  11.012  0.00  0.00    +0.000 F 
ATOM     30  F   UNL     1       5.710   2.072  12.111  0.00  0.00    +0.000 F 
ATOM     31  F   UNL     1       3.862   3.208  12.226  0.00  0.00    +0.000 F 
ENDBRANCH  19  28
ENDBRANCH   3  17
TORSDOF 6
ENDMDL
MODEL 2
REMARK VINA RESULT:      -8.7      0.804      1.381
REMARK  Name = 
REMARK  8 active torsions:
REMARK  status: ('A' for Active; 'I' for Inactive)
REMARK    1  A    between atoms: C_1  and  N_2
REMARK    2  A    between atoms: N_2  and  C_3
REMARK    3  A    between atoms: N_2  and  S_4
REMARK    4  A    between atoms: S_4  and  C_7
REMARK    5  A    between atoms: C_11  and  C_12
REMARK    6  A    between atoms: N_14  and  C_15
REMARK    7  A    between atoms: C_17  and  C_18
REMARK    8  A    between atoms: C_24  and  N_25
REMARK                            x       y       z     vdW  Elec       q    Type
REMARK                         _______ _______ _______ _____ _____    ______ ____
ROOT
ATOM      1  C   UNL     1       3.992   6.227  17.362  0.00  0.00    +0.000 C 
ATOM      2  O   UNL     1       4.139   7.373  16.957  0.00  0.00    +0.000 OA
ATOM      3  N   UNL     1       4.582   5.079  16.871  0.00  0.00    +0.000 N 
ATOM      4  H   UNL     1       4.229   4.181  17.215  0.00  0.00    +0.000 HD
ENDROOT
BRANCH   1   9
ATOM      5  C   UNL     1       1.708   4.448  19.755  0.00  0.00    +0.000 A 
ATOM      6  C   UNL     1       1.268   5.494  20.574  0.00  0.00    +0.000 A 
ATOM      7  C   UNL     1       1.659   6.806  20.295  0.00  0.00    +0.000 A 
ATOM      8  C   UNL     1       2.531   7.068  19.235  0.00  0.00    +0.000 A 
ATOM      9  C   UNL     1       3.010   6.011  18.452  0.00  0.00    +0.000 A 
ATOM     10  C   UNL     1       2.577   4.703  18.692  0.00  0.00    +0.000 A 
BRANCH   5  11
ATOM     11  S   UNL     1       1.287   2.758  20.156  0.00  0.00    +0.000 S 
ATOM     12  O   UNL     1       0.274   2.345  19.209  0.00  0.00    +0.000 OA
ATOM     13  O   UNL     1       1.041   2.705  21.580  0.00  0.00    +0.000 OA
BRANCH  11  15
ATOM     14  C   UNL     1       2.992   1.538  18.442  0.00  0.00    +0.000 C 
ATOM     15  N   UNL     1       2.712   1.892  19.840  0.00  0.00    +0.000 NA
ATOM     16  C   UNL     1       3.902   2.244  20.631  0.00  0.00    +0.000 C 
ENDBRANCH  11  15
ENDBRANCH   5  11
ENDBRANCH   1   9
BRANCH   3  17
ATOM     17  C   UNL     1       5.485   4.962  15.783  0.00  0.00    +0.000 A 
ATOM     18  C   UNL     1       5.089   4.328  14.593  0.00  0.00    +0.000 A 
ATOM     19  C   UNL     1       5.963   4.171  13.509  0.00  0.00    +0.000 A 
ATOM     20  C   UNL     1       7.251   4.700  13.599  0.00  0.00    +0.000 A 
ATOM     21  C   UNL     1       7.667   5.348  14.765  0.00  0.00    +0.000 A 
ATOM     22  C   UNL     1       6.805   5.472  15.874  0.00  0.00    +0.000 A 
BRANCH  22  23
ATOM     23  N   UNL     1       7.320   6.058  17.077  0.00  0.00    +0.000 N 
ATOM     24  C   UNL     1       7.663   7.380  17.300  0.00  0.00    +0.000 A 
ATOM     25  C   UNL     1       8.216   7.461  18.555  0.00  0.00    +0.000 A 
ATOM     26  C   UNL     1       8.140   6.156  19.054  0.00  0.00    +0.000 A 
ATOM     27  N   UNL     1       7.575   5.308  18.188  0.00  0.00    +0.000 NA
ENDBRANCH  22  23
BRANCH  19  28
ATOM     28  C   UNL     1       5.530   3.431  12.265  0.00  0.00    +0.000 C 
ATOM     29  F   UNL     1       5.805   2.098  12.287  0.00  0.00    +0.000 F 
ATOM     30  F   UNL     1       4.192   3.533  12.044  0.00  0.00    +0.000 F 
ATOM     31  F   UNL     1       6.131   3.918  11.142  0.00  0.00    +0.000 F 
ENDBRANCH  19  28
ENDBRANCH   3  17
TORSDOF 6
ENDMDL
MODEL 3
REMARK VINA RESULT:      -8.6      4.229      6.373
REMARK  Name = 
REMARK  8 active torsions:
REMARK  status: ('A' for Active; 'I' for Inactive)
REMARK    1  A    between atoms: C_1  and  N_2
REMARK    2  A    between atoms: N_2  and  C_3
REMARK    3  A    between atoms: N_2  and  S_4
REMARK    4  A    between atoms: S_4  and  C_7
REMARK    5  A    between atoms: C_11  and  C_12
REMARK    6  A    between atoms: N_14  and  C_15
REMARK    7  A    between atoms: C_17  and  C_18
REMARK    8  A    between atoms: C_24  and  N_25
REMARK                            x       y       z     vdW  Elec       q    Type
REMARK                         _______ _______ _______ _____ _____    ______ ____
ROOT
ATOM      1  C   UNL     1       2.357   7.800  18.648  0.00  0.00    +0.000 C 
ATOM      2  O   UNL     1       2.595   8.343  17.577  0.00  0.00    +0.000 OA
ATOM      3  N   UNL     1       2.720   6.527  19.046  0.00  0.00    +0.000 N 
ATOM      4  H   UNL     1       2.305   6.164  19.909  0.00  0.00    +0.000 HD
ENDROOT
BRANCH   1   9
ATOM      5  C   UNL     1      -0.026  10.361  20.016  0.00  0.00    +0.000 A 
ATOM      6  C   UNL     1      -0.204   9.923  21.333  0.00  0.00    +0.000 A 
ATOM      7  C   UNL     1       0.521   8.825  21.803  0.00  0.00    +0.000 A 
ATOM      8  C   UNL     1       1.381   8.132  20.947  0.00  0.00    +0.000 A 
ATOM      9  C   UNL     1       1.514   8.543  19.616  0.00  0.00    +0.000 A 
ATOM     10  C   UNL     1       0.834   9.675  19.155  0.00  0.00    +0.000 A 
BRANCH   5  11
ATOM     11  S   UNL     1      -1.014  11.706  19.377  0.00  0.00    +0.000 S 
ATOM     12  O   UNL     1      -0.183  12.421  18.432  0.00  0.00    +0.000 OA
ATOM     13  O   UNL     1      -1.602  12.382  20.513  0.00  0.00    +0.000 OA
BRANCH  11  15
ATOM     14  C   UNL     1      -3.575  11.593  18.506  0.00  0.00    +0.000 C 
ATOM     15  N   UNL     1      -2.262  10.934  18.527  0.00  0.00    +0.000 NA
ATOM     16  C   UNL     1      -1.902  10.253  17.273  0.00  0.00    +0.000 C 
ENDBRANCH  11  15
ENDBRANCH   5  11
ENDBRANCH   1   9
BRANCH   3  17
ATOM     17  C   UNL     1       3.443   5.558  18.304  0.00  0.00    +0.000 A 
ATOM     18  C   UNL     1       4.197   5.937  17.181  0.00  0.00    +0.000 A 
ATOM     19  C   UNL     1       4.902   5.003  16.409  0.00  0.00    +0.000 A 
ATOM     20  C   UNL     1       4.888   3.662  16.795  0.00  0.00    +0.000 A 
ATOM     21  C   UNL     1       4.157   3.258  17.915  0.00  0.00    +0.000 A 
ATOM     22  C   UNL     1       3.413   4.188  18.672  0.00  0.00    +0.000 A 
BRANCH  22  23
ATOM     23  N   UNL     1       2.605   3.701  19.750  0.00  0.00    +0.000 N 
ATOM     24  C   UNL     1       3.005   2.953  20.844  0.00  0.00    +0.000 A 
ATOM     25  C   UNL     1       1.879   2.618  21.555  0.00  0.00    +0.000 A 
ATOM     26  C   UNL     1       0.831   3.231  20.857  0.00  0.00    +0.000 A 
ATOM     27  N   UNL     1       1.257   3.911  19.788  0.00  0.00    +0.000 NA
ENDBRANCH  22  23
BRANCH  19  28
ATOM     28  C   UNL     1       5.655   5.429  15.171  0.00  0.00    +0.000 C 
ATOM     29  F   UNL     1       5.509   4.585  14.113  0.00  0.00    +0.000 F 
ATOM     30  F   UNL     1       5.265   6.655  14.728  0.00  0.00    +0.000 F 
ATOM     31  F   UNL     1       6.996   5.523  15.392  0.00  0.00    +0.000 F 
ENDBRANCH  19  28
ENDBRANCH   3  17
TORSDOF 6
ENDMDL
MODEL 4
REMARK VINA RESULT:      -8.5      4.260      6.540
REMARK  Name = 
REMARK  8 active torsions:
REMARK  status: ('A' for Active; 'I' for Inactive)
REMARK    1  A    between atoms: C_1  and  N_2
REMARK    2  A    between atoms: N_2  and  C_3
REMARK    3  A    between atoms: N_2  and  S_4
REMARK    4  A    between atoms: S_4  and  C_7
REMARK    5  A    between atoms: C_11  and  C_12
REMARK    6  A    between atoms: N_14  and  C_15
REMARK    7  A    between atoms: C_17  and  C_18
REMARK    8  A    between atoms: C_24  and  N_25
REMARK                            x       y       z     vdW  Elec       q    Type
REMARK                         _______ _______ _______ _____ _____    ______ ____
ROOT
ATOM      1  C   UNL     1       2.284   7.760  18.724  0.00  0.00    +0.000 C 
ATOM      2  O   UNL     1       2.371   8.260  17.609  0.00  0.00    +0.000 OA
ATOM      3  N   UNL     1       2.765   6.532  19.135  0.00  0.00    +0.000 N 
ATOM      4  H   UNL     1       2.469   6.191  20.054  0.00  0.00    +0.000 HD
ENDROOT
BRANCH   1   9
ATOM      5  C   UNL     1       0.070  10.376  20.262  0.00  0.00    +0.000 A 
ATOM      6  C   UNL     1      -0.090   9.895  21.567  0.00  0.00    +0.000 A 
ATOM      7  C   UNL     1       0.596   8.747  21.972  0.00  0.00    +0.000 A 
ATOM      8  C   UNL     1       1.395   8.049  21.064  0.00  0.00    +0.000 A 
ATOM      9  C   UNL     1       1.508   8.504  19.745  0.00  0.00    +0.000 A 
ATOM     10  C   UNL     1       0.869   9.685  19.349  0.00  0.00    +0.000 A 
BRANCH   5  11
ATOM     11  S   UNL     1      -0.871  11.790  19.706  0.00  0.00    +0.000 S 
ATOM     12  O   UNL     1      -1.877  12.044  20.714  0.00  0.00    +0.000 OA
ATOM     13  O   UNL     1      -1.240  11.544  18.330  0.00  0.00    +0.000 OA
BRANCH  11  15
ATOM     14  C   UNL     1       0.926  13.351  20.998  0.00  0.00    +0.000 C 
ATOM     15  N   UNL     1       0.251  13.064  19.725  0.00  0.00    +0.000 NA
ATOM     16  C   UNL     1       1.096  13.233  18.533  0.00  0.00    +0.000 C 
ENDBRANCH  11  15
ENDBRANCH   5  11
ENDBRANCH   1   9
BRANCH   3  17
ATOM     17  C   UNL     1       3.461   5.568  18.362  0.00  0.00    +0.000 A 
ATOM     18  C   UNL     1       4.205   5.959  17.236  0.00  0.00    +0.000 A 
ATOM     19  C   UNL     1       4.882   5.031  16.433  0.00  0.00    +0.000 A 
ATOM     20  C   UNL     1       4.852   3.682  16.790  0.00  0.00    +0.000 A 
ATOM     21  C   UNL     1       4.130   3.266  17.912  0.00  0.00    +0.000 A 
ATOM     22  C   UNL     1       3.413   4.191  18.699  0.00  0.00    +0.000 A 
BRANCH  22  23
ATOM     23  N   UNL     1       2.613   3.694  19.779  0.00  0.00    +0.000 N 
ATOM     24  C   UNL     1       3.029   2.975  20.887  0.00  0.00    +0.000 A 
ATOM     25  C   UNL     1       1.908   2.613  21.594  0.00  0.00    +0.000 A 
ATOM     26  C   UNL     1       0.847   3.181  20.879  0.00  0.00    +0.000 A 
ATOM     27  N   UNL     1       1.258   3.858  19.803  0.00  0.00    +0.000 NA
ENDBRANCH  22  23
BRANCH  19  28
ATOM     28  C   UNL     1       5.625   5.473  15.194  0.00  0.00    +0.000 C 
ATOM     29  F   UNL     1       6.976   5.530  15.346  0.00  0.00    +0.000 F 
ATOM     30  F   UNL     1       5.401   4.644  14.138  0.00  0.00    +0.000 F 
ATOM     31  F   UNL     1       5.242   6.714  14.781  0.00  0.00    +0.000 F 
ENDBRANCH  19  28
ENDBRANCH   3  17
TORSDOF 6
ENDMDL
MODEL 5
REMARK VINA RESULT:      -8.4      4.283      6.571
REMARK  Name = 
REMARK  8 active torsions:
REMARK  status: ('A' for Active; 'I' for Inactive)
REMARK    1  A    between atoms: C_1  and  N_2
REMARK    2  A    between atoms: N_2  and  C_3
REMARK    3  A    between atoms: N_2  and  S_4
REMARK    4  A    between atoms: S_4  and  C_7
REMARK    5  A    between atoms: C_11  and  C_12
REMARK    6  A    between atoms: N_14  and  C_15
REMARK    7  A    between atoms: C_17  and  C_18
REMARK    8  A    between atoms: C_24  and  N_25
REMARK                            x       y       z     vdW  Elec       q    Type
REMARK                         _______ _______ _______ _____ _____    ______ ____
ROOT
ATOM      1  C   UNL     1       2.141   7.750  18.961  0.00  0.00    +0.000 C 
ATOM      2  O   UNL     1       1.995   8.189  17.827  0.00  0.00    +0.000 OA
ATOM      3  N   UNL     1       2.799   6.595  19.338  0.00  0.00    +0.000 N 
ATOM      4  H   UNL     1       2.692   6.284  20.307  0.00  0.00    +0.000 HD
ENDROOT
BRANCH   1   9
ATOM      5  C   UNL     1       0.623  10.578  20.911  0.00  0.00    +0.000 A 
ATOM      6  C   UNL     1       0.107   9.918  22.032  0.00  0.00    +0.000 A 
ATOM      7  C   UNL     1       0.325   8.547  22.192  0.00  0.00    +0.000 A 
ATOM      8  C   UNL     1       1.008   7.826  21.210  0.00  0.00    +0.000 A 
ATOM      9  C   UNL     1       1.475   8.482  20.065  0.00  0.00    +0.000 A 
ATOM     10  C   UNL     1       1.309   9.864  19.926  0.00  0.00    +0.000 A 
BRANCH   5  11
ATOM     11  S   UNL     1       0.274  12.311  20.652  0.00  0.00    +0.000 S 
ATOM     12  O   UNL     1       1.351  13.051  21.273  0.00  0.00    +0.000 OA
ATOM     13  O   UNL     1      -1.102  12.533  21.038  0.00  0.00    +0.000 OA
BRANCH  11  15
ATOM     14  C   UNL     1      -0.878  12.601  18.218  0.00  0.00    +0.000 C 
ATOM     15  N   UNL     1       0.381  12.506  18.970  0.00  0.00    +0.000 NA
ATOM     16  C   UNL     1       1.461  13.364  18.459  0.00  0.00    +0.000 C 
ENDBRANCH  11  15
ENDBRANCH   5  11
ENDBRANCH   1   9
BRANCH   3  17
ATOM     17  C   UNL     1       3.448   5.651  18.500  0.00  0.00    +0.000 A 
ATOM     18  C   UNL     1       4.170   6.077  17.373  0.00  0.00    +0.000 A 
ATOM     19  C   UNL     1       4.801   5.172  16.509  0.00  0.00    +0.000 A 
ATOM     20  C   UNL     1       4.746   3.809  16.803  0.00  0.00    +0.000 A 
ATOM     21  C   UNL     1       4.047   3.358  17.926  0.00  0.00    +0.000 A 
ATOM     22  C   UNL     1       3.375   4.262  18.776  0.00  0.00    +0.000 A 
BRANCH  22  23
ATOM     23  N   UNL     1       2.594   3.734  19.854  0.00  0.00    +0.000 N 
ATOM     24  C   UNL     1       3.016   2.929  20.898  0.00  0.00    +0.000 A 
ATOM     25  C   UNL     1       1.907   2.574  21.626  0.00  0.00    +0.000 A 
ATOM     26  C   UNL     1       0.848   3.232  20.991  0.00  0.00    +0.000 A 
ATOM     27  N   UNL     1       1.250   3.957  19.943  0.00  0.00    +0.000 NA
ENDBRANCH  22  23
BRANCH  19  28
ATOM     28  C   UNL     1       5.519   5.653  15.270  0.00  0.00    +0.000 C 
ATOM     29  F   UNL     1       6.866   5.774  15.419  0.00  0.00    +0.000 F 
ATOM     30  F   UNL     1       5.333   4.819  14.211  0.00  0.00    +0.000 F 
ATOM     31  F   UNL     1       5.077   6.876  14.862  0.00  0.00    +0.000 F 
ENDBRANCH  19  28
ENDBRANCH   3  17
TORSDOF 6
ENDMDL
MODEL 6
REMARK VINA RESULT:      -8.4      4.371      6.634
REMARK  Name = 
REMARK  8 active torsions:
REMARK  status: ('A' for Active; 'I' for Inactive)
REMARK    1  A    between atoms: C_1  and  N_2
REMARK    2  A    between atoms: N_2  and  C_3
REMARK    3  A    between atoms: N_2  and  S_4
REMARK    4  A    between atoms: S_4  and  C_7
REMARK    5  A    between atoms: C_11  and  C_12
REMARK    6  A    between atoms: N_14  and  C_15
REMARK    7  A    between atoms: C_17  and  C_18
REMARK    8  A    between atoms: C_24  and  N_25
REMARK                            x       y       z     vdW  Elec       q    Type
REMARK                         _______ _______ _______ _____ _____    ______ ____
ROOT
ATOM      1  C   UNL     1       2.325   7.784  18.657  0.00  0.00    +0.000 C 
ATOM      2  O   UNL     1       2.485   8.304  17.560  0.00  0.00    +0.000 OA
ATOM      3  N   UNL     1       2.746   6.534  19.066  0.00  0.00    +0.000 N 
ATOM      4  H   UNL     1       2.391   6.183  19.960  0.00  0.00    +0.000 HD
ENDROOT
BRANCH   1   9
ATOM      5  C   UNL     1       0.063  10.402  20.120  0.00  0.00    +0.000 A 
ATOM      6  C   UNL     1      -0.132   9.928  21.422  0.00  0.00    +0.000 A 
ATOM      7  C   UNL     1       0.544   8.783  21.852  0.00  0.00    +0.000 A 
ATOM      8  C   UNL     1       1.370   8.082  20.970  0.00  0.00    +0.000 A 
ATOM      9  C   UNL     1       1.519   8.531  19.653  0.00  0.00    +0.000 A 
ATOM     10  C   UNL     1       0.889   9.708  19.233  0.00  0.00    +0.000 A 
BRANCH   5  11
ATOM     11  S   UNL     1      -0.864  11.812  19.532  0.00  0.00    +0.000 S 
ATOM     12  O   UNL     1      -2.050  11.292  18.887  0.00  0.00    +0.000 OA
ATOM     13  O   UNL     1       0.061  12.663  18.817  0.00  0.00    +0.000 OA
BRANCH  11  15
ATOM     14  C   UNL     1      -0.447  13.695  21.433  0.00  0.00    +0.000 C 
ATOM     15  N   UNL     1      -1.326  12.622  20.950  0.00  0.00    +0.000 NA
ATOM     16  C   UNL     1      -2.763  12.877  21.140  0.00  0.00    +0.000 C 
ENDBRANCH  11  15
ENDBRANCH   5  11
ENDBRANCH   1   9
BRANCH   3  17
ATOM     17  C   UNL     1       3.451   5.563  18.308  0.00  0.00    +0.000 A 
ATOM     18  C   UNL     1       4.203   5.946  17.184  0.00  0.00    +0.000 A 
ATOM     19  C   UNL     1       4.890   5.012  16.397  0.00  0.00    +0.000 A 
ATOM     20  C   UNL     1       4.863   3.667  16.769  0.00  0.00    +0.000 A 
ATOM     21  C   UNL     1       4.134   3.260  17.890  0.00  0.00    +0.000 A 
ATOM     22  C   UNL     1       3.407   4.190  18.661  0.00  0.00    +0.000 A 
BRANCH  22  23
ATOM     23  N   UNL     1       2.601   3.701  19.740  0.00  0.00    +0.000 N 
ATOM     24  C   UNL     1       3.011   2.996  20.858  0.00  0.00    +0.000 A 
ATOM     25  C   UNL     1       1.886   2.638  21.561  0.00  0.00    +0.000 A 
ATOM     26  C   UNL     1       0.828   3.194  20.833  0.00  0.00    +0.000 A 
ATOM     27  N   UNL     1       1.245   3.862  19.753  0.00  0.00    +0.000 NA
ENDBRANCH  22  23
BRANCH  19  28
ATOM     28  C   UNL     1       5.640   5.442  15.159  0.00  0.00    +0.000 C 
ATOM     29  F   UNL     1       5.264   6.658  14.675  0.00  0.00    +0.000 F 
ATOM     30  F   UNL     1       6.982   5.523  15.371  0.00  0.00    +0.000 F 
ATOM     31  F   UNL     1       5.479   4.564  14.129  0.00  0.00    +0.000 F 
ENDBRANCH  19  28
ENDBRANCH   3  17
TORSDOF 6
ENDMDL
MODEL 7
REMARK VINA RESULT:      -8.4      4.256      6.523
REMARK  Name = 
REMARK  8 active torsions:
REMARK  status: ('A' for Active; 'I' for Inactive)
REMARK    1  A    between atoms: C_1  and  N_2
REMARK    2  A    between atoms: N_2  and  C_3
REMARK    3  A    between atoms: N_2  and  S_4
REMARK    4  A    between atoms: S_4  and  C_7
REMARK    5  A    between atoms: C_11  and  C_12
REMARK    6  A    between atoms: N_14  and  C_15
REMARK    7  A    between atoms: C_17  and  C_18
REMARK    8  A    between atoms: C_24  and  N_25
REMARK                            x       y       z     vdW  Elec       q    Type
REMARK                         _______ _______ _______ _____ _____    ______ ____
ROOT
ATOM      1  C   UNL     1       2.179   7.692  18.842  0.00  0.00    +0.000 C 
ATOM      2  O   UNL     1       1.978   8.082  17.698  0.00  0.00    +0.000 OA
ATOM      3  N   UNL     1       2.869   6.563  19.237  0.00  0.00    +0.000 N 
ATOM      4  H   UNL     1       2.808   6.291  20.222  0.00  0.00    +0.000 HD
ENDROOT
BRANCH   1   9
ATOM      5  C   UNL     1       0.722  10.583  20.746  0.00  0.00    +0.000 A 
ATOM      6  C   UNL     1       0.244   9.961  21.905  0.00  0.00    +0.000 A 
ATOM      7  C   UNL     1       0.469   8.596  22.103  0.00  0.00    +0.000 A 
ATOM      8  C   UNL     1       1.120   7.842  21.123  0.00  0.00    +0.000 A 
ATOM      9  C   UNL     1       1.548   8.460  19.942  0.00  0.00    +0.000 A 
ATOM     10  C   UNL     1       1.377   9.837  19.764  0.00  0.00    +0.000 A 
BRANCH   5  11
ATOM     11  S   UNL     1       0.363  12.307  20.442  0.00  0.00    +0.000 S 
ATOM     12  O   UNL     1       1.057  12.669  19.225  0.00  0.00    +0.000 OA
ATOM     13  O   UNL     1       0.603  13.019  21.678  0.00  0.00    +0.000 OA
BRANCH  11  15
ATOM     14  C   UNL     1      -1.820  11.445  19.090  0.00  0.00    +0.000 C 
ATOM     15  N   UNL     1      -1.308  12.333  20.142  0.00  0.00    +0.000 NA
ATOM     16  C   UNL     1      -2.197  12.479  21.305  0.00  0.00    +0.000 C 
ENDBRANCH  11  15
ENDBRANCH   5  11
ENDBRANCH   1   9
BRANCH   3  17
ATOM     17  C   UNL     1       3.497   5.594  18.412  0.00  0.00    +0.000 A 
ATOM     18  C   UNL     1       4.253   5.991  17.296  0.00  0.00    +0.000 A 
ATOM     19  C   UNL     1       4.864   5.061  16.444  0.00  0.00    +0.000 A 
ATOM     20  C   UNL     1       4.754   3.702  16.740  0.00  0.00    +0.000 A 
ATOM     21  C   UNL     1       4.020   3.279  17.851  0.00  0.00    +0.000 A 
ATOM     22  C   UNL     1       3.368   4.209  18.688  0.00  0.00    +0.000 A 
BRANCH  22  23
ATOM     23  N   UNL     1       2.550   3.712  19.754  0.00  0.00    +0.000 N 
ATOM     24  C   UNL     1       2.955   3.056  20.904  0.00  0.00    +0.000 A 
ATOM     25  C   UNL     1       1.825   2.665  21.580  0.00  0.00    +0.000 A 
ATOM     26  C   UNL     1       0.767   3.154  20.804  0.00  0.00    +0.000 A 
ATOM     27  N   UNL     1       1.189   3.812  19.720  0.00  0.00    +0.000 NA
ENDBRANCH  22  23
BRANCH  19  28
ATOM     28  C   UNL     1       5.620   5.513  15.217  0.00  0.00    +0.000 C 
ATOM     29  F   UNL     1       6.968   5.593  15.391  0.00  0.00    +0.000 F 
ATOM     30  F   UNL     1       5.428   4.679  14.158  0.00  0.00    +0.000 F 
ATOM     31  F   UNL     1       5.224   6.746  14.794  0.00  0.00    +0.000 F 
ENDBRANCH  19  28
ENDBRANCH   3  17
TORSDOF 6
ENDMDL
MODEL 8
REMARK VINA RESULT:      -8.3      4.310      6.601
REMARK  Name = 
REMARK  8 active torsions:
REMARK  status: ('A' for Active; 'I' for Inactive)
REMARK    1  A    between atoms: C_1  and  N_2
REMARK    2  A    between atoms: N_2  and  C_3
REMARK    3  A    between atoms: N_2  and  S_4
REMARK    4  A    between atoms: S_4  and  C_7
REMARK    5  A    between atoms: C_11  and  C_12
REMARK    6  A    between atoms: N_14  and  C_15
REMARK    7  A    between atoms: C_17  and  C_18
REMARK    8  A    between atoms: C_24  and  N_25
REMARK                            x       y       z     vdW  Elec       q    Type
REMARK                         _______ _______ _______ _____ _____    ______ ____
ROOT
ATOM      1  C   UNL     1       2.312   7.769  18.677  0.00  0.00    +0.000 C 
ATOM      2  O   UNL     1       2.451   8.295  17.580  0.00  0.00    +0.000 OA
ATOM      3  N   UNL     1       2.744   6.518  19.071  0.00  0.00    +0.000 N 
ATOM      4  H   UNL     1       2.407   6.162  19.970  0.00  0.00    +0.000 HD
ENDROOT
BRANCH   1   9
ATOM      5  C   UNL     1       0.063  10.368  20.193  0.00  0.00    +0.000 A 
ATOM      6  C   UNL     1      -0.099   9.890  21.498  0.00  0.00    +0.000 A 
ATOM      7  C   UNL     1       0.595   8.750  21.912  0.00  0.00    +0.000 A 
ATOM      8  C   UNL     1       1.406   8.057  21.010  0.00  0.00    +0.000 A 
ATOM      9  C   UNL     1       1.523   8.509  19.691  0.00  0.00    +0.000 A 
ATOM     10  C   UNL     1       0.875   9.682  19.287  0.00  0.00    +0.000 A 
BRANCH   5  11
ATOM     11  S   UNL     1      -0.888  11.771  19.627  0.00  0.00    +0.000 S 
ATOM     12  O   UNL     1      -1.770  12.141  20.712  0.00  0.00    +0.000 OA
ATOM     13  O   UNL     1      -1.412  11.434  18.322  0.00  0.00    +0.000 OA
BRANCH  11  15
ATOM     14  C   UNL     1      -0.178  14.249  18.797  0.00  0.00    +0.000 C 
ATOM     15  N   UNL     1       0.268  12.997  19.423  0.00  0.00    +0.000 NA
ATOM     16  C   UNL     1       1.260  13.170  20.495  0.00  0.00    +0.000 C 
ENDBRANCH  11  15
ENDBRANCH   5  11
ENDBRANCH   1   9
BRANCH   3  17
ATOM     17  C   UNL     1       3.438   5.554  18.296  0.00  0.00    +0.000 A 
ATOM     18  C   UNL     1       4.202   5.949  17.184  0.00  0.00    +0.000 A 
ATOM     19  C   UNL     1       4.879   5.022  16.380  0.00  0.00    +0.000 A 
ATOM     20  C   UNL     1       4.828   3.670  16.721  0.00  0.00    +0.000 A 
ATOM     21  C   UNL     1       4.087   3.249  17.829  0.00  0.00    +0.000 A 
ATOM     22  C   UNL     1       3.370   4.174  18.617  0.00  0.00    +0.000 A 
BRANCH  22  23
ATOM     23  N   UNL     1       2.551   3.674  19.681  0.00  0.00    +0.000 N 
ATOM     24  C   UNL     1       1.289   3.111  19.592  0.00  0.00    +0.000 A 
ATOM     25  C   UNL     1       0.843   2.884  20.871  0.00  0.00    +0.000 A 
ATOM     26  C   UNL     1       1.902   3.296  21.688  0.00  0.00    +0.000 A 
ATOM     27  N   UNL     1       2.947   3.744  20.985  0.00  0.00    +0.000 NA
ENDBRANCH  22  23
BRANCH  19  28
ATOM     28  C   UNL     1       5.642   5.468  15.155  0.00  0.00    +0.000 C 
ATOM     29  F   UNL     1       5.524   4.629  14.090  0.00  0.00    +0.000 F 
ATOM     30  F   UNL     1       5.239   6.691  14.715  0.00  0.00    +0.000 F 
ATOM     31  F   UNL     1       6.978   5.581  15.395  0.00  0.00    +0.000 F 
ENDBRANCH  19  28
ENDBRANCH   3  17
TORSDOF 6
ENDMDL
MODEL 9
REMARK VINA RESULT:      -8.3      0.695      1.156
REMARK  Name = 
REMARK  8 active torsions:
REMARK  status: ('A' for Active; 'I' for Inactive)
REMARK    1  A    between atoms: C_1  and  N_2
REMARK    2  A    between atoms: N_2  and  C_3
REMARK    3  A    between atoms: N_2  and  S_4
REMARK    4  A    between atoms: S_4  and  C_7
REMARK    5  A    between atoms: C_11  and  C_12
REMARK    6  A    between atoms: N_14  and  C_15
REMARK    7  A    between atoms: C_17  and  C_18
REMARK    8  A    between atoms: C_24  and  N_25
REMARK                            x       y       z     vdW  Elec       q    Type
REMARK                         _______ _______ _______ _____ _____    ______ ____
ROOT
ATOM      1  C   UNL     1       4.052   6.412  17.252  0.00  0.00    +0.000 C 
ATOM      2  O   UNL     1       4.229   7.529  16.784  0.00  0.00    +0.000 OA
ATOM      3  N   UNL     1       4.569   5.215  16.794  0.00  0.00    +0.000 N 
ATOM      4  H   UNL     1       4.195   4.352  17.198  0.00  0.00    +0.000 HD
ENDROOT
BRANCH   1   9
ATOM      5  C   UNL     1       2.060   4.871  20.040  0.00  0.00    +0.000 A 
ATOM      6  C   UNL     1       1.470   5.993  20.633  0.00  0.00    +0.000 A 
ATOM      7  C   UNL     1       1.661   7.257  20.071  0.00  0.00    +0.000 A 
ATOM      8  C   UNL     1       2.484   7.411  18.951  0.00  0.00    +0.000 A 
ATOM      9  C   UNL     1       3.114   6.293  18.395  0.00  0.00    +0.000 A 
ATOM     10  C   UNL     1       2.881   5.017  18.919  0.00  0.00    +0.000 A 
BRANCH   5  11
ATOM     11  S   UNL     1       1.896   3.263  20.801  0.00  0.00    +0.000 S 
ATOM     12  O   UNL     1       0.617   2.733  20.383  0.00  0.00    +0.000 OA
ATOM     13  O   UNL     1       2.216   3.419  22.203  0.00  0.00    +0.000 OA
BRANCH  11  15
ATOM     14  C   UNL     1       4.189   1.832  20.964  0.00  0.00    +0.000 C 
ATOM     15  N   UNL     1       3.127   2.341  20.085  0.00  0.00    +0.000 NA
ATOM     16  C   UNL     1       2.738   1.421  19.005  0.00  0.00    +0.000 C 
ENDBRANCH  11  15
ENDBRANCH   5  11
ENDBRANCH   1   9
BRANCH   3  17
ATOM     17  C   UNL     1       5.415   5.006  15.674  0.00  0.00    +0.000 A 
ATOM     18  C   UNL     1       4.927   4.363  14.524  0.00  0.00    +0.000 A 
ATOM     19  C   UNL     1       5.741   4.115  13.410  0.00  0.00    +0.000 A 
ATOM     20  C   UNL     1       7.063   4.561  13.428  0.00  0.00    +0.000 A 
ATOM     21  C   UNL     1       7.571   5.215  14.554  0.00  0.00    +0.000 A 
ATOM     22  C   UNL     1       6.768   5.430  15.693  0.00  0.00    +0.000 A 
BRANCH  22  23
ATOM     23  N   UNL     1       7.371   6.019  16.853  0.00  0.00    +0.000 N 
ATOM     24  C   UNL     1       7.655   5.413  18.064  0.00  0.00    +0.000 A 
ATOM     25  C   UNL     1       8.122   6.385  18.916  0.00  0.00    +0.000 A 
ATOM     26  C   UNL     1       8.132   7.551  18.143  0.00  0.00    +0.000 A 
ATOM     27  N   UNL     1       7.712   7.340  16.891  0.00  0.00    +0.000 NA
ENDBRANCH  22  23
BRANCH  19  28
ATOM     28  C   UNL     1       5.208   3.367  12.211  0.00  0.00    +0.000 C 
ATOM     29  F   UNL     1       3.851   3.262  12.178  0.00  0.00    +0.000 F 
ATOM     30  F   UNL     1       5.567   3.954  11.037  0.00  0.00    +0.000 F 
ATOM     31  F   UNL     1       5.683   2.091  12.149  0.00  0.00    +0.000 F 
ENDBRANCH  19  28
ENDBRANCH   3  17
TORSDOF 6
ENDMDL
