MODEL 1
REMARK VINA RESULT:      -8.9      0.000      0.000
REMARK  Name = 
REMARK  8 active torsions:
REMARK  status: ('A' for Active; 'I' for Inactive)
REMARK    1  A    between atoms: N_1  and  C_2
REMARK    2  A    between atoms: C_3  and  N_4
REMARK    3  A    between atoms: N_4  and  C_5
REMARK    4  A    between atoms: C_5  and  C_6
REMARK    5  A    between atoms: C_11  and  C_13
REMARK    6  A    between atoms: C_13  and  C_14
REMARK    7  A    between atoms: N_26  and  C_27
REMARK    8  A    between atoms: C_27  and  C_28
REMARK                            x       y       z     vdW  Elec       q    Type
REMARK                         _______ _______ _______ _____ _____    ______ ____
ROOT
ATOM      1  C   UNL     1       1.685   8.620  18.714  0.00  0.00    +0.000 A 
ATOM      2  C   UNL     1       2.024   7.349  19.090  0.00  0.00    +0.000 A 
ATOM      3  C   UNL     1       1.799   6.956  20.516  0.00  0.00    +0.000 A 
ATOM      4  O   UNL     1       1.817   5.783  20.894  0.00  0.00    +0.000 OA
ATOM      5  N   UNL     1       1.521   7.965  21.374  0.00  0.00    +0.000 N 
ATOM      6  C   UNL     1       1.005   9.162  21.001  0.00  0.00    +0.000 A 
ATOM      7  O   UNL     1       0.491   9.884  21.858  0.00  0.00    +0.000 OA
ATOM      8  N   UNL     1       1.083   9.478  19.647  0.00  0.00    +0.000 N 
ATOM      9  H   UNL     1       1.353   7.701  22.332  0.00  0.00    +0.000 HD
ENDROOT
BRANCH   1  10
ATOM     10  N   UNL     1       1.971   9.083  17.435  0.00  0.00    +0.000 N 
ATOM     11  H   UNL     1       1.161   9.380  16.906  0.00  0.00    +0.000 HD
ATOM     12  H   UNL     1       2.743   9.740  17.399  0.00  0.00    +0.000 HD
ENDBRANCH   1  10
BRANCH   2  13
ATOM     13  N   UNL     1       2.555   6.360  18.244  0.00  0.00    +0.000 N 
ATOM     14  C   UNL     1       3.873   6.551  17.767  0.00  0.00    +0.000 C 
ATOM     15  O   UNL     1       4.519   7.575  18.002  0.00  0.00    +0.000 OA
BRANCH  13  16
ATOM     16  C   UNL     1       1.794   5.122  17.981  0.00  0.00    +0.000 C 
BRANCH  16  17
ATOM     17  C   UNL     1       2.383   3.799  18.357  0.00  0.00    +0.000 A 
ATOM     18  C   UNL     1       2.529   2.636  17.616  0.00  0.00    +0.000 A 
ATOM     19  C   UNL     1       3.297   1.747  18.404  0.00  0.00    +0.000 A 
ATOM     20  C   UNL     1       3.537   2.402  19.589  0.00  0.00    +0.000 A 
ATOM     21  O   UNL     1       2.946   3.622  19.582  0.00  0.00    +0.000 OA
ENDBRANCH  16  17
ENDBRANCH  13  16
BRANCH  14  22
ATOM     22  C   UNL     1       4.474   5.425  16.907  0.00  0.00    +0.000 C 
BRANCH  22  23
ATOM     23  C   UNL     1       5.663   4.668  17.517  0.00  0.00    +0.000 C 
ATOM     24  C   UNL     1       6.012   5.116  18.955  0.00  0.00    +0.000 C 
ATOM     25  C   UNL     1       7.510   5.471  18.871  0.00  0.00    +0.000 C 
ATOM     26  C   UNL     1       7.670   6.791  18.097  0.00  0.00    +0.000 C 
ATOM     27  C   UNL     1       7.385   6.373  16.647  0.00  0.00    +0.000 C 
ATOM     28  C   UNL     1       7.022   4.881  16.781  0.00  0.00    +0.000 C 
ATOM     29  C   UNL     1       8.022   4.448  17.858  0.00  0.00    +0.000 C 
ENDBRANCH  22  23
ENDBRANCH  14  22
ENDBRANCH   2  13
BRANCH   8  30
ATOM     30  C   UNL     1       0.581  10.812  19.273  0.00  0.00    +0.000 C 
BRANCH  30  31
ATOM     31  C   UNL     1      -0.861  10.857  18.795  0.00  0.00    +0.000 A 
ATOM     32  C   UNL     1      -1.376   9.933  17.873  0.00  0.00    +0.000 A 
ATOM     33  C   UNL     1      -2.705  10.018  17.448  0.00  0.00    +0.000 A 
ATOM     34  C   UNL     1      -3.544  11.007  17.954  0.00  0.00    +0.000 A 
ATOM     35  C   UNL     1      -3.065  11.895  18.914  0.00  0.00    +0.000 A 
ATOM     36  C   UNL     1      -1.736  11.814  19.339  0.00  0.00    +0.000 A 
ENDBRANCH  30  31
ENDBRANCH   8  30
TORSDOF 8
ENDMDL
MODEL 2
REMARK VINA RESULT:      -8.5      0.601      1.128
REMARK  Name = 
REMARK  8 active torsions:
REMARK  status: ('A' for Active; 'I' for Inactive)
REMARK    1  A    between atoms: N_1  and  C_2
REMARK    2  A    between atoms: C_3  and  N_4
REMARK    3  A    between atoms: N_4  and  C_5
REMARK    4  A    between atoms: C_5  and  C_6
REMARK    5  A    between atoms: C_11  and  C_13
REMARK    6  A    between atoms: C_13  and  C_14
REMARK    7  A    between atoms: N_26  and  C_27
REMARK    8  A    between atoms: C_27  and  C_28
REMARK                            x       y       z     vdW  Elec       q    Type
REMARK                         _______ _______ _______ _____ _____    ______ ____
ROOT
ATOM      1  C   UNL     1       1.629   8.931  18.700  0.00  0.00    +0.000 A 
ATOM      2  C   UNL     1       1.979   7.661  19.072  0.00  0.00    +0.000 A 
ATOM      3  C   UNL     1       1.816   7.282  20.510  0.00  0.00    +0.000 A 
ATOM      4  O   UNL     1       1.847   6.113  20.899  0.00  0.00    +0.000 OA
ATOM      5  N   UNL     1       1.581   8.300  21.371  0.00  0.00    +0.000 N 
ATOM      6  C   UNL     1       1.055   9.497  21.011  0.00  0.00    +0.000 A 
ATOM      7  O   UNL     1       0.584  10.228  21.883  0.00  0.00    +0.000 OA
ATOM      8  N   UNL     1       1.074   9.800  19.651  0.00  0.00    +0.000 N 
ATOM      9  H   UNL     1       1.456   8.046  22.338  0.00  0.00    +0.000 HD
ENDROOT
BRANCH   1  10
ATOM     10  N   UNL     1       1.859   9.380  17.406  0.00  0.00    +0.000 N 
ATOM     11  H   UNL     1       2.787   9.184  17.052  0.00  0.00    +0.000 HD
ATOM     12  H   UNL     1       1.118   9.148  16.752  0.00  0.00    +0.000 HD
ENDBRANCH   1  10
BRANCH   2  13
ATOM     13  N   UNL     1       2.467   6.662  18.213  0.00  0.00    +0.000 N 
ATOM     14  C   UNL     1       3.813   6.767  17.791  0.00  0.00    +0.000 C 
ATOM     15  O   UNL     1       4.525   7.730  18.086  0.00  0.00    +0.000 OA
BRANCH  13  16
ATOM     16  C   UNL     1       1.626   5.495  17.879  0.00  0.00    +0.000 C 
BRANCH  16  17
ATOM     17  C   UNL     1       2.125   4.116  18.177  0.00  0.00    +0.000 A 
ATOM     18  C   UNL     1       2.555   3.553  19.368  0.00  0.00    +0.000 A 
ATOM     19  C   UNL     1       2.758   2.175  19.116  0.00  0.00    +0.000 A 
ATOM     20  C   UNL     1       2.479   1.990  17.782  0.00  0.00    +0.000 A 
ATOM     21  O   UNL     1       2.144   3.168  17.202  0.00  0.00    +0.000 OA
ENDBRANCH  16  17
ENDBRANCH  13  16
BRANCH  14  22
ATOM     22  C   UNL     1       4.362   5.626  16.916  0.00  0.00    +0.000 C 
BRANCH  22  23
ATOM     23  C   UNL     1       5.518   4.811  17.512  0.00  0.00    +0.000 C 
ATOM     24  C   UNL     1       5.897   5.232  18.950  0.00  0.00    +0.000 C 
ATOM     25  C   UNL     1       7.410   5.517  18.858  0.00  0.00    +0.000 C 
ATOM     26  C   UNL     1       7.625   6.834  18.092  0.00  0.00    +0.000 C 
ATOM     27  C   UNL     1       7.311   6.440  16.641  0.00  0.00    +0.000 C 
ATOM     28  C   UNL     1       6.880   4.966  16.768  0.00  0.00    +0.000 C 
ATOM     29  C   UNL     1       7.867   4.479  17.834  0.00  0.00    +0.000 C 
ENDBRANCH  22  23
ENDBRANCH  14  22
ENDBRANCH   2  13
BRANCH   8  30
ATOM     30  C   UNL     1       0.561  11.132  19.288  0.00  0.00    +0.000 C 
BRANCH  30  31
ATOM     31  C   UNL     1      -0.922  11.197  18.964  0.00  0.00    +0.000 A 
ATOM     32  C   UNL     1      -1.795  12.082  19.615  0.00  0.00    +0.000 A 
ATOM     33  C   UNL     1      -3.157  12.100  19.299  0.00  0.00    +0.000 A 
ATOM     34  C   UNL     1      -3.661  11.255  18.312  0.00  0.00    +0.000 A 
ATOM     35  C   UNL     1      -2.798  10.414  17.616  0.00  0.00    +0.000 A 
ATOM     36  C   UNL     1      -1.437  10.392  17.932  0.00  0.00    +0.000 A 
ENDBRANCH  30  31
ENDBRANCH   8  30
TORSDOF 8
ENDMDL
MODEL 3
REMARK VINA RESULT:      -8.5      2.607      7.802
REMARK  Name = 
REMARK  8 active torsions:
REMARK  status: ('A' for Active; 'I' for Inactive)
REMARK    1  A    between atoms: N_1  and  C_2
REMARK    2  A    between atoms: C_3  and  N_4
REMARK    3  A    between atoms: N_4  and  C_5
REMARK    4  A    between atoms: C_5  and  C_6
REMARK    5  A    between atoms: C_11  and  C_13
REMARK    6  A    between atoms: C_13  and  C_14
REMARK    7  A    between atoms: N_26  and  C_27
REMARK    8  A    between atoms: C_27  and  C_28
REMARK                            x       y       z     vdW  Elec       q    Type
REMARK                         _______ _______ _______ _____ _____    ______ ____
ROOT
ATOM      1  C   UNL     1       5.261   5.855  16.567  0.00  0.00    +0.000 A 
ATOM      2  C   UNL     1       4.545   5.670  17.719  0.00  0.00    +0.000 A 
ATOM      3  C   UNL     1       5.190   4.905  18.831  0.00  0.00    +0.000 A 
ATOM      4  O   UNL     1       4.751   4.907  19.983  0.00  0.00    +0.000 OA
ATOM      5  N   UNL     1       6.325   4.239  18.514  0.00  0.00    +0.000 N 
ATOM      6  C   UNL     1       7.129   4.556  17.470  0.00  0.00    +0.000 A 
ATOM      7  O   UNL     1       8.280   4.117  17.448  0.00  0.00    +0.000 OA
ATOM      8  N   UNL     1       6.582   5.387  16.495  0.00  0.00    +0.000 N 
ATOM      9  H   UNL     1       6.770   3.735  19.265  0.00  0.00    +0.000 HD
ENDROOT
BRANCH   1  10
ATOM     10  N   UNL     1       4.681   6.458  15.459  0.00  0.00    +0.000 N 
ATOM     11  H   UNL     1       4.542   5.841  14.669  0.00  0.00    +0.000 HD
ATOM     12  H   UNL     1       3.869   7.026  15.678  0.00  0.00    +0.000 HD
ENDBRANCH   1  10
BRANCH   2  13
ATOM     13  N   UNL     1       3.248   6.154  17.961  0.00  0.00    +0.000 N 
ATOM     14  C   UNL     1       3.092   7.554  18.101  0.00  0.00    +0.000 C 
ATOM     15  O   UNL     1       4.052   8.329  18.096  0.00  0.00    +0.000 OA
BRANCH  13  16
ATOM     16  C   UNL     1       2.095   5.232  17.942  0.00  0.00    +0.000 C 
BRANCH  16  17
ATOM     17  C   UNL     1       1.870   4.306  19.096  0.00  0.00    +0.000 A 
ATOM     18  C   UNL     1       1.296   4.539  20.336  0.00  0.00    +0.000 A 
ATOM     19  C   UNL     1       1.187   3.281  20.975  0.00  0.00    +0.000 A 
ATOM     20  C   UNL     1       1.737   2.367  20.107  0.00  0.00    +0.000 A 
ATOM     21  O   UNL     1       2.194   2.990  18.993  0.00  0.00    +0.000 OA
ENDBRANCH  16  17
ENDBRANCH  13  16
BRANCH  14  22
ATOM     22  C   UNL     1       1.659   8.081  18.286  0.00  0.00    +0.000 C 
BRANCH  22  23
ATOM     23  C   UNL     1       1.511   9.362  19.120  0.00  0.00    +0.000 C 
ATOM     24  C   UNL     1       0.583   9.200  20.346  0.00  0.00    +0.000 C 
ATOM     25  C   UNL     1      -0.447  10.334  20.175  0.00  0.00    +0.000 C 
ATOM     26  C   UNL     1      -1.403   9.973  19.024  0.00  0.00    +0.000 C 
ATOM     27  C   UNL     1      -0.529  10.177  17.778  0.00  0.00    +0.000 C 
ATOM     28  C   UNL     1       0.841  10.556  18.373  0.00  0.00    +0.000 C 
ATOM     29  C   UNL     1       0.399  11.439  19.545  0.00  0.00    +0.000 C 
ENDBRANCH  22  23
ENDBRANCH  14  22
ENDBRANCH   2  13
BRANCH   8  30
ATOM     30  C   UNL     1       7.447   5.664  15.335  0.00  0.00    +0.000 C 
BRANCH  30  31
ATOM     31  C   UNL     1       7.125   4.875  14.076  0.00  0.00    +0.000 A 
ATOM     32  C   UNL     1       6.188   3.831  14.064  0.00  0.00    +0.000 A 
ATOM     33  C   UNL     1       5.931   3.119  12.888  0.00  0.00    +0.000 A 
ATOM     34  C   UNL     1       6.585   3.456  11.705  0.00  0.00    +0.000 A 
ATOM     35  C   UNL     1       7.473   4.528  11.687  0.00  0.00    +0.000 A 
ATOM     36  C   UNL     1       7.734   5.239  12.862  0.00  0.00    +0.000 A 
ENDBRANCH  30  31
ENDBRANCH   8  30
TORSDOF 8
ENDMDL
MODEL 4
REMARK VINA RESULT:      -8.3      1.181      1.664
REMARK  Name = 
REMARK  8 active torsions:
REMARK  status: ('A' for Active; 'I' for Inactive)
REMARK    1  A    between atoms: N_1  and  C_2
REMARK    2  A    between atoms: C_3  and  N_4
REMARK    3  A    between atoms: N_4  and  C_5
REMARK    4  A    between atoms: C_5  and  C_6
REMARK    5  A    between atoms: C_11  and  C_13
REMARK    6  A    between atoms: C_13  and  C_14
REMARK    7  A    between atoms: N_26  and  C_27
REMARK    8  A    between atoms: C_27  and  C_28
REMARK                            x       y       z     vdW  Elec       q    Type
REMARK                         _______ _______ _______ _____ _____    ______ ____
ROOT
ATOM      1  C   UNL     1       1.938   8.291  18.716  0.00  0.00    +0.000 A 
ATOM      2  C   UNL     1       2.189   7.053  19.243  0.00  0.00    +0.000 A 
ATOM      3  C   UNL     1       1.839   6.819  20.679  0.00  0.00    +0.000 A 
ATOM      4  O   UNL     1       1.775   5.692  21.173  0.00  0.00    +0.000 OA
ATOM      5  N   UNL     1       1.544   7.921  21.407  0.00  0.00    +0.000 N 
ATOM      6  C   UNL     1       1.114   9.093  20.876  0.00  0.00    +0.000 A 
ATOM      7  O   UNL     1       0.572   9.918  21.613  0.00  0.00    +0.000 OA
ATOM      8  N   UNL     1       1.308   9.263  19.508  0.00  0.00    +0.000 N 
ATOM      9  H   UNL     1       1.293   7.765  22.371  0.00  0.00    +0.000 HD
ENDROOT
BRANCH   1  10
ATOM     10  N   UNL     1       2.340   8.608  17.425  0.00  0.00    +0.000 N 
ATOM     11  H   UNL     1       1.643   9.094  16.875  0.00  0.00    +0.000 HD
ATOM     12  H   UNL     1       3.263   9.027  17.373  0.00  0.00    +0.000 HD
ENDBRANCH   1  10
BRANCH   2  13
ATOM     13  N   UNL     1       2.736   5.963  18.546  0.00  0.00    +0.000 N 
ATOM     14  C   UNL     1       4.120   5.718  18.702  0.00  0.00    +0.000 C 
ATOM     15  O   UNL     1       4.854   6.467  19.352  0.00  0.00    +0.000 OA
BRANCH  13  16
ATOM     16  C   UNL     1       1.856   5.051  17.788  0.00  0.00    +0.000 C 
BRANCH  16  17
ATOM     17  C   UNL     1       1.555   3.690  18.335  0.00  0.00    +0.000 A 
ATOM     18  C   UNL     1       2.002   2.441  17.934  0.00  0.00    +0.000 A 
ATOM     19  C   UNL     1       1.537   1.516  18.899  0.00  0.00    +0.000 A 
ATOM     20  C   UNL     1       0.803   2.248  19.802  0.00  0.00    +0.000 A 
ATOM     21  O   UNL     1       0.772   3.553  19.438  0.00  0.00    +0.000 OA
ENDBRANCH  16  17
ENDBRANCH  13  16
BRANCH  14  22
ATOM     22  C   UNL     1       4.694   4.475  17.999  0.00  0.00    +0.000 C 
BRANCH  22  23
ATOM     23  C   UNL     1       4.725   4.519  16.464  0.00  0.00    +0.000 C 
ATOM     24  C   UNL     1       5.571   3.393  15.828  0.00  0.00    +0.000 C 
ATOM     25  C   UNL     1       6.558   4.150  14.917  0.00  0.00    +0.000 C 
ATOM     26  C   UNL     1       7.607   4.858  15.794  0.00  0.00    +0.000 C 
ATOM     27  C   UNL     1       6.813   6.023  16.402  0.00  0.00    +0.000 C 
ATOM     28  C   UNL     1       5.389   5.794  15.859  0.00  0.00    +0.000 C 
ATOM     29  C   UNL     1       5.708   5.325  14.435  0.00  0.00    +0.000 C 
ENDBRANCH  22  23
ENDBRANCH  14  22
ENDBRANCH   2  13
BRANCH   8  30
ATOM     30  C   UNL     1       0.898  10.569  18.963  0.00  0.00    +0.000 C 
BRANCH  30  31
ATOM     31  C   UNL     1      -0.554  10.668  18.526  0.00  0.00    +0.000 A 
ATOM     32  C   UNL     1      -1.101   9.827  17.545  0.00  0.00    +0.000 A 
ATOM     33  C   UNL     1      -2.439   9.959  17.160  0.00  0.00    +0.000 A 
ATOM     34  C   UNL     1      -3.254  10.914  17.764  0.00  0.00    +0.000 A 
ATOM     35  C   UNL     1      -2.741  11.716  18.780  0.00  0.00    +0.000 A 
ATOM     36  C   UNL     1      -1.404  11.587  19.166  0.00  0.00    +0.000 A 
ENDBRANCH  30  31
ENDBRANCH   8  30
TORSDOF 8
ENDMDL
MODEL 5
REMARK VINA RESULT:      -8.3      6.402      7.990
REMARK  Name = 
REMARK  8 active torsions:
REMARK  status: ('A' for Active; 'I' for Inactive)
REMARK    1  A    between atoms: N_1  and  C_2
REMARK    2  A    between atoms: C_3  and  N_4
REMARK    3  A    between atoms: N_4  and  C_5
REMARK    4  A    between atoms: C_5  and  C_6
REMARK    5  A    between atoms: C_11  and  C_13
REMARK    6  A    between atoms: C_13  and  C_14
REMARK    7  A    between atoms: N_26  and  C_27
REMARK    8  A    between atoms: C_27  and  C_28
REMARK                            x       y       z     vdW  Elec       q    Type
REMARK                         _______ _______ _______ _____ _____    ______ ____
ROOT
ATOM      1  C   UNL     1      -2.328  13.220  21.066  0.00  0.00    +0.000 A 
ATOM      2  C   UNL     1      -1.156  12.666  21.505  0.00  0.00    +0.000 A 
ATOM      3  C   UNL     1      -1.188  11.871  22.772  0.00  0.00    +0.000 A 
ATOM      4  O   UNL     1      -0.270  11.122  23.112  0.00  0.00    +0.000 OA
ATOM      5  N   UNL     1      -2.315  11.980  23.515  0.00  0.00    +0.000 N 
ATOM      6  C   UNL     1      -3.521  12.354  23.020  0.00  0.00    +0.000 A 
ATOM      7  O   UNL     1      -4.535  12.119  23.678  0.00  0.00    +0.000 OA
ATOM      8  N   UNL     1      -3.516  12.971  21.771  0.00  0.00    +0.000 N 
ATOM      9  H   UNL     1      -2.345  11.434  24.362  0.00  0.00    +0.000 HD
ENDROOT
BRANCH   1  10
ATOM     10  N   UNL     1      -2.346  14.059  19.959  0.00  0.00    +0.000 N 
ATOM     11  H   UNL     1      -2.557  13.596  19.085  0.00  0.00    +0.000 HD
ATOM     12  H   UNL     1      -2.870  14.916  20.102  0.00  0.00    +0.000 HD
ENDBRANCH   1  10
BRANCH   2  13
ATOM     13  N   UNL     1       0.087  12.761  20.857  0.00  0.00    +0.000 N 
ATOM     14  C   UNL     1       0.958  13.797  21.270  0.00  0.00    +0.000 C 
ATOM     15  O   UNL     1       0.629  14.644  22.104  0.00  0.00    +0.000 OA
BRANCH  13  16
ATOM     16  C   UNL     1       0.493  11.734  19.877  0.00  0.00    +0.000 C 
BRANCH  16  17
ATOM     17  C   UNL     1      -0.477  11.288  18.829  0.00  0.00    +0.000 A 
ATOM     18  C   UNL     1      -0.963  10.024  18.532  0.00  0.00    +0.000 A 
ATOM     19  C   UNL     1      -1.976  10.197  17.559  0.00  0.00    +0.000 A 
ATOM     20  C   UNL     1      -2.017  11.545  17.292  0.00  0.00    +0.000 A 
ATOM     21  O   UNL     1      -1.081  12.200  18.021  0.00  0.00    +0.000 OA
ENDBRANCH  16  17
ENDBRANCH  13  16
BRANCH  14  22
ATOM     22  C   UNL     1       2.348  13.844  20.611  0.00  0.00    +0.000 C 
BRANCH  22  23
ATOM     23  C   UNL     1       2.443  14.614  19.286  0.00  0.00    +0.000 C 
ATOM     24  C   UNL     1       3.370  13.945  18.245  0.00  0.00    +0.000 C 
ATOM     25  C   UNL     1       4.358  15.066  17.864  0.00  0.00    +0.000 C 
ATOM     26  C   UNL     1       5.332  15.293  19.034  0.00  0.00    +0.000 C 
ATOM     27  C   UNL     1       4.458  16.011  20.072  0.00  0.00    +0.000 C 
ATOM     28  C   UNL     1       3.072  16.038  19.400  0.00  0.00    +0.000 C 
ATOM     29  C   UNL     1       3.474  16.310  17.946  0.00  0.00    +0.000 C 
ENDBRANCH  22  23
ENDBRANCH  14  22
ENDBRANCH   2  13
BRANCH   8  30
ATOM     30  C   UNL     1      -4.826  13.432  21.282  0.00  0.00    +0.000 C 
BRANCH  30  31
ATOM     31  C   UNL     1      -5.559  12.466  20.365  0.00  0.00    +0.000 A 
ATOM     32  C   UNL     1      -5.130  12.205  19.054  0.00  0.00    +0.000 A 
ATOM     33  C   UNL     1      -5.840  11.320  18.237  0.00  0.00    +0.000 A 
ATOM     34  C   UNL     1      -6.970  10.666  18.723  0.00  0.00    +0.000 A 
ATOM     35  C   UNL     1      -7.374  10.870  20.039  0.00  0.00    +0.000 A 
ATOM     36  C   UNL     1      -6.667  11.756  20.858  0.00  0.00    +0.000 A 
ENDBRANCH  30  31
ENDBRANCH   8  30
TORSDOF 8
ENDMDL
MODEL 6
REMARK VINA RESULT:      -8.3      1.285      1.748
REMARK  Name = 
REMARK  8 active torsions:
REMARK  status: ('A' for Active; 'I' for Inactive)
REMARK    1  A    between atoms: N_1  and  C_2
REMARK    2  A    between atoms: C_3  and  N_4
REMARK    3  A    between atoms: N_4  and  C_5
REMARK    4  A    between atoms: C_5  and  C_6
REMARK    5  A    between atoms: C_11  and  C_13
REMARK    6  A    between atoms: C_13  and  C_14
REMARK    7  A    between atoms: N_26  and  C_27
REMARK    8  A    between atoms: C_27  and  C_28
REMARK                            x       y       z     vdW  Elec       q    Type
REMARK                         _______ _______ _______ _____ _____    ______ ____
ROOT
ATOM      1  C   UNL     1       2.441   7.889  18.678  0.00  0.00    +0.000 A 
ATOM      2  C   UNL     1       2.623   6.631  19.186  0.00  0.00    +0.000 A 
ATOM      3  C   UNL     1       2.027   6.322  20.523  0.00  0.00    +0.000 A 
ATOM      4  O   UNL     1       1.903   5.171  20.946  0.00  0.00    +0.000 OA
ATOM      5  N   UNL     1       1.579   7.382  21.235  0.00  0.00    +0.000 N 
ATOM      6  C   UNL     1       1.222   8.571  20.688  0.00  0.00    +0.000 A 
ATOM      7  O   UNL     1       0.536   9.351  21.351  0.00  0.00    +0.000 OA
ATOM      8  N   UNL     1       1.655   8.812  19.386  0.00  0.00    +0.000 N 
ATOM      9  H   UNL     1       1.162   7.175  22.129  0.00  0.00    +0.000 HD
ENDROOT
BRANCH   1  10
ATOM     10  N   UNL     1       3.061   8.275  17.497  0.00  0.00    +0.000 N 
ATOM     11  H   UNL     1       2.446   8.315  16.694  0.00  0.00    +0.000 HD
ATOM     12  H   UNL     1       3.656   9.091  17.592  0.00  0.00    +0.000 HD
ENDBRANCH   1  10
BRANCH   2  13
ATOM     13  N   UNL     1       3.313   5.585  18.550  0.00  0.00    +0.000 N 
ATOM     14  C   UNL     1       4.633   5.317  18.985  0.00  0.00    +0.000 C 
ATOM     15  O   UNL     1       5.205   6.013  19.827  0.00  0.00    +0.000 OA
BRANCH  13  16
ATOM     16  C   UNL     1       2.622   4.735  17.560  0.00  0.00    +0.000 C 
BRANCH  16  17
ATOM     17  C   UNL     1       1.974   3.461  18.004  0.00  0.00    +0.000 A 
ATOM     18  C   UNL     1       2.465   2.165  18.033  0.00  0.00    +0.000 A 
ATOM     19  C   UNL     1       1.495   1.378  18.697  0.00  0.00    +0.000 A 
ATOM     20  C   UNL     1       0.457   2.230  18.995  0.00  0.00    +0.000 A 
ATOM     21  O   UNL     1       0.723   3.477  18.535  0.00  0.00    +0.000 OA
ENDBRANCH  16  17
ENDBRANCH  13  16
BRANCH  14  22
ATOM     22  C   UNL     1       5.350   4.119  18.339  0.00  0.00    +0.000 C 
BRANCH  22  23
ATOM     23  C   UNL     1       6.519   4.454  17.402  0.00  0.00    +0.000 C 
ATOM     24  C   UNL     1       6.751   5.972  17.217  0.00  0.00    +0.000 C 
ATOM     25  C   UNL     1       6.721   6.160  15.687  0.00  0.00    +0.000 C 
ATOM     26  C   UNL     1       5.270   6.015  15.194  0.00  0.00    +0.000 C 
ATOM     27  C   UNL     1       5.020   4.504  15.309  0.00  0.00    +0.000 C 
ATOM     28  C   UNL     1       6.332   3.982  15.927  0.00  0.00    +0.000 C 
ATOM     29  C   UNL     1       7.353   4.860  15.194  0.00  0.00    +0.000 C 
ENDBRANCH  22  23
ENDBRANCH  14  22
ENDBRANCH   2  13
BRANCH   8  30
ATOM     30  C   UNL     1       1.317  10.136  18.836  0.00  0.00    +0.000 C 
BRANCH  30  31
ATOM     31  C   UNL     1      -0.146  10.342  18.480  0.00  0.00    +0.000 A 
ATOM     32  C   UNL     1      -0.802   9.559  17.519  0.00  0.00    +0.000 A 
ATOM     33  C   UNL     1      -2.147   9.790  17.210  0.00  0.00    +0.000 A 
ATOM     34  C   UNL     1      -2.860  10.787  17.873  0.00  0.00    +0.000 A 
ATOM     35  C   UNL     1      -2.238  11.532  18.872  0.00  0.00    +0.000 A 
ATOM     36  C   UNL     1      -0.895  11.304  19.181  0.00  0.00    +0.000 A 
ENDBRANCH  30  31
ENDBRANCH   8  30
TORSDOF 8
ENDMDL
MODEL 7
REMARK VINA RESULT:      -8.2      2.589      7.785
REMARK  Name = 
REMARK  8 active torsions:
REMARK  status: ('A' for Active; 'I' for Inactive)
REMARK    1  A    between atoms: N_1  and  C_2
REMARK    2  A    between atoms: C_3  and  N_4
REMARK    3  A    between atoms: N_4  and  C_5
REMARK    4  A    between atoms: C_5  and  C_6
REMARK    5  A    between atoms: C_11  and  C_13
REMARK    6  A    between atoms: C_13  and  C_14
REMARK    7  A    between atoms: N_26  and  C_27
REMARK    8  A    between atoms: C_27  and  C_28
REMARK                            x       y       z     vdW  Elec       q    Type
REMARK                         _______ _______ _______ _____ _____    ______ ____
ROOT
ATOM      1  C   UNL     1       5.259   5.852  16.550  0.00  0.00    +0.000 A 
ATOM      2  C   UNL     1       4.531   5.652  17.691  0.00  0.00    +0.000 A 
ATOM      3  C   UNL     1       5.165   4.874  18.801  0.00  0.00    +0.000 A 
ATOM      4  O   UNL     1       4.714   4.862  19.948  0.00  0.00    +0.000 OA
ATOM      5  N   UNL     1       6.304   4.213  18.488  0.00  0.00    +0.000 N 
ATOM      6  C   UNL     1       7.119   4.544  17.456  0.00  0.00    +0.000 A 
ATOM      7  O   UNL     1       8.270   4.106  17.441  0.00  0.00    +0.000 OA
ATOM      8  N   UNL     1       6.582   5.386  16.486  0.00  0.00    +0.000 N 
ATOM      9  H   UNL     1       6.742   3.701  19.238  0.00  0.00    +0.000 HD
ENDROOT
BRANCH   1  10
ATOM     10  N   UNL     1       4.691   6.469  15.443  0.00  0.00    +0.000 N 
ATOM     11  H   UNL     1       3.821   6.054  15.132  0.00  0.00    +0.000 HD
ATOM     12  H   UNL     1       4.657   7.481  15.508  0.00  0.00    +0.000 HD
ENDBRANCH   1  10
BRANCH   2  13
ATOM     13  N   UNL     1       3.231   6.133  17.926  0.00  0.00    +0.000 N 
ATOM     14  C   UNL     1       3.077   7.527  18.111  0.00  0.00    +0.000 C 
ATOM     15  O   UNL     1       4.038   8.299  18.151  0.00  0.00    +0.000 OA
BRANCH  13  16
ATOM     16  C   UNL     1       2.077   5.215  17.853  0.00  0.00    +0.000 C 
BRANCH  16  17
ATOM     17  C   UNL     1       1.764   4.327  19.017  0.00  0.00    +0.000 A 
ATOM     18  C   UNL     1       1.706   2.945  19.103  0.00  0.00    +0.000 A 
ATOM     19  C   UNL     1       1.530   2.631  20.472  0.00  0.00    +0.000 A 
ATOM     20  C   UNL     1       1.450   3.837  21.129  0.00  0.00    +0.000 A 
ATOM     21  O   UNL     1       1.543   4.862  20.247  0.00  0.00    +0.000 OA
ENDBRANCH  16  17
ENDBRANCH  13  16
BRANCH  14  22
ATOM     22  C   UNL     1       1.641   8.053  18.287  0.00  0.00    +0.000 C 
BRANCH  22  23
ATOM     23  C   UNL     1       1.488   9.342  19.106  0.00  0.00    +0.000 C 
ATOM     24  C   UNL     1       0.552   9.194  20.328  0.00  0.00    +0.000 C 
ATOM     25  C   UNL     1      -0.476  10.327  20.137  0.00  0.00    +0.000 C 
ATOM     26  C   UNL     1      -1.424   9.953  18.983  0.00  0.00    +0.000 C 
ATOM     27  C   UNL     1      -0.542  10.144  17.741  0.00  0.00    +0.000 C 
ATOM     28  C   UNL     1       0.824  10.529  18.341  0.00  0.00    +0.000 C 
ATOM     29  C   UNL     1       0.375  11.425  19.501  0.00  0.00    +0.000 C 
ENDBRANCH  22  23
ENDBRANCH  14  22
ENDBRANCH   2  13
BRANCH   8  30
ATOM     30  C   UNL     1       7.458   5.678  15.338  0.00  0.00    +0.000 C 
BRANCH  30  31
ATOM     31  C   UNL     1       7.138   4.919  14.061  0.00  0.00    +0.000 A 
ATOM     32  C   UNL     1       7.771   5.202  12.841  0.00  0.00    +0.000 A 
ATOM     33  C   UNL     1       7.438   4.490  11.684  0.00  0.00    +0.000 A 
ATOM     34  C   UNL     1       6.489   3.471  11.735  0.00  0.00    +0.000 A 
ATOM     35  C   UNL     1       5.896   3.139  12.950  0.00  0.00    +0.000 A 
ATOM     36  C   UNL     1       6.226   3.850  14.106  0.00  0.00    +0.000 A 
ENDBRANCH  30  31
ENDBRANCH   8  30
TORSDOF 8
ENDMDL
MODEL 8
REMARK VINA RESULT:      -8.0      1.512      2.574
REMARK  Name = 
REMARK  8 active torsions:
REMARK  status: ('A' for Active; 'I' for Inactive)
REMARK    1  A    between atoms: N_1  and  C_2
REMARK    2  A    between atoms: C_3  and  N_4
REMARK    3  A    between atoms: N_4  and  C_5
REMARK    4  A    between atoms: C_5  and  C_6
REMARK    5  A    between atoms: C_11  and  C_13
REMARK    6  A    between atoms: C_13  and  C_14
REMARK    7  A    between atoms: N_26  and  C_27
REMARK    8  A    between atoms: C_27  and  C_28
REMARK                            x       y       z     vdW  Elec       q    Type
REMARK                         _______ _______ _______ _____ _____    ______ ____
ROOT
ATOM      1  C   UNL     1       1.565   8.851  18.752  0.00  0.00    +0.000 A 
ATOM      2  C   UNL     1       1.966   7.584  19.082  0.00  0.00    +0.000 A 
ATOM      3  C   UNL     1       1.833   7.157  20.510  0.00  0.00    +0.000 A 
ATOM      4  O   UNL     1       1.911   5.978  20.862  0.00  0.00    +0.000 OA
ATOM      5  N   UNL     1       1.570   8.139  21.403  0.00  0.00    +0.000 N 
ATOM      6  C   UNL     1       0.996   9.325  21.085  0.00  0.00    +0.000 A 
ATOM      7  O   UNL     1       0.507  10.012  21.983  0.00  0.00    +0.000 OA
ATOM      8  N   UNL     1       0.988   9.670  19.735  0.00  0.00    +0.000 N 
ATOM      9  H   UNL     1       1.465   7.852  22.364  0.00  0.00    +0.000 HD
ENDROOT
BRANCH   1  10
ATOM     10  N   UNL     1       1.764   9.347  17.470  0.00  0.00    +0.000 N 
ATOM     11  H   UNL     1       2.386  10.144  17.421  0.00  0.00    +0.000 HD
ATOM     12  H   UNL     1       1.966   8.632  16.779  0.00  0.00    +0.000 HD
ENDBRANCH   1  10
BRANCH   2  13
ATOM     13  N   UNL     1       2.481   6.630  18.188  0.00  0.00    +0.000 N 
ATOM     14  C   UNL     1       3.818   6.798  17.757  0.00  0.00    +0.000 C 
ATOM     15  O   UNL     1       4.496   7.778  18.073  0.00  0.00    +0.000 OA
BRANCH  13  16
ATOM     16  C   UNL     1       1.680   5.443  17.827  0.00  0.00    +0.000 C 
BRANCH  16  17
ATOM     17  C   UNL     1       2.203   4.077  18.140  0.00  0.00    +0.000 A 
ATOM     18  C   UNL     1       2.605   3.521  19.344  0.00  0.00    +0.000 A 
ATOM     19  C   UNL     1       2.852   2.150  19.096  0.00  0.00    +0.000 A 
ATOM     20  C   UNL     1       2.626   1.962  17.753  0.00  0.00    +0.000 A 
ATOM     21  O   UNL     1       2.281   3.133  17.164  0.00  0.00    +0.000 OA
ENDBRANCH  16  17
ENDBRANCH  13  16
BRANCH  14  22
ATOM     22  C   UNL     1       4.398   5.706  16.842  0.00  0.00    +0.000 C 
BRANCH  22  23
ATOM     23  C   UNL     1       5.525   4.851  17.438  0.00  0.00    +0.000 C 
ATOM     24  C   UNL     1       5.863   5.204  18.905  0.00  0.00    +0.000 C 
ATOM     25  C   UNL     1       7.380   5.474  18.873  0.00  0.00    +0.000 C 
ATOM     26  C   UNL     1       7.636   6.820  18.172  0.00  0.00    +0.000 C 
ATOM     27  C   UNL     1       7.364   6.492  16.697  0.00  0.00    +0.000 C 
ATOM     28  C   UNL     1       6.913   5.020  16.745  0.00  0.00    +0.000 C 
ATOM     29  C   UNL     1       7.858   4.475  17.821  0.00  0.00    +0.000 C 
ENDBRANCH  22  23
ENDBRANCH  14  22
ENDBRANCH   2  13
BRANCH   8  30
ATOM     30  C   UNL     1       0.423  10.993  19.417  0.00  0.00    +0.000 C 
BRANCH  30  31
ATOM     31  C   UNL     1       1.401  12.154  19.481  0.00  0.00    +0.000 A 
ATOM     32  C   UNL     1       1.694  12.824  20.679  0.00  0.00    +0.000 A 
ATOM     33  C   UNL     1       2.590  13.898  20.693  0.00  0.00    +0.000 A 
ATOM     34  C   UNL     1       3.223  14.301  19.520  0.00  0.00    +0.000 A 
ATOM     35  C   UNL     1       2.988  13.609  18.335  0.00  0.00    +0.000 A 
ATOM     36  C   UNL     1       2.092  12.536  18.318  0.00  0.00    +0.000 A 
ENDBRANCH  30  31
ENDBRANCH   8  30
TORSDOF 8
ENDMDL
MODEL 9
REMARK VINA RESULT:      -7.9      1.082      1.929
REMARK  Name = 
REMARK  8 active torsions:
REMARK  status: ('A' for Active; 'I' for Inactive)
REMARK    1  A    between atoms: N_1  and  C_2
REMARK    2  A    between atoms: C_3  and  N_4
REMARK    3  A    between atoms: N_4  and  C_5
REMARK    4  A    between atoms: C_5  and  C_6
REMARK    5  A    between atoms: C_11  and  C_13
REMARK    6  A    between atoms: C_13  and  C_14
REMARK    7  A    between atoms: N_26  and  C_27
REMARK    8  A    between atoms: C_27  and  C_28
REMARK                            x       y       z     vdW  Elec       q    Type
REMARK                         _______ _______ _______ _____ _____    ______ ____
ROOT
ATOM      1  C   UNL     1       1.702   8.581  18.699  0.00  0.00    +0.000 A 
ATOM      2  C   UNL     1       2.029   7.329  19.145  0.00  0.00    +0.000 A 
ATOM      3  C   UNL     1       1.770   7.007  20.583  0.00  0.00    +0.000 A 
ATOM      4  O   UNL     1       1.778   5.854  21.020  0.00  0.00    +0.000 OA
ATOM      5  N   UNL     1       1.474   8.058  21.384  0.00  0.00    +0.000 N 
ATOM      6  C   UNL     1       0.970   9.236  20.941  0.00  0.00    +0.000 A 
ATOM      7  O   UNL     1       0.438   9.999  21.749  0.00  0.00    +0.000 OA
ATOM      8  N   UNL     1       1.080   9.484  19.575  0.00  0.00    +0.000 N 
ATOM      9  H   UNL     1       1.284   7.842  22.350  0.00  0.00    +0.000 HD
ENDROOT
BRANCH   1  10
ATOM     10  N   UNL     1       2.018   8.979  17.407  0.00  0.00    +0.000 N 
ATOM     11  H   UNL     1       2.042   9.982  17.271  0.00  0.00    +0.000 HD
ATOM     12  H   UNL     1       2.819   8.498  17.012  0.00  0.00    +0.000 HD
ENDBRANCH   1  10
BRANCH   2  13
ATOM     13  N   UNL     1       2.578   6.299  18.362  0.00  0.00    +0.000 N 
ATOM     14  C   UNL     1       3.925   6.440  17.953  0.00  0.00    +0.000 C 
ATOM     15  O   UNL     1       4.586   7.453  18.193  0.00  0.00    +0.000 OA
BRANCH  13  16
ATOM     16  C   UNL     1       1.798   5.074  18.096  0.00  0.00    +0.000 C 
BRANCH  16  17
ATOM     17  C   UNL     1       2.396   3.737  18.402  0.00  0.00    +0.000 A 
ATOM     18  C   UNL     1       2.478   2.590  17.627  0.00  0.00    +0.000 A 
ATOM     19  C   UNL     1       3.287   1.675  18.342  0.00  0.00    +0.000 A 
ATOM     20  C   UNL     1       3.614   2.301  19.521  0.00  0.00    +0.000 A 
ATOM     21  O   UNL     1       3.038   3.526  19.581  0.00  0.00    +0.000 OA
ENDBRANCH  16  17
ENDBRANCH  13  16
BRANCH  14  22
ATOM     22  C   UNL     1       4.541   5.271  17.165  0.00  0.00    +0.000 C 
BRANCH  22  23
ATOM     23  C   UNL     1       5.806   5.591  16.356  0.00  0.00    +0.000 C 
ATOM     24  C   UNL     1       5.515   6.157  14.947  0.00  0.00    +0.000 C 
ATOM     25  C   UNL     1       6.308   5.224  14.010  0.00  0.00    +0.000 C 
ATOM     26  C   UNL     1       5.595   3.861  13.940  0.00  0.00    +0.000 C 
ATOM     27  C   UNL     1       5.911   3.241  15.309  0.00  0.00    +0.000 C 
ATOM     28  C   UNL     1       6.700   4.357  16.022  0.00  0.00    +0.000 C 
ATOM     29  C   UNL     1       7.536   4.893  14.856  0.00  0.00    +0.000 C 
ENDBRANCH  22  23
ENDBRANCH  14  22
ENDBRANCH   2  13
BRANCH   8  30
ATOM     30  C   UNL     1       0.590  10.798  19.124  0.00  0.00    +0.000 C 
BRANCH  30  31
ATOM     31  C   UNL     1      -0.869  10.841  18.698  0.00  0.00    +0.000 A 
ATOM     32  C   UNL     1      -1.786  11.746  19.252  0.00  0.00    +0.000 A 
ATOM     33  C   UNL     1      -3.124  11.744  18.843  0.00  0.00    +0.000 A 
ATOM     34  C   UNL     1      -3.557  10.857  17.860  0.00  0.00    +0.000 A 
ATOM     35  C   UNL     1      -2.646   9.993  17.259  0.00  0.00    +0.000 A 
ATOM     36  C   UNL     1      -1.309   9.992  17.667  0.00  0.00    +0.000 A 
ENDBRANCH  30  31
ENDBRANCH   8  30
TORSDOF 8
ENDMDL
