MODEL 1
REMARK VINA RESULT:      -8.7      0.000      0.000
REMARK  Name = 
REMARK  4 active torsions:
REMARK  status: ('A' for Active; 'I' for Inactive)
REMARK    1  A    between atoms: C_2  and  C_17
REMARK    2  A    between atoms: N_3  and  C_4
REMARK    3  A    between atoms: C_4  and  C_5
REMARK    4  A    between atoms: C_11  and  C_12
REMARK                            x       y       z     vdW  Elec       q    Type
REMARK                         _______ _______ _______ _____ _____    ______ ____
ROOT
ATOM      1  O   UNL     1       4.027   7.042  16.485  0.00  0.00    +0.000 OA
ATOM      2  C   UNL     1       3.831   6.978  17.694  0.00  0.00    +0.000 C 
ATOM      3  N   UNL     1       4.542   6.138  18.520  0.00  0.00    +0.000 N 
ATOM      4  H   UNL     1       4.253   5.967  19.477  0.00  0.00    +0.000 HD
ENDROOT
BRANCH   2   5
ATOM      5  C   UNL     1       2.779   7.820  18.329  0.00  0.00    +0.000 A 
ATOM      6  C   UNL     1       2.279   8.916  17.616  0.00  0.00    +0.000 A 
ATOM      7  C   UNL     1       1.315   9.752  18.192  0.00  0.00    +0.000 A 
ATOM      8  C   UNL     1       0.852   9.516  19.496  0.00  0.00    +0.000 A 
ATOM      9  C   UNL     1      -0.102  10.358  20.097  0.00  0.00    +0.000 A 
ATOM     10  C   UNL     1      -0.532  10.125  21.405  0.00  0.00    +0.000 A 
ATOM     11  C   UNL     1      -0.020   9.053  22.126  0.00  0.00    +0.000 A 
ATOM     12  C   UNL     1       0.922   8.205  21.540  0.00  0.00    +0.000 A 
ATOM     13  C   UNL     1       1.369   8.421  20.225  0.00  0.00    +0.000 A 
ATOM     14  C   UNL     1       2.324   7.577  19.631  0.00  0.00    +0.000 A 
ENDBRANCH   2   5
BRANCH   3  15
ATOM     15  C   UNL     1       5.587   5.276  17.984  0.00  0.00    +0.000 C 
BRANCH  15  16
ATOM     16  C   UNL     1       5.009   3.962  17.439  0.00  0.00    +0.000 C 
ATOM     17  O   UNL     1       5.330   3.562  16.316  0.00  0.00    +0.000 OA
ATOM     18  N   UNL     1       4.148   3.243  18.265  0.00  0.00    +0.000 N 
ATOM     19  C   UNL     1       3.714   1.905  17.859  0.00  0.00    +0.000 C 
ATOM     20  C   UNL     1       2.195   1.841  17.762  0.00  0.00    +0.000 C 
ATOM     21  C   UNL     1       1.539   2.305  19.061  0.00  0.00    +0.000 C 
ATOM     22  C   UNL     1       2.055   3.685  19.501  0.00  0.00    +0.000 C 
ATOM     23  C   UNL     1       3.589   3.716  19.537  0.00  0.00    +0.000 C 
BRANCH  22  24
ATOM     24  C   UNL     1       1.471   4.109  20.844  0.00  0.00    +0.000 C 
ATOM     25  F   UNL     1       2.394   4.690  21.641  0.00  0.00    +0.000 F 
ATOM     26  F   UNL     1       0.454   4.984  20.704  0.00  0.00    +0.000 F 
ATOM     27  F   UNL     1       0.990   3.034  21.508  0.00  0.00    +0.000 F 
ENDBRANCH  22  24
ENDBRANCH  15  16
ENDBRANCH   3  15
TORSDOF 4
ENDMDL
MODEL 2
REMARK VINA RESULT:      -8.1      3.496      7.554
REMARK  Name = 
REMARK  4 active torsions:
REMARK  status: ('A' for Active; 'I' for Inactive)
REMARK    1  A    between atoms: C_2  and  C_17
REMARK    2  A    between atoms: N_3  and  C_4
REMARK    3  A    between atoms: C_4  and  C_5
REMARK    4  A    between atoms: C_11  and  C_12
REMARK                            x       y       z     vdW  Elec       q    Type
REMARK                         _______ _______ _______ _____ _____    ______ ____
ROOT
ATOM      1  O   UNL     1       1.303   5.062  20.660  0.00  0.00    +0.000 OA
ATOM      2  C   UNL     1       1.977   5.893  20.060  0.00  0.00    +0.000 C 
ATOM      3  N   UNL     1       1.892   7.243  20.310  0.00  0.00    +0.000 N 
ATOM      4  H   UNL     1       2.319   7.924  19.691  0.00  0.00    +0.000 HD
ENDROOT
BRANCH   2   5
ATOM      5  C   UNL     1       2.929   5.459  18.999  0.00  0.00    +0.000 A 
ATOM      6  C   UNL     1       2.605   4.338  18.226  0.00  0.00    +0.000 A 
ATOM      7  C   UNL     1       3.490   3.879  17.244  0.00  0.00    +0.000 A 
ATOM      8  C   UNL     1       4.721   4.521  17.035  0.00  0.00    +0.000 A 
ATOM      9  C   UNL     1       5.631   4.060  16.065  0.00  0.00    +0.000 A 
ATOM     10  C   UNL     1       6.862   4.694  15.886  0.00  0.00    +0.000 A 
ATOM     11  C   UNL     1       7.199   5.792  16.669  0.00  0.00    +0.000 A 
ATOM     12  C   UNL     1       6.304   6.265  17.630  0.00  0.00    +0.000 A 
ATOM     13  C   UNL     1       5.059   5.642  17.826  0.00  0.00    +0.000 A 
ATOM     14  C   UNL     1       4.155   6.106  18.798  0.00  0.00    +0.000 A 
ENDBRANCH   2   5
BRANCH   3  15
ATOM     15  C   UNL     1       0.984   7.756  21.327  0.00  0.00    +0.000 C 
BRANCH  15  16
ATOM     16  C   UNL     1       1.194   9.258  21.564  0.00  0.00    +0.000 C 
ATOM     17  O   UNL     1       1.675   9.657  22.629  0.00  0.00    +0.000 OA
ATOM     18  N   UNL     1       0.852  10.130  20.532  0.00  0.00    +0.000 N 
ATOM     19  C   UNL     1       1.196  11.548  20.647  0.00  0.00    +0.000 C 
ATOM     20  C   UNL     1      -0.055  12.412  20.557  0.00  0.00    +0.000 C 
ATOM     21  C   UNL     1      -0.853  12.099  19.292  0.00  0.00    +0.000 C 
ATOM     22  C   UNL     1      -1.150  10.596  19.162  0.00  0.00    +0.000 C 
ATOM     23  C   UNL     1       0.131   9.764  19.307  0.00  0.00    +0.000 C 
BRANCH  22  24
ATOM     24  C   UNL     1      -1.864  10.269  17.856  0.00  0.00    +0.000 C 
ATOM     25  F   UNL     1      -3.017   9.594  18.059  0.00  0.00    +0.000 F 
ATOM     26  F   UNL     1      -2.169  11.378  17.150  0.00  0.00    +0.000 F 
ATOM     27  F   UNL     1      -1.081   9.495  17.071  0.00  0.00    +0.000 F 
ENDBRANCH  22  24
ENDBRANCH  15  16
ENDBRANCH   3  15
TORSDOF 4
ENDMDL
MODEL 3
REMARK VINA RESULT:      -8.1      0.655      1.076
REMARK  Name = 
REMARK  4 active torsions:
REMARK  status: ('A' for Active; 'I' for Inactive)
REMARK    1  A    between atoms: C_2  and  C_17
REMARK    2  A    between atoms: N_3  and  C_4
REMARK    3  A    between atoms: C_4  and  C_5
REMARK    4  A    between atoms: C_11  and  C_12
REMARK                            x       y       z     vdW  Elec       q    Type
REMARK                         _______ _______ _______ _____ _____    ______ ____
ROOT
ATOM      1  O   UNL     1       3.833   7.503  16.647  0.00  0.00    +0.000 OA
ATOM      2  C   UNL     1       3.560   7.288  17.824  0.00  0.00    +0.000 C 
ATOM      3  N   UNL     1       4.178   6.307  18.564  0.00  0.00    +0.000 N 
ATOM      4  H   UNL     1       3.822   6.026  19.472  0.00  0.00    +0.000 HD
ENDROOT
BRANCH   2   5
ATOM      5  C   UNL     1       2.512   8.095  18.508  0.00  0.00    +0.000 A 
ATOM      6  C   UNL     1       1.896   9.133  17.798  0.00  0.00    +0.000 A 
ATOM      7  C   UNL     1       0.932   9.936  18.419  0.00  0.00    +0.000 A 
ATOM      8  C   UNL     1       0.585   9.727  19.762  0.00  0.00    +0.000 A 
ATOM      9  C   UNL     1      -0.368  10.539  20.407  0.00  0.00    +0.000 A 
ATOM     10  C   UNL     1      -0.683  10.334  21.752  0.00  0.00    +0.000 A 
ATOM     11  C   UNL     1      -0.055   9.323  22.467  0.00  0.00    +0.000 A 
ATOM     12  C   UNL     1       0.888   8.506  21.840  0.00  0.00    +0.000 A 
ATOM     13  C   UNL     1       1.219   8.692  20.488  0.00  0.00    +0.000 A 
ATOM     14  C   UNL     1       2.173   7.880  19.850  0.00  0.00    +0.000 A 
ENDBRANCH   2   5
BRANCH   3  15
ATOM     15  C   UNL     1       5.211   5.467  17.974  0.00  0.00    +0.000 C 
BRANCH  15  16
ATOM     16  C   UNL     1       4.612   4.219  17.310  0.00  0.00    +0.000 C 
ATOM     17  O   UNL     1       4.663   4.084  16.084  0.00  0.00    +0.000 OA
ATOM     18  N   UNL     1       4.048   3.253  18.141  0.00  0.00    +0.000 N 
ATOM     19  C   UNL     1       3.625   1.974  17.569  0.00  0.00    +0.000 C 
ATOM     20  C   UNL     1       2.141   1.739  17.821  0.00  0.00    +0.000 C 
ATOM     21  C   UNL     1       1.808   1.859  19.308  0.00  0.00    +0.000 C 
ATOM     22  C   UNL     1       2.316   3.184  19.900  0.00  0.00    +0.000 C 
ATOM     23  C   UNL     1       3.801   3.400  19.580  0.00  0.00    +0.000 C 
BRANCH  22  24
ATOM     24  C   UNL     1       2.067   3.267  21.402  0.00  0.00    +0.000 C 
ATOM     25  F   UNL     1       0.804   2.919  21.730  0.00  0.00    +0.000 F 
ATOM     26  F   UNL     1       2.898   2.465  22.102  0.00  0.00    +0.000 F 
ATOM     27  F   UNL     1       2.261   4.530  21.843  0.00  0.00    +0.000 F 
ENDBRANCH  22  24
ENDBRANCH  15  16
ENDBRANCH   3  15
TORSDOF 4
ENDMDL
MODEL 4
REMARK VINA RESULT:      -8.1      1.650      3.037
REMARK  Name = 
REMARK  4 active torsions:
REMARK  status: ('A' for Active; 'I' for Inactive)
REMARK    1  A    between atoms: C_2  and  C_17
REMARK    2  A    between atoms: N_3  and  C_4
REMARK    3  A    between atoms: C_4  and  C_5
REMARK    4  A    between atoms: C_11  and  C_12
REMARK                            x       y       z     vdW  Elec       q    Type
REMARK                         _______ _______ _______ _____ _____    ______ ____
ROOT
ATOM      1  O   UNL     1       1.810   9.661  17.510  0.00  0.00    +0.000 OA
ATOM      2  C   UNL     1       1.769   8.963  18.518  0.00  0.00    +0.000 C 
ATOM      3  N   UNL     1       2.367   7.727  18.593  0.00  0.00    +0.000 N 
ATOM      4  H   UNL     1       2.178   7.093  19.363  0.00  0.00    +0.000 HD
ENDROOT
BRANCH   2   5
ATOM      5  C   UNL     1       1.039   9.438  19.728  0.00  0.00    +0.000 A 
ATOM      6  C   UNL     1       1.172   8.712  20.917  0.00  0.00    +0.000 A 
ATOM      7  C   UNL     1       0.475   9.106  22.065  0.00  0.00    +0.000 A 
ATOM      8  C   UNL     1      -0.381  10.217  22.035  0.00  0.00    +0.000 A 
ATOM      9  C   UNL     1      -1.105  10.615  23.175  0.00  0.00    +0.000 A 
ATOM     10  C   UNL     1      -1.972  11.708  23.121  0.00  0.00    +0.000 A 
ATOM     11  C   UNL     1      -2.127  12.415  21.935  0.00  0.00    +0.000 A 
ATOM     12  C   UNL     1      -1.411  12.037  20.798  0.00  0.00    +0.000 A 
ATOM     13  C   UNL     1      -0.532  10.942  20.830  0.00  0.00    +0.000 A 
ATOM     14  C   UNL     1       0.187  10.549  19.687  0.00  0.00    +0.000 A 
ENDBRANCH   2   5
BRANCH   3  15
ATOM     15  C   UNL     1       3.098   7.183  17.457  0.00  0.00    +0.000 C 
BRANCH  15  16
ATOM     16  C   UNL     1       4.245   6.267  17.910  0.00  0.00    +0.000 C 
ATOM     17  O   UNL     1       5.361   6.369  17.393  0.00  0.00    +0.000 OA
ATOM     18  N   UNL     1       3.979   5.356  18.930  0.00  0.00    +0.000 N 
ATOM     19  C   UNL     1       5.082   4.588  19.511  0.00  0.00    +0.000 C 
ATOM     20  C   UNL     1       4.832   3.093  19.359  0.00  0.00    +0.000 C 
ATOM     21  C   UNL     1       3.472   2.699  19.934  0.00  0.00    +0.000 C 
ATOM     22  C   UNL     1       2.337   3.561  19.355  0.00  0.00    +0.000 C 
ATOM     23  C   UNL     1       2.655   5.056  19.486  0.00  0.00    +0.000 C 
BRANCH  22  24
ATOM     24  C   UNL     1       0.993   3.233  19.995  0.00  0.00    +0.000 C 
ATOM     25  F   UNL     1       0.178   2.558  19.155  0.00  0.00    +0.000 F 
ATOM     26  F   UNL     1       1.127   2.484  21.110  0.00  0.00    +0.000 F 
ATOM     27  F   UNL     1       0.349   4.369  20.348  0.00  0.00    +0.000 F 
ENDBRANCH  22  24
ENDBRANCH  15  16
ENDBRANCH   3  15
TORSDOF 4
ENDMDL
MODEL 5
REMARK VINA RESULT:      -8.0      0.547      1.730
REMARK  Name = 
REMARK  4 active torsions:
REMARK  status: ('A' for Active; 'I' for Inactive)
REMARK    1  A    between atoms: C_2  and  C_17
REMARK    2  A    between atoms: N_3  and  C_4
REMARK    3  A    between atoms: C_4  and  C_5
REMARK    4  A    between atoms: C_11  and  C_12
REMARK                            x       y       z     vdW  Elec       q    Type
REMARK                         _______ _______ _______ _____ _____    ______ ____
ROOT
ATOM      1  O   UNL     1       3.922   7.036  16.683  0.00  0.00    +0.000 OA
ATOM      2  C   UNL     1       3.778   6.927  17.896  0.00  0.00    +0.000 C 
ATOM      3  N   UNL     1       4.532   6.068  18.662  0.00  0.00    +0.000 N 
ATOM      4  H   UNL     1       4.285   5.860  19.624  0.00  0.00    +0.000 HD
ENDROOT
BRANCH   2   5
ATOM      5  C   UNL     1       2.743   7.733  18.603  0.00  0.00    +0.000 A 
ATOM      6  C   UNL     1       2.364   7.352  19.895  0.00  0.00    +0.000 A 
ATOM      7  C   UNL     1       1.370   8.063  20.577  0.00  0.00    +0.000 A 
ATOM      8  C   UNL     1       0.727   9.153  19.970  0.00  0.00    +0.000 A 
ATOM      9  C   UNL     1      -0.288   9.866  20.635  0.00  0.00    +0.000 A 
ATOM     10  C   UNL     1      -0.936  10.932  20.007  0.00  0.00    +0.000 A 
ATOM     11  C   UNL     1      -0.582  11.297  18.714  0.00  0.00    +0.000 A 
ATOM     12  C   UNL     1       0.428  10.604  18.045  0.00  0.00    +0.000 A 
ATOM     13  C   UNL     1       1.094   9.529  18.658  0.00  0.00    +0.000 A 
ATOM     14  C   UNL     1       2.106   8.819  17.988  0.00  0.00    +0.000 A 
ENDBRANCH   2   5
BRANCH   3  15
ATOM     15  C   UNL     1       5.563   5.239  18.054  0.00  0.00    +0.000 C 
BRANCH  15  16
ATOM     16  C   UNL     1       4.973   3.951  17.460  0.00  0.00    +0.000 C 
ATOM     17  O   UNL     1       5.275   3.601  16.315  0.00  0.00    +0.000 OA
ATOM     18  N   UNL     1       4.124   3.197  18.267  0.00  0.00    +0.000 N 
ATOM     19  C   UNL     1       3.680   1.880  17.808  0.00  0.00    +0.000 C 
ATOM     20  C   UNL     1       2.160   1.823  17.732  0.00  0.00    +0.000 C 
ATOM     21  C   UNL     1       1.525   2.228  19.062  0.00  0.00    +0.000 C 
ATOM     22  C   UNL     1       2.052   3.587  19.555  0.00  0.00    +0.000 C 
ATOM     23  C   UNL     1       3.586   3.614  19.567  0.00  0.00    +0.000 C 
BRANCH  22  24
ATOM     24  C   UNL     1       1.491   3.951  20.925  0.00  0.00    +0.000 C 
ATOM     25  F   UNL     1       1.009   2.873  21.582  0.00  0.00    +0.000 F 
ATOM     26  F   UNL     1       2.419   4.523  21.720  0.00  0.00    +0.000 F 
ATOM     27  F   UNL     1       0.472   4.830  20.798  0.00  0.00    +0.000 F 
ENDBRANCH  22  24
ENDBRANCH  15  16
ENDBRANCH   3  15
TORSDOF 4
ENDMDL
MODEL 6
REMARK VINA RESULT:      -8.0      3.212      4.594
REMARK  Name = 
REMARK  4 active torsions:
REMARK  status: ('A' for Active; 'I' for Inactive)
REMARK    1  A    between atoms: C_2  and  C_17
REMARK    2  A    between atoms: N_3  and  C_4
REMARK    3  A    between atoms: C_4  and  C_5
REMARK    4  A    between atoms: C_11  and  C_12
REMARK                            x       y       z     vdW  Elec       q    Type
REMARK                         _______ _______ _______ _____ _____    ______ ____
ROOT
ATOM      1  O   UNL     1       1.429   9.116  18.965  0.00  0.00    +0.000 OA
ATOM      2  C   UNL     1       1.196   8.800  20.127  0.00  0.00    +0.000 C 
ATOM      3  N   UNL     1       1.705   7.661  20.705  0.00  0.00    +0.000 N 
ATOM      4  H   UNL     1       1.365   7.323  21.600  0.00  0.00    +0.000 HD
ENDROOT
BRANCH   2   5
ATOM      5  C   UNL     1       0.318   9.656  20.974  0.00  0.00    +0.000 A 
ATOM      6  C   UNL     1       0.144   9.311  22.320  0.00  0.00    +0.000 A 
ATOM      7  C   UNL     1      -0.700  10.069  23.138  0.00  0.00    +0.000 A 
ATOM      8  C   UNL     1      -1.398  11.171  22.620  0.00  0.00    +0.000 A 
ATOM      9  C   UNL     1      -2.266  11.932  23.424  0.00  0.00    +0.000 A 
ATOM     10  C   UNL     1      -2.973  13.010  22.886  0.00  0.00    +0.000 A 
ATOM     11  C   UNL     1      -2.824  13.339  21.545  0.00  0.00    +0.000 A 
ATOM     12  C   UNL     1      -1.961  12.598  20.736  0.00  0.00    +0.000 A 
ATOM     13  C   UNL     1      -1.239  11.511  21.257  0.00  0.00    +0.000 A 
ATOM     14  C   UNL     1      -0.375  10.753  20.447  0.00  0.00    +0.000 A 
ENDBRANCH   2   5
BRANCH   3  15
ATOM     15  C   UNL     1       2.569   6.764  19.950  0.00  0.00    +0.000 C 
BRANCH  15  16
ATOM     16  C   UNL     1       1.950   5.365  19.815  0.00  0.00    +0.000 C 
ATOM     17  O   UNL     1       1.159   4.952  20.668  0.00  0.00    +0.000 OA
ATOM     18  N   UNL     1       2.293   4.611  18.695  0.00  0.00    +0.000 N 
ATOM     19  C   UNL     1       1.597   3.351  18.437  0.00  0.00    +0.000 C 
ATOM     20  C   UNL     1       2.585   2.193  18.381  0.00  0.00    +0.000 C 
ATOM     21  C   UNL     1       3.700   2.468  17.372  0.00  0.00    +0.000 C 
ATOM     22  C   UNL     1       4.377   3.826  17.625  0.00  0.00    +0.000 C 
ATOM     23  C   UNL     1       3.339   4.952  17.722  0.00  0.00    +0.000 C 
BRANCH  22  24
ATOM     24  C   UNL     1       5.425   4.144  16.565  0.00  0.00    +0.000 C 
ATOM     25  F   UNL     1       6.610   4.497  17.109  0.00  0.00    +0.000 F 
ATOM     26  F   UNL     1       5.657   3.097  15.747  0.00  0.00    +0.000 F 
ATOM     27  F   UNL     1       5.017   5.176  15.793  0.00  0.00    +0.000 F 
ENDBRANCH  22  24
ENDBRANCH  15  16
ENDBRANCH   3  15
TORSDOF 4
ENDMDL
MODEL 7
REMARK VINA RESULT:      -7.9      3.594      7.639
REMARK  Name = 
REMARK  4 active torsions:
REMARK  status: ('A' for Active; 'I' for Inactive)
REMARK    1  A    between atoms: C_2  and  C_17
REMARK    2  A    between atoms: N_3  and  C_4
REMARK    3  A    between atoms: C_4  and  C_5
REMARK    4  A    between atoms: C_11  and  C_12
REMARK                            x       y       z     vdW  Elec       q    Type
REMARK                         _______ _______ _______ _____ _____    ______ ____
ROOT
ATOM      1  O   UNL     1       1.585   5.171  20.835  0.00  0.00    +0.000 OA
ATOM      2  C   UNL     1       2.232   5.999  20.203  0.00  0.00    +0.000 C 
ATOM      3  N   UNL     1       2.014   7.353  20.307  0.00  0.00    +0.000 N 
ATOM      4  H   UNL     1       2.431   8.008  19.654  0.00  0.00    +0.000 HD
ENDROOT
BRANCH   2   5
ATOM      5  C   UNL     1       3.300   5.555  19.263  0.00  0.00    +0.000 A 
ATOM      6  C   UNL     1       4.090   4.455  19.618  0.00  0.00    +0.000 A 
ATOM      7  C   UNL     1       5.125   4.031  18.778  0.00  0.00    +0.000 A 
ATOM      8  C   UNL     1       5.400   4.710  17.581  0.00  0.00    +0.000 A 
ATOM      9  C   UNL     1       6.450   4.308  16.735  0.00  0.00    +0.000 A 
ATOM     10  C   UNL     1       6.726   5.011  15.561  0.00  0.00    +0.000 A 
ATOM     11  C   UNL     1       5.961   6.119  15.217  0.00  0.00    +0.000 A 
ATOM     12  C   UNL     1       4.912   6.526  16.043  0.00  0.00    +0.000 A 
ATOM     13  C   UNL     1       4.615   5.833  17.228  0.00  0.00    +0.000 A 
ATOM     14  C   UNL     1       3.566   6.241  18.071  0.00  0.00    +0.000 A 
ENDBRANCH   2   5
BRANCH   3  15
ATOM     15  C   UNL     1       0.988   7.875  21.198  0.00  0.00    +0.000 C 
BRANCH  15  16
ATOM     16  C   UNL     1       1.153   9.385  21.426  0.00  0.00    +0.000 C 
ATOM     17  O   UNL     1       1.630   9.803  22.485  0.00  0.00    +0.000 OA
ATOM     18  N   UNL     1       0.774  10.239  20.393  0.00  0.00    +0.000 N 
ATOM     19  C   UNL     1       1.075  11.668  20.497  0.00  0.00    +0.000 C 
ATOM     20  C   UNL     1      -0.203  12.492  20.414  0.00  0.00    +0.000 C 
ATOM     21  C   UNL     1      -1.002  12.148  19.158  0.00  0.00    +0.000 C 
ATOM     22  C   UNL     1      -1.253  10.635  19.038  0.00  0.00    +0.000 C 
ATOM     23  C   UNL     1       0.055   9.844  19.176  0.00  0.00    +0.000 C 
BRANCH  22  24
ATOM     24  C   UNL     1      -1.968  10.279  17.740  0.00  0.00    +0.000 C 
ATOM     25  F   UNL     1      -1.211   9.501  16.936  0.00  0.00    +0.000 F 
ATOM     26  F   UNL     1      -3.126   9.621  17.959  0.00  0.00    +0.000 F 
ATOM     27  F   UNL     1      -2.268  11.400  17.045  0.00  0.00    +0.000 F 
ENDBRANCH  22  24
ENDBRANCH  15  16
ENDBRANCH   3  15
TORSDOF 4
ENDMDL
MODEL 8
REMARK VINA RESULT:      -7.9      4.189      8.005
REMARK  Name = 
REMARK  4 active torsions:
REMARK  status: ('A' for Active; 'I' for Inactive)
REMARK    1  A    between atoms: C_2  and  C_17
REMARK    2  A    between atoms: N_3  and  C_4
REMARK    3  A    between atoms: C_4  and  C_5
REMARK    4  A    between atoms: C_11  and  C_12
REMARK                            x       y       z     vdW  Elec       q    Type
REMARK                         _______ _______ _______ _____ _____    ______ ____
ROOT
ATOM      1  O   UNL     1       2.610   8.786  17.327  0.00  0.00    +0.000 OA
ATOM      2  C   UNL     1       2.014   8.469  18.351  0.00  0.00    +0.000 C 
ATOM      3  N   UNL     1       1.355   9.382  19.141  0.00  0.00    +0.000 N 
ATOM      4  H   UNL     1       1.021   9.137  20.068  0.00  0.00    +0.000 HD
ENDROOT
BRANCH   2   5
ATOM      5  C   UNL     1       1.993   7.047  18.796  0.00  0.00    +0.000 A 
ATOM      6  C   UNL     1       1.853   6.775  20.162  0.00  0.00    +0.000 A 
ATOM      7  C   UNL     1       1.864   5.454  20.622  0.00  0.00    +0.000 A 
ATOM      8  C   UNL     1       2.034   4.386  19.727  0.00  0.00    +0.000 A 
ATOM      9  C   UNL     1       2.067   3.053  20.175  0.00  0.00    +0.000 A 
ATOM     10  C   UNL     1       2.263   2.004  19.274  0.00  0.00    +0.000 A 
ATOM     11  C   UNL     1       2.428   2.271  17.921  0.00  0.00    +0.000 A 
ATOM     12  C   UNL     1       2.391   3.588  17.460  0.00  0.00    +0.000 A 
ATOM     13  C   UNL     1       2.193   4.659  18.349  0.00  0.00    +0.000 A 
ATOM     14  C   UNL     1       2.164   5.989  17.894  0.00  0.00    +0.000 A 
ENDBRANCH   2   5
BRANCH   3  15
ATOM     15  C   UNL     1       1.328  10.793  18.785  0.00  0.00    +0.000 C 
BRANCH  15  16
ATOM     16  C   UNL     1       0.360  11.583  19.678  0.00  0.00    +0.000 C 
ATOM     17  O   UNL     1       0.658  11.828  20.850  0.00  0.00    +0.000 OA
ATOM     18  N   UNL     1      -0.832  12.023  19.107  0.00  0.00    +0.000 N 
ATOM     19  C   UNL     1      -1.701  12.924  19.866  0.00  0.00    +0.000 C 
ATOM     20  C   UNL     1      -3.083  12.310  20.046  0.00  0.00    +0.000 C 
ATOM     21  C   UNL     1      -3.686  11.903  18.702  0.00  0.00    +0.000 C 
ATOM     22  C   UNL     1      -2.730  11.007  17.896  0.00  0.00    +0.000 C 
ATOM     23  C   UNL     1      -1.338  11.644  17.783  0.00  0.00    +0.000 C 
BRANCH  22  24
ATOM     24  C   UNL     1      -3.289  10.676  16.517  0.00  0.00    +0.000 C 
ATOM     25  F   UNL     1      -2.591  11.272  15.526  0.00  0.00    +0.000 F 
ATOM     26  F   UNL     1      -3.284   9.349  16.270  0.00  0.00    +0.000 F 
ATOM     27  F   UNL     1      -4.570  11.099  16.414  0.00  0.00    +0.000 F 
ENDBRANCH  22  24
ENDBRANCH  15  16
ENDBRANCH   3  15
TORSDOF 4
ENDMDL
MODEL 9
REMARK VINA RESULT:      -7.9      3.554      7.540
REMARK  Name = 
REMARK  4 active torsions:
REMARK  status: ('A' for Active; 'I' for Inactive)
REMARK    1  A    between atoms: C_2  and  C_17
REMARK    2  A    between atoms: N_3  and  C_4
REMARK    3  A    between atoms: C_4  and  C_5
REMARK    4  A    between atoms: C_11  and  C_12
REMARK                            x       y       z     vdW  Elec       q    Type
REMARK                         _______ _______ _______ _____ _____    ______ ____
ROOT
ATOM      1  O   UNL     1       1.535   5.484  20.546  0.00  0.00    +0.000 OA
ATOM      2  C   UNL     1       2.051   6.475  20.039  0.00  0.00    +0.000 C 
ATOM      3  N   UNL     1       1.807   7.753  20.487  0.00  0.00    +0.000 N 
ATOM      4  H   UNL     1       2.097   8.565  19.953  0.00  0.00    +0.000 HD
ENDROOT
BRANCH   2   5
ATOM      5  C   UNL     1       2.977   6.328  18.881  0.00  0.00    +0.000 A 
ATOM      6  C   UNL     1       3.296   7.466  18.131  0.00  0.00    +0.000 A 
ATOM      7  C   UNL     1       4.134   7.361  17.015  0.00  0.00    +0.000 A 
ATOM      8  C   UNL     1       4.648   6.117  16.620  0.00  0.00    +0.000 A 
ATOM      9  C   UNL     1       5.476   5.992  15.489  0.00  0.00    +0.000 A 
ATOM     10  C   UNL     1       5.959   4.742  15.096  0.00  0.00    +0.000 A 
ATOM     11  C   UNL     1       5.624   3.606  15.823  0.00  0.00    +0.000 A 
ATOM     12  C   UNL     1       4.809   3.715  16.951  0.00  0.00    +0.000 A 
ATOM     13  C   UNL     1       4.313   4.963  17.366  0.00  0.00    +0.000 A 
ATOM     14  C   UNL     1       3.485   5.081  18.496  0.00  0.00    +0.000 A 
ENDBRANCH   2   5
BRANCH   3  15
ATOM     15  C   UNL     1       0.912   7.990  21.611  0.00  0.00    +0.000 C 
BRANCH  15  16
ATOM     16  C   UNL     1       0.805   9.486  21.940  0.00  0.00    +0.000 C 
ATOM     17  O   UNL     1       1.019   9.884  23.089  0.00  0.00    +0.000 OA
ATOM     18  N   UNL     1       0.489  10.356  20.899  0.00  0.00    +0.000 N 
ATOM     19  C   UNL     1       0.548  11.800  21.128  0.00  0.00    +0.000 C 
ATOM     20  C   UNL     1      -0.806  12.442  20.851  0.00  0.00    +0.000 C 
ATOM     21  C   UNL     1      -1.309  12.087  19.452  0.00  0.00    +0.000 C 
ATOM     22  C   UNL     1      -1.303  10.568  19.213  0.00  0.00    +0.000 C 
ATOM     23  C   UNL     1       0.064   9.959  19.552  0.00  0.00    +0.000 C 
BRANCH  22  24
ATOM     24  C   UNL     1      -1.717  10.216  17.788  0.00  0.00    +0.000 C 
ATOM     25  F   UNL     1      -0.762   9.516  17.138  0.00  0.00    +0.000 F 
ATOM     26  F   UNL     1      -2.848   9.481  17.752  0.00  0.00    +0.000 F 
ATOM     27  F   UNL     1      -1.945  11.341  17.073  0.00  0.00    +0.000 F 
ENDBRANCH  22  24
ENDBRANCH  15  16
ENDBRANCH   3  15
TORSDOF 4
ENDMDL
