MODEL 1
REMARK VINA RESULT:      -9.1      0.000      0.000
REMARK  Name = 
REMARK  3 active torsions:
REMARK  status: ('A' for Active; 'I' for Inactive)
REMARK    1  A    between atoms: C_1  and  C_2
REMARK    2  A    between atoms: C_12  and  N_13
REMARK    3  A    between atoms: C_14  and  C_16
REMARK                            x       y       z     vdW  Elec       q    Type
REMARK                         _______ _______ _______ _____ _____    ______ ____
ROOT
ATOM      1  N   UNL     1       2.337   7.156  19.469  0.00  0.00    +0.000 N 
ATOM      2  C   UNL     1       2.178   5.807  19.750  0.00  0.00    +0.000 C 
ATOM      3  O   UNL     1       1.463   5.339  20.638  0.00  0.00    +0.000 OA
ATOM      4  H   UNL     1       2.983   7.381  18.712  0.00  0.00    +0.000 HD
ENDROOT
BRANCH   1  16
ATOM      5  C   UNL     1       1.371   9.509  17.907  0.00  0.00    +0.000 C 
ATOM      6  C   UNL     1       1.174   9.344  19.386  0.00  0.00    +0.000 A 
ATOM      7  N   UNL     1       0.477  10.366  19.977  0.00  0.00    +0.000 NA
ATOM      8  C   UNL     1       0.236  10.324  21.305  0.00  0.00    +0.000 A 
ATOM      9  N   UNL     1      -0.443  11.352  21.922  0.00  0.00    +0.000 N 
ATOM     10  C   UNL     1      -0.970  12.456  21.145  0.00  0.00    +0.000 C 
ATOM     11  C   UNL     1      -1.531  13.349  22.248  0.00  0.00    +0.000 C 
ATOM     12  C   UNL     1      -2.118  12.361  23.251  0.00  0.00    +0.000 C 
ATOM     13  C   UNL     1      -1.317  11.073  23.057  0.00  0.00    +0.000 C 
ATOM     14  C   UNL     1       0.716   9.270  22.063  0.00  0.00    +0.000 A 
ATOM     15  C   UNL     1       1.412   8.231  21.464  0.00  0.00    +0.000 A 
ATOM     16  C   UNL     1       1.651   8.231  20.097  0.00  0.00    +0.000 A 
ENDBRANCH   1  16
BRANCH   2  17
ATOM     17  C   UNL     1       2.913   4.809  18.919  0.00  0.00    +0.000 A 
ATOM     18  C   UNL     1       2.652   3.452  19.206  0.00  0.00    +0.000 A 
ATOM     19  C   UNL     1       3.231   2.458  18.442  0.00  0.00    +0.000 A 
ATOM     20  F   UNL     1       2.965   1.174  18.711  0.00  0.00    +0.000 F 
ATOM     21  C   UNL     1       4.067   2.783  17.391  0.00  0.00    +0.000 A 
ATOM     22  C   UNL     1       4.332   4.130  17.101  0.00  0.00    +0.000 A 
ATOM     23  C   UNL     1       5.150   4.462  16.016  0.00  0.00    +0.000 A 
ATOM     24  C   UNL     1       5.406   5.794  15.718  0.00  0.00    +0.000 A 
ATOM     25  C   UNL     1       4.848   6.755  16.530  0.00  0.00    +0.000 A 
ATOM     26  N   UNL     1       4.050   6.475  17.586  0.00  0.00    +0.000 NA
ATOM     27  C   UNL     1       3.772   5.176  17.874  0.00  0.00    +0.000 A 
ENDBRANCH   2  17
TORSDOF 2
ENDMDL
MODEL 2
REMARK VINA RESULT:      -8.5      1.010      1.025
REMARK  Name = 
REMARK  3 active torsions:
REMARK  status: ('A' for Active; 'I' for Inactive)
REMARK    1  A    between atoms: C_1  and  C_2
REMARK    2  A    between atoms: C_12  and  N_13
REMARK    3  A    between atoms: C_14  and  C_16
REMARK                            x       y       z     vdW  Elec       q    Type
REMARK                         _______ _______ _______ _____ _____    ______ ____
ROOT
ATOM      1  N   UNL     1       2.231   7.571  20.376  0.00  0.00    +0.000 N 
ATOM      2  C   UNL     1       1.911   6.224  20.284  0.00  0.00    +0.000 C 
ATOM      3  O   UNL     1       0.848   5.713  20.640  0.00  0.00    +0.000 OA
ATOM      4  H   UNL     1       3.163   7.832  20.056  0.00  0.00    +0.000 HD
ENDROOT
BRANCH   1  16
ATOM      5  C   UNL     1       0.834   9.367  18.445  0.00  0.00    +0.000 C 
ATOM      6  C   UNL     1       0.687   9.460  19.936  0.00  0.00    +0.000 A 
ATOM      7  N   UNL     1      -0.177  10.438  20.355  0.00  0.00    +0.000 NA
ATOM      8  C   UNL     1      -0.392  10.613  21.677  0.00  0.00    +0.000 A 
ATOM      9  N   UNL     1      -1.239  11.605  22.120  0.00  0.00    +0.000 N 
ATOM     10  C   UNL     1      -1.968  12.427  21.173  0.00  0.00    +0.000 C 
ATOM     11  C   UNL     1      -2.669  13.403  22.112  0.00  0.00    +0.000 C 
ATOM     12  C   UNL     1      -3.054  12.541  23.311  0.00  0.00    +0.000 C 
ATOM     13  C   UNL     1      -2.034  11.402  23.326  0.00  0.00    +0.000 C 
ATOM     14  C   UNL     1       0.282   9.828  22.597  0.00  0.00    +0.000 A 
ATOM     15  C   UNL     1       1.148   8.832  22.174  0.00  0.00    +0.000 A 
ATOM     16  C   UNL     1       1.368   8.608  20.821  0.00  0.00    +0.000 A 
ENDBRANCH   1  16
BRANCH   2  17
ATOM     17  C   UNL     1       2.916   5.287  19.700  0.00  0.00    +0.000 A 
ATOM     18  C   UNL     1       3.015   4.022  20.318  0.00  0.00    +0.000 A 
ATOM     19  C   UNL     1       3.866   3.064  19.803  0.00  0.00    +0.000 A 
ATOM     20  F   UNL     1       3.942   1.861  20.386  0.00  0.00    +0.000 F 
ATOM     21  C   UNL     1       4.623   3.334  18.680  0.00  0.00    +0.000 A 
ATOM     22  C   UNL     1       4.530   4.589  18.060  0.00  0.00    +0.000 A 
ATOM     23  C   UNL     1       5.269   4.853  16.902  0.00  0.00    +0.000 A 
ATOM     24  C   UNL     1       5.172   6.090  16.280  0.00  0.00    +0.000 A 
ATOM     25  C   UNL     1       4.348   7.036  16.849  0.00  0.00    +0.000 A 
ATOM     26  N   UNL     1       3.615   6.819  17.966  0.00  0.00    +0.000 NA
ATOM     27  C   UNL     1       3.683   5.604  18.571  0.00  0.00    +0.000 A 
ENDBRANCH   2  17
TORSDOF 2
ENDMDL
MODEL 3
REMARK VINA RESULT:      -8.3      2.081      3.545
REMARK  Name = 
REMARK  3 active torsions:
REMARK  status: ('A' for Active; 'I' for Inactive)
REMARK    1  A    between atoms: C_1  and  C_2
REMARK    2  A    between atoms: C_12  and  N_13
REMARK    3  A    between atoms: C_14  and  C_16
REMARK                            x       y       z     vdW  Elec       q    Type
REMARK                         _______ _______ _______ _____ _____    ______ ____
ROOT
ATOM      1  N   UNL     1       1.978   7.444  18.540  0.00  0.00    +0.000 N 
ATOM      2  C   UNL     1       3.211   6.933  18.161  0.00  0.00    +0.000 C 
ATOM      3  O   UNL     1       4.231   7.595  17.962  0.00  0.00    +0.000 OA
ATOM      4  H   UNL     1       1.226   6.764  18.645  0.00  0.00    +0.000 HD
ENDROOT
BRANCH   1  16
ATOM      5  C   UNL     1       0.922   8.256  21.210  0.00  0.00    +0.000 C 
ATOM      6  C   UNL     1       1.205   9.216  20.092  0.00  0.00    +0.000 A 
ATOM      7  N   UNL     1       0.961  10.528  20.404  0.00  0.00    +0.000 NA
ATOM      8  C   UNL     1       1.183  11.484  19.475  0.00  0.00    +0.000 A 
ATOM      9  N   UNL     1       0.923  12.806  19.761  0.00  0.00    +0.000 N 
ATOM     10  C   UNL     1       0.477  13.199  21.083  0.00  0.00    +0.000 C 
ATOM     11  C   UNL     1       0.242  14.693  20.881  0.00  0.00    +0.000 C 
ATOM     12  C   UNL     1       1.380  15.118  19.957  0.00  0.00    +0.000 C 
ATOM     13  C   UNL     1       1.750  13.856  19.176  0.00  0.00    +0.000 C 
ATOM     14  C   UNL     1       1.624  11.131  18.211  0.00  0.00    +0.000 A 
ATOM     15  C   UNL     1       1.880   9.805  17.899  0.00  0.00    +0.000 A 
ATOM     16  C   UNL     1       1.690   8.803  18.841  0.00  0.00    +0.000 A 
ENDBRANCH   1  16
BRANCH   2  17
ATOM     17  C   UNL     1       3.351   5.458  17.980  0.00  0.00    +0.000 A 
ATOM     18  C   UNL     1       4.302   5.040  17.024  0.00  0.00    +0.000 A 
ATOM     19  C   UNL     1       4.552   3.695  16.838  0.00  0.00    +0.000 A 
ATOM     20  F   UNL     1       5.467   3.308  15.941  0.00  0.00    +0.000 F 
ATOM     21  C   UNL     1       3.877   2.750  17.586  0.00  0.00    +0.000 A 
ATOM     22  C   UNL     1       2.931   3.158  18.537  0.00  0.00    +0.000 A 
ATOM     23  C   UNL     1       2.272   2.204  19.321  0.00  0.00    +0.000 A 
ATOM     24  C   UNL     1       1.342   2.605  20.271  0.00  0.00    +0.000 A 
ATOM     25  C   UNL     1       1.086   3.951  20.396  0.00  0.00    +0.000 A 
ATOM     26  N   UNL     1       1.703   4.905  19.659  0.00  0.00    +0.000 NA
ATOM     27  C   UNL     1       2.633   4.528  18.743  0.00  0.00    +0.000 A 
ENDBRANCH   2  17
TORSDOF 2
ENDMDL
MODEL 4
REMARK VINA RESULT:      -8.2      1.942      2.837
REMARK  Name = 
REMARK  3 active torsions:
REMARK  status: ('A' for Active; 'I' for Inactive)
REMARK    1  A    between atoms: C_1  and  C_2
REMARK    2  A    between atoms: C_12  and  N_13
REMARK    3  A    between atoms: C_14  and  C_16
REMARK                            x       y       z     vdW  Elec       q    Type
REMARK                         _______ _______ _______ _____ _____    ______ ____
ROOT
ATOM      1  N   UNL     1       1.653   8.600  18.972  0.00  0.00    +0.000 N 
ATOM      2  C   UNL     1       2.064   7.342  19.389  0.00  0.00    +0.000 C 
ATOM      3  O   UNL     1       1.816   6.833  20.483  0.00  0.00    +0.000 OA
ATOM      4  H   UNL     1       1.958   8.884  18.042  0.00  0.00    +0.000 HD
ENDROOT
BRANCH   1  16
ATOM      5  C   UNL     1      -0.609  10.025  17.647  0.00  0.00    +0.000 C 
ATOM      6  C   UNL     1      -0.266  10.164  19.101  0.00  0.00    +0.000 A 
ATOM      7  N   UNL     1      -1.105  10.994  19.799  0.00  0.00    +0.000 NA
ATOM      8  C   UNL     1      -0.896  11.193  21.119  0.00  0.00    +0.000 A 
ATOM      9  N   UNL     1      -1.714  12.040  21.833  0.00  0.00    +0.000 N 
ATOM     10  C   UNL     1      -2.852  12.673  21.197  0.00  0.00    +0.000 C 
ATOM     11  C   UNL     1      -3.368  13.556  22.331  0.00  0.00    +0.000 C 
ATOM     12  C   UNL     1      -3.168  12.699  23.577  0.00  0.00    +0.000 C 
ATOM     13  C   UNL     1      -2.012  11.759  23.234  0.00  0.00    +0.000 C 
ATOM     14  C   UNL     1       0.176  10.584  21.748  0.00  0.00    +0.000 A 
ATOM     15  C   UNL     1       1.018   9.737  21.046  0.00  0.00    +0.000 A 
ATOM     16  C   UNL     1       0.813   9.490  19.695  0.00  0.00    +0.000 A 
ENDBRANCH   1  16
BRANCH   2  17
ATOM     17  C   UNL     1       2.868   6.504  18.452  0.00  0.00    +0.000 A 
ATOM     18  C   UNL     1       3.924   7.162  17.785  0.00  0.00    +0.000 A 
ATOM     19  C   UNL     1       4.767   6.452  16.953  0.00  0.00    +0.000 A 
ATOM     20  F   UNL     1       5.776   7.080  16.337  0.00  0.00    +0.000 F 
ATOM     21  C   UNL     1       4.587   5.095  16.769  0.00  0.00    +0.000 A 
ATOM     22  C   UNL     1       3.539   4.434  17.429  0.00  0.00    +0.000 A 
ATOM     23  C   UNL     1       3.375   3.054  17.272  0.00  0.00    +0.000 A 
ATOM     24  C   UNL     1       2.346   2.395  17.931  0.00  0.00    +0.000 A 
ATOM     25  C   UNL     1       1.498   3.144  18.716  0.00  0.00    +0.000 A 
ATOM     26  N   UNL     1       1.624   4.479  18.895  0.00  0.00    +0.000 NA
ATOM     27  C   UNL     1       2.642   5.132  18.274  0.00  0.00    +0.000 A 
ENDBRANCH   2  17
TORSDOF 2
ENDMDL
MODEL 5
REMARK VINA RESULT:      -8.2      2.147      3.601
REMARK  Name = 
REMARK  3 active torsions:
REMARK  status: ('A' for Active; 'I' for Inactive)
REMARK    1  A    between atoms: C_1  and  C_2
REMARK    2  A    between atoms: C_12  and  N_13
REMARK    3  A    between atoms: C_14  and  C_16
REMARK                            x       y       z     vdW  Elec       q    Type
REMARK                         _______ _______ _______ _____ _____    ______ ____
ROOT
ATOM      1  N   UNL     1       2.015   7.696  19.645  0.00  0.00    +0.000 N 
ATOM      2  C   UNL     1       2.812   7.179  18.634  0.00  0.00    +0.000 C 
ATOM      3  O   UNL     1       3.061   7.733  17.562  0.00  0.00    +0.000 OA
ATOM      4  H   UNL     1       1.892   7.103  20.464  0.00  0.00    +0.000 HD
ENDROOT
BRANCH   1  16
ATOM      5  C   UNL     1       1.225   9.013  22.204  0.00  0.00    +0.000 C 
ATOM      6  C   UNL     1       1.040   9.631  20.849  0.00  0.00    +0.000 A 
ATOM      7  N   UNL     1       0.492  10.888  20.875  0.00  0.00    +0.000 NA
ATOM      8  C   UNL     1       0.282  11.545  19.715  0.00  0.00    +0.000 A 
ATOM      9  N   UNL     1      -0.289  12.799  19.718  0.00  0.00    +0.000 N 
ATOM     10  C   UNL     1      -0.605  13.460  20.969  0.00  0.00    +0.000 C 
ATOM     11  C   UNL     1      -1.279  14.733  20.466  0.00  0.00    +0.000 C 
ATOM     12  C   UNL     1      -0.474  15.104  19.225  0.00  0.00    +0.000 C 
ATOM     13  C   UNL     1       0.103  13.783  18.714  0.00  0.00    +0.000 C 
ATOM     14  C   UNL     1       0.591  10.938  18.510  0.00  0.00    +0.000 A 
ATOM     15  C   UNL     1       1.155   9.673  18.483  0.00  0.00    +0.000 A 
ATOM     16  C   UNL     1       1.410   8.982  19.660  0.00  0.00    +0.000 A 
ENDBRANCH   1  16
BRANCH   2  17
ATOM     17  C   UNL     1       3.445   5.842  18.834  0.00  0.00    +0.000 A 
ATOM     18  C   UNL     1       4.779   5.717  18.389  0.00  0.00    +0.000 A 
ATOM     19  C   UNL     1       5.471   4.540  18.595  0.00  0.00    +0.000 A 
ATOM     20  F   UNL     1       6.741   4.436  18.185  0.00  0.00    +0.000 F 
ATOM     21  C   UNL     1       4.867   3.478  19.240  0.00  0.00    +0.000 A 
ATOM     22  C   UNL     1       3.541   3.595  19.684  0.00  0.00    +0.000 A 
ATOM     23  C   UNL     1       2.937   2.534  20.368  0.00  0.00    +0.000 A 
ATOM     24  C   UNL     1       1.629   2.650  20.819  0.00  0.00    +0.000 A 
ATOM     25  C   UNL     1       0.957   3.822  20.554  0.00  0.00    +0.000 A 
ATOM     26  N   UNL     1       1.505   4.871  19.898  0.00  0.00    +0.000 NA
ATOM     27  C   UNL     1       2.792   4.780  19.473  0.00  0.00    +0.000 A 
ENDBRANCH   2  17
TORSDOF 2
ENDMDL
MODEL 6
REMARK VINA RESULT:      -8.1      1.792      2.589
REMARK  Name = 
REMARK  3 active torsions:
REMARK  status: ('A' for Active; 'I' for Inactive)
REMARK    1  A    between atoms: C_1  and  C_2
REMARK    2  A    between atoms: C_12  and  N_13
REMARK    3  A    between atoms: C_14  and  C_16
REMARK                            x       y       z     vdW  Elec       q    Type
REMARK                         _______ _______ _______ _____ _____    ______ ____
ROOT
ATOM      1  N   UNL     1       2.210   7.686  19.994  0.00  0.00    +0.000 N 
ATOM      2  C   UNL     1       2.105   6.328  20.258  0.00  0.00    +0.000 C 
ATOM      3  O   UNL     1       1.307   5.808  21.040  0.00  0.00    +0.000 OA
ATOM      4  H   UNL     1       2.938   7.958  19.334  0.00  0.00    +0.000 HD
ENDROOT
BRANCH   1  16
ATOM      5  C   UNL     1       0.824   9.625  18.198  0.00  0.00    +0.000 C 
ATOM      6  C   UNL     1       0.696   9.626  19.693  0.00  0.00    +0.000 A 
ATOM      7  N   UNL     1      -0.146  10.590  20.184  0.00  0.00    +0.000 NA
ATOM      8  C   UNL     1      -0.342  10.685  21.516  0.00  0.00    +0.000 A 
ATOM      9  N   UNL     1      -1.167  11.661  22.031  0.00  0.00    +0.000 N 
ATOM     10  C   UNL     1      -1.891  12.554  21.147  0.00  0.00    +0.000 C 
ATOM     11  C   UNL     1      -2.564  13.481  22.155  0.00  0.00    +0.000 C 
ATOM     12  C   UNL     1      -2.951  12.551  23.301  0.00  0.00    +0.000 C 
ATOM     13  C   UNL     1      -1.952  11.396  23.232  0.00  0.00    +0.000 C 
ATOM     14  C   UNL     1       0.327   9.832  22.377  0.00  0.00    +0.000 A 
ATOM     15  C   UNL     1       1.170   8.850  21.881  0.00  0.00    +0.000 A 
ATOM     16  C   UNL     1       1.371   8.708  20.514  0.00  0.00    +0.000 A 
ENDBRANCH   1  16
BRANCH   2  17
ATOM     17  C   UNL     1       3.016   5.386  19.543  0.00  0.00    +0.000 A 
ATOM     18  C   UNL     1       4.360   5.800  19.419  0.00  0.00    +0.000 A 
ATOM     19  C   UNL     1       5.292   4.964  18.836  0.00  0.00    +0.000 A 
ATOM     20  F   UNL     1       6.568   5.358  18.738  0.00  0.00    +0.000 F 
ATOM     21  C   UNL     1       4.918   3.718  18.372  0.00  0.00    +0.000 A 
ATOM     22  C   UNL     1       3.584   3.301  18.491  0.00  0.00    +0.000 A 
ATOM     23  C   UNL     1       3.209   2.025  18.053  0.00  0.00    +0.000 A 
ATOM     24  C   UNL     1       1.893   1.605  18.179  0.00  0.00    +0.000 A 
ATOM     25  C   UNL     1       0.983   2.483  18.724  0.00  0.00    +0.000 A 
ATOM     26  N   UNL     1       1.306   3.723  19.160  0.00  0.00    +0.000 NA
ATOM     27  C   UNL     1       2.596   4.138  19.065  0.00  0.00    +0.000 A 
ENDBRANCH   2  17
TORSDOF 2
ENDMDL
MODEL 7
REMARK VINA RESULT:      -8.1      3.708      8.635
REMARK  Name = 
REMARK  3 active torsions:
REMARK  status: ('A' for Active; 'I' for Inactive)
REMARK    1  A    between atoms: C_1  and  C_2
REMARK    2  A    between atoms: C_12  and  N_13
REMARK    3  A    between atoms: C_14  and  C_16
REMARK                            x       y       z     vdW  Elec       q    Type
REMARK                         _______ _______ _______ _____ _____    ______ ____
ROOT
ATOM      1  N   UNL     1       1.530   9.911  19.158  0.00  0.00    +0.000 N 
ATOM      2  C   UNL     1       0.359  10.419  18.615  0.00  0.00    +0.000 C 
ATOM      3  O   UNL     1      -0.432   9.796  17.905  0.00  0.00    +0.000 OA
ATOM      4  H   UNL     1       2.087  10.563  19.709  0.00  0.00    +0.000 HD
ENDROOT
BRANCH   1  16
ATOM      5  C   UNL     1       1.115   7.960  21.377  0.00  0.00    +0.000 C 
ATOM      6  C   UNL     1       1.794   7.626  20.081  0.00  0.00    +0.000 A 
ATOM      7  N   UNL     1       2.196   6.319  19.979  0.00  0.00    +0.000 NA
ATOM      8  C   UNL     1       2.816   5.901  18.854  0.00  0.00    +0.000 A 
ATOM      9  N   UNL     1       3.248   4.598  18.740  0.00  0.00    +0.000 N 
ATOM     10  C   UNL     1       2.979   3.639  19.794  0.00  0.00    +0.000 C 
ATOM     11  C   UNL     1       3.711   2.410  19.265  0.00  0.00    +0.000 C 
ATOM     12  C   UNL     1       3.459   2.456  17.760  0.00  0.00    +0.000 C 
ATOM     13  C   UNL     1       3.233   3.935  17.440  0.00  0.00    +0.000 C 
ATOM     14  C   UNL     1       3.067   6.797  17.829  0.00  0.00    +0.000 A 
ATOM     15  C   UNL     1       2.651   8.115  17.928  0.00  0.00    +0.000 A 
ATOM     16  C   UNL     1       1.986   8.569  19.059  0.00  0.00    +0.000 A 
ENDBRANCH   1  16
BRANCH   2  17
ATOM     17  C   UNL     1      -0.010  11.837  18.905  0.00  0.00    +0.000 A 
ATOM     18  C   UNL     1      -1.308  12.046  19.419  0.00  0.00    +0.000 A 
ATOM     19  C   UNL     1      -1.712  13.314  19.783  0.00  0.00    +0.000 A 
ATOM     20  F   UNL     1      -2.939  13.501  20.285  0.00  0.00    +0.000 F 
ATOM     21  C   UNL     1      -0.852  14.387  19.651  0.00  0.00    +0.000 A 
ATOM     22  C   UNL     1       0.439  14.187  19.140  0.00  0.00    +0.000 A 
ATOM     23  C   UNL     1       1.325  15.265  19.037  0.00  0.00    +0.000 A 
ATOM     24  C   UNL     1       2.607  15.069  18.542  0.00  0.00    +0.000 A 
ATOM     25  C   UNL     1       2.959  13.798  18.147  0.00  0.00    +0.000 A 
ATOM     26  N   UNL     1       2.133  12.729  18.232  0.00  0.00    +0.000 NA
ATOM     27  C   UNL     1       0.884  12.903  18.737  0.00  0.00    +0.000 A 
ENDBRANCH   2  17
TORSDOF 2
ENDMDL
MODEL 8
REMARK VINA RESULT:      -8.1      2.156      3.275
REMARK  Name = 
REMARK  3 active torsions:
REMARK  status: ('A' for Active; 'I' for Inactive)
REMARK    1  A    between atoms: C_1  and  C_2
REMARK    2  A    between atoms: C_12  and  N_13
REMARK    3  A    between atoms: C_14  and  C_16
REMARK                            x       y       z     vdW  Elec       q    Type
REMARK                         _______ _______ _______ _____ _____    ______ ____
ROOT
ATOM      1  N   UNL     1       1.967   7.964  19.042  0.00  0.00    +0.000 N 
ATOM      2  C   UNL     1       2.763   7.916  17.907  0.00  0.00    +0.000 C 
ATOM      3  O   UNL     1       2.825   8.786  17.037  0.00  0.00    +0.000 OA
ATOM      4  H   UNL     1       2.015   7.152  19.657  0.00  0.00    +0.000 HD
ENDROOT
BRANCH   1  16
ATOM      5  C   UNL     1       1.483   8.568  21.924  0.00  0.00    +0.000 C 
ATOM      6  C   UNL     1       0.908   9.367  20.791  0.00  0.00    +0.000 A 
ATOM      7  N   UNL     1       0.147  10.436  21.187  0.00  0.00    +0.000 NA
ATOM      8  C   UNL     1      -0.420  11.230  20.253  0.00  0.00    +0.000 A 
ATOM      9  N   UNL     1      -1.207  12.296  20.630  0.00  0.00    +0.000 N 
ATOM     10  C   UNL     1      -1.378  12.624  22.031  0.00  0.00    +0.000 C 
ATOM     11  C   UNL     1      -2.373  13.778  21.942  0.00  0.00    +0.000 C 
ATOM     12  C   UNL     1      -1.927  14.547  20.702  0.00  0.00    +0.000 C 
ATOM     13  C   UNL     1      -1.225  13.511  19.822  0.00  0.00    +0.000 C 
ATOM     14  C   UNL     1      -0.254  10.943  18.908  0.00  0.00    +0.000 A 
ATOM     15  C   UNL     1       0.524   9.869  18.508  0.00  0.00    +0.000 A 
ATOM     16  C   UNL     1       1.143   9.051  19.443  0.00  0.00    +0.000 A 
ENDBRANCH   1  16
BRANCH   2  17
ATOM     17  C   UNL     1       3.640   6.727  17.697  0.00  0.00    +0.000 A 
ATOM     18  C   UNL     1       5.007   6.999  17.467  0.00  0.00    +0.000 A 
ATOM     19  C   UNL     1       5.907   5.961  17.333  0.00  0.00    +0.000 A 
ATOM     20  F   UNL     1       7.203   6.228  17.132  0.00  0.00    +0.000 F 
ATOM     21  C   UNL     1       5.480   4.650  17.424  0.00  0.00    +0.000 A 
ATOM     22  C   UNL     1       4.123   4.372  17.651  0.00  0.00    +0.000 A 
ATOM     23  C   UNL     1       3.694   3.047  17.779  0.00  0.00    +0.000 A 
ATOM     24  C   UNL     1       2.354   2.768  18.014  0.00  0.00    +0.000 A 
ATOM     25  C   UNL     1       1.479   3.828  18.097  0.00  0.00    +0.000 A 
ATOM     26  N   UNL     1       1.855   5.123  17.982  0.00  0.00    +0.000 NA
ATOM     27  C   UNL     1       3.167   5.410  17.775  0.00  0.00    +0.000 A 
ENDBRANCH   2  17
TORSDOF 2
ENDMDL
MODEL 9
REMARK VINA RESULT:      -8.0      1.821      2.780
REMARK  Name = 
REMARK  3 active torsions:
REMARK  status: ('A' for Active; 'I' for Inactive)
REMARK    1  A    between atoms: C_1  and  C_2
REMARK    2  A    between atoms: C_12  and  N_13
REMARK    3  A    between atoms: C_14  and  C_16
REMARK                            x       y       z     vdW  Elec       q    Type
REMARK                         _______ _______ _______ _____ _____    ______ ____
ROOT
ATOM      1  N   UNL     1       1.695   8.347  19.327  0.00  0.00    +0.000 N 
ATOM      2  C   UNL     1       2.119   7.091  19.737  0.00  0.00    +0.000 C 
ATOM      3  O   UNL     1       2.042   6.647  20.884  0.00  0.00    +0.000 OA
ATOM      4  H   UNL     1       1.847   8.570  18.344  0.00  0.00    +0.000 HD
ENDROOT
BRANCH   1  16
ATOM      5  C   UNL     1       1.633  11.231  18.565  0.00  0.00    +0.000 C 
ATOM      6  C   UNL     1       0.972  10.672  19.791  0.00  0.00    +0.000 A 
ATOM      7  N   UNL     1       0.299  11.602  20.540  0.00  0.00    +0.000 NA
ATOM      8  C   UNL     1      -0.338  11.214  21.666  0.00  0.00    +0.000 A 
ATOM      9  N   UNL     1      -1.001  12.137  22.444  0.00  0.00    +0.000 N 
ATOM     10  C   UNL     1      -1.086  13.524  22.030  0.00  0.00    +0.000 C 
ATOM     11  C   UNL     1      -1.808  14.142  23.223  0.00  0.00    +0.000 C 
ATOM     12  C   UNL     1      -2.820  13.075  23.629  0.00  0.00    +0.000 C 
ATOM     13  C   UNL     1      -2.211  11.752  23.163  0.00  0.00    +0.000 C 
ATOM     14  C   UNL     1      -0.283   9.891  22.070  0.00  0.00    +0.000 A 
ATOM     15  C   UNL     1       0.388   8.949  21.308  0.00  0.00    +0.000 A 
ATOM     16  C   UNL     1       1.028   9.311  20.131  0.00  0.00    +0.000 A 
ENDBRANCH   1  16
BRANCH   2  17
ATOM     17  C   UNL     1       2.716   6.170  18.726  0.00  0.00    +0.000 A 
ATOM     18  C   UNL     1       3.738   6.716  17.919  0.00  0.00    +0.000 A 
ATOM     19  C   UNL     1       4.398   5.920  17.004  0.00  0.00    +0.000 A 
ATOM     20  F   UNL     1       5.377   6.442  16.254  0.00  0.00    +0.000 F 
ATOM     21  C   UNL     1       4.067   4.585  16.872  0.00  0.00    +0.000 A 
ATOM     22  C   UNL     1       3.052   4.036  17.671  0.00  0.00    +0.000 A 
ATOM     23  C   UNL     1       2.738   2.677  17.565  0.00  0.00    +0.000 A 
ATOM     24  C   UNL     1       1.742   2.127  18.360  0.00  0.00    +0.000 A 
ATOM     25  C   UNL     1       1.075   2.962  19.228  0.00  0.00    +0.000 A 
ATOM     26  N   UNL     1       1.350   4.281  19.362  0.00  0.00    +0.000 NA
ATOM     27  C   UNL     1       2.339   4.826  18.606  0.00  0.00    +0.000 A 
ENDBRANCH   2  17
TORSDOF 2
ENDMDL
