MODEL 1
REMARK VINA RESULT:      -8.6      0.000      0.000
REMARK  Name = 
REMARK  3 active torsions:
REMARK  status: ('A' for Active; 'I' for Inactive)
REMARK    1  A    between atoms: C_2  and  C_15
REMARK    2  A    between atoms: N_3  and  C_4
REMARK    3  A    between atoms: C_8  and  C_9
REMARK                            x       y       z     vdW  Elec       q    Type
REMARK                         _______ _______ _______ _____ _____    ______ ____
ROOT
ATOM      1  O   UNL     1       8.222   6.658  18.987  0.00  0.00    +0.000 OA
ATOM      2  C   UNL     1       7.956   7.507  18.143  0.00  0.00    +0.000 C 
ATOM      3  N   UNL     1       7.249   7.289  16.972  0.00  0.00    +0.000 N 
ATOM      4  H   UNL     1       7.146   8.110  16.384  0.00  0.00    +0.000 HD
ENDROOT
BRANCH   2   5
ATOM      5  C   UNL     1       8.334   8.899  18.307  0.00  0.00    +0.000 A 
ATOM      6  C   UNL     1       8.090  10.015  17.526  0.00  0.00    +0.000 A 
ATOM      7  C   UNL     1       8.845  11.081  18.084  0.00  0.00    +0.000 A 
ATOM      8  C   UNL     1       9.107  12.419  17.739  0.00  0.00    +0.000 A 
ATOM      9  C   UNL     1      10.005  13.144  18.535  0.00  0.00    +0.000 A 
ATOM     10 BR   UNL     1      10.458  14.914  18.038  0.00  0.00    +0.000 Br
ATOM     11  C   UNL     1      10.599  12.583  19.669  0.00  0.00    +0.000 A 
ATOM     12  C   UNL     1      10.319  11.266  20.047  0.00  0.00    +0.000 A 
ATOM     13  C   UNL     1       9.457  10.555  19.215  0.00  0.00    +0.000 A 
ATOM     14  O   UNL     1       9.127   9.247  19.370  0.00  0.00    +0.000 OA
ENDBRANCH   2   5
BRANCH   3  15
ATOM     15  C   UNL     1       6.605   6.113  16.542  0.00  0.00    +0.000 A 
ATOM     16  C   UNL     1       7.163   5.212  15.639  0.00  0.00    +0.000 A 
ATOM     17  C   UNL     1       6.475   4.054  15.281  0.00  0.00    +0.000 A 
ATOM     18  C   UNL     1       5.219   3.779  15.826  0.00  0.00    +0.000 A 
ATOM     19  C   UNL     1       4.634   4.666  16.737  0.00  0.00    +0.000 A 
ATOM     20  C   UNL     1       5.339   5.835  17.079  0.00  0.00    +0.000 A 
BRANCH  19  21
ATOM     21  C   UNL     1       3.327   4.406  17.341  0.00  0.00    +0.000 A 
ATOM     22  N   UNL     1       2.606   5.226  18.086  0.00  0.00    +0.000 NA
ATOM     23  N   UNL     1       1.465   4.543  18.435  0.00  0.00    +0.000 NA
ATOM     24  N   UNL     1       1.471   3.323  17.923  0.00  0.00    +0.000 NA
ATOM     25  N   UNL     1       2.620   3.236  17.247  0.00  0.00    +0.000 N 
ATOM     26  H   UNL     1       2.850   2.374  16.770  0.00  0.00    +0.000 HD
ENDBRANCH  19  21
ENDBRANCH   3  15
TORSDOF 3
ENDMDL
MODEL 2
REMARK VINA RESULT:      -8.6      6.134      7.495
REMARK  Name = 
REMARK  3 active torsions:
REMARK  status: ('A' for Active; 'I' for Inactive)
REMARK    1  A    between atoms: C_2  and  C_15
REMARK    2  A    between atoms: N_3  and  C_4
REMARK    3  A    between atoms: C_8  and  C_9
REMARK                            x       y       z     vdW  Elec       q    Type
REMARK                         _______ _______ _______ _____ _____    ______ ____
ROOT
ATOM      1  O   UNL     1       2.403   8.721  17.441  0.00  0.00    +0.000 OA
ATOM      2  C   UNL     1       1.846   8.366  18.474  0.00  0.00    +0.000 C 
ATOM      3  N   UNL     1       1.853   7.083  18.998  0.00  0.00    +0.000 N 
ATOM      4  H   UNL     1       1.317   6.975  19.852  0.00  0.00    +0.000 HD
ENDROOT
BRANCH   2   5
ATOM      5  C   UNL     1       1.124   9.301  19.319  0.00  0.00    +0.000 A 
ATOM      6  C   UNL     1       0.935  10.668  19.223  0.00  0.00    +0.000 A 
ATOM      7  C   UNL     1       0.290  11.079  20.420  0.00  0.00    +0.000 A 
ATOM      8  C   UNL     1      -0.099  12.307  20.985  0.00  0.00    +0.000 A 
ATOM      9  C   UNL     1      -0.654  12.297  22.273  0.00  0.00    +0.000 A 
ATOM     10 BR   UNL     1      -1.093  13.942  23.101  0.00  0.00    +0.000 Br
ATOM     11  C   UNL     1      -0.865  11.105  22.972  0.00  0.00    +0.000 A 
ATOM     12  C   UNL     1      -0.518   9.874  22.408  0.00  0.00    +0.000 A 
ATOM     13  C   UNL     1       0.071   9.915  21.147  0.00  0.00    +0.000 A 
ATOM     14  O   UNL     1       0.545   8.836  20.472  0.00  0.00    +0.000 OA
ENDBRANCH   2   5
BRANCH   3  15
ATOM     15  C   UNL     1       2.559   5.954  18.541  0.00  0.00    +0.000 A 
ATOM     16  C   UNL     1       1.968   4.903  17.844  0.00  0.00    +0.000 A 
ATOM     17  C   UNL     1       2.739   3.830  17.400  0.00  0.00    +0.000 A 
ATOM     18  C   UNL     1       4.113   3.795  17.644  0.00  0.00    +0.000 A 
ATOM     19  C   UNL     1       4.734   4.838  18.341  0.00  0.00    +0.000 A 
ATOM     20  C   UNL     1       3.939   5.909  18.790  0.00  0.00    +0.000 A 
BRANCH  19  21
ATOM     21  C   UNL     1       6.174   4.846  18.603  0.00  0.00    +0.000 A 
ATOM     22  N   UNL     1       6.801   5.369  19.641  0.00  0.00    +0.000 NA
ATOM     23  N   UNL     1       8.143   5.145  19.447  0.00  0.00    +0.000 NA
ATOM     24  N   UNL     1       8.353   4.498  18.311  0.00  0.00    +0.000 NA
ATOM     25  N   UNL     1       7.138   4.313  17.789  0.00  0.00    +0.000 N 
ATOM     26  H   UNL     1       7.050   3.838  16.900  0.00  0.00    +0.000 HD
ENDBRANCH  19  21
ENDBRANCH   3  15
TORSDOF 3
ENDMDL
MODEL 3
REMARK VINA RESULT:      -8.4      6.242      7.608
REMARK  Name = 
REMARK  3 active torsions:
REMARK  status: ('A' for Active; 'I' for Inactive)
REMARK    1  A    between atoms: C_2  and  C_15
REMARK    2  A    between atoms: N_3  and  C_4
REMARK    3  A    between atoms: C_8  and  C_9
REMARK                            x       y       z     vdW  Elec       q    Type
REMARK                         _______ _______ _______ _____ _____    ______ ____
ROOT
ATOM      1  O   UNL     1       2.500   8.616  17.415  0.00  0.00    +0.000 OA
ATOM      2  C   UNL     1       1.947   8.275  18.455  0.00  0.00    +0.000 C 
ATOM      3  N   UNL     1       1.895   6.985  18.958  0.00  0.00    +0.000 N 
ATOM      4  H   UNL     1       1.373   6.891  19.823  0.00  0.00    +0.000 HD
ENDROOT
BRANCH   2   5
ATOM      5  C   UNL     1       1.297   9.233  19.331  0.00  0.00    +0.000 A 
ATOM      6  C   UNL     1       0.874   9.137  20.644  0.00  0.00    +0.000 A 
ATOM      7  C   UNL     1       0.150  10.325  20.932  0.00  0.00    +0.000 A 
ATOM      8  C   UNL     1      -0.594  10.812  22.022  0.00  0.00    +0.000 A 
ATOM      9  C   UNL     1      -1.250  12.044  21.877  0.00  0.00    +0.000 A 
ATOM     10 BR   UNL     1      -2.343  12.679  23.286  0.00  0.00    +0.000 Br
ATOM     11  C   UNL     1      -1.140  12.800  20.706  0.00  0.00    +0.000 A 
ATOM     12  C   UNL     1      -0.373  12.346  19.630  0.00  0.00    +0.000 A 
ATOM     13  C   UNL     1       0.232  11.101  19.783  0.00  0.00    +0.000 A 
ATOM     14  O   UNL     1       0.949  10.459  18.825  0.00  0.00    +0.000 OA
ENDBRANCH   2   5
BRANCH   3  15
ATOM     15  C   UNL     1       2.527   5.826  18.467  0.00  0.00    +0.000 A 
ATOM     16  C   UNL     1       1.848   4.778  17.850  0.00  0.00    +0.000 A 
ATOM     17  C   UNL     1       2.547   3.674  17.364  0.00  0.00    +0.000 A 
ATOM     18  C   UNL     1       3.936   3.605  17.486  0.00  0.00    +0.000 A 
ATOM     19  C   UNL     1       4.645   4.644  18.100  0.00  0.00    +0.000 A 
ATOM     20  C   UNL     1       3.922   5.747  18.593  0.00  0.00    +0.000 A 
BRANCH  19  21
ATOM     21  C   UNL     1       6.102   4.617  18.232  0.00  0.00    +0.000 A 
ATOM     22  N   UNL     1       6.826   5.034  19.256  0.00  0.00    +0.000 NA
ATOM     23  N   UNL     1       8.142   4.819  18.922  0.00  0.00    +0.000 NA
ATOM     24  N   UNL     1       8.241   4.282  17.717  0.00  0.00    +0.000 NA
ATOM     25  N   UNL     1       6.982   4.156  17.289  0.00  0.00    +0.000 N 
ATOM     26  H   UNL     1       6.808   3.768  16.371  0.00  0.00    +0.000 HD
ENDBRANCH  19  21
ENDBRANCH   3  15
TORSDOF 3
ENDMDL
MODEL 4
REMARK VINA RESULT:      -8.3      5.936      7.170
REMARK  Name = 
REMARK  3 active torsions:
REMARK  status: ('A' for Active; 'I' for Inactive)
REMARK    1  A    between atoms: C_2  and  C_15
REMARK    2  A    between atoms: N_3  and  C_4
REMARK    3  A    between atoms: C_8  and  C_9
REMARK                            x       y       z     vdW  Elec       q    Type
REMARK                         _______ _______ _______ _____ _____    ______ ____
ROOT
ATOM      1  O   UNL     1       1.835   7.649  20.519  0.00  0.00    +0.000 OA
ATOM      2  C   UNL     1       1.764   8.165  19.409  0.00  0.00    +0.000 C 
ATOM      3  N   UNL     1       2.136   7.569  18.215  0.00  0.00    +0.000 N 
ATOM      4  H   UNL     1       2.026   8.161  17.398  0.00  0.00    +0.000 HD
ENDROOT
BRANCH   2   5
ATOM      5  C   UNL     1       1.220   9.497  19.213  0.00  0.00    +0.000 A 
ATOM      6  C   UNL     1       1.711  10.599  18.537  0.00  0.00    +0.000 A 
ATOM      7  C   UNL     1       0.837  11.682  18.824  0.00  0.00    +0.000 A 
ATOM      8  C   UNL     1       0.808  13.058  18.533  0.00  0.00    +0.000 A 
ATOM      9  C   UNL     1      -0.223  13.830  19.090  0.00  0.00    +0.000 A 
ATOM     10 BR   UNL     1      -0.232  15.701  18.803  0.00  0.00    +0.000 Br
ATOM     11  C   UNL     1      -1.226  13.256  19.876  0.00  0.00    +0.000 A 
ATOM     12  C   UNL     1      -1.231  11.884  20.142  0.00  0.00    +0.000 A 
ATOM     13  C   UNL     1      -0.174  11.148  19.613  0.00  0.00    +0.000 A 
ATOM     14  O   UNL     1       0.037   9.823  19.826  0.00  0.00    +0.000 OA
ENDBRANCH   2   5
BRANCH   3  15
ATOM     15  C   UNL     1       2.568   6.248  17.991  0.00  0.00    +0.000 A 
ATOM     16  C   UNL     1       1.711   5.151  17.953  0.00  0.00    +0.000 A 
ATOM     17  C   UNL     1       2.211   3.874  17.699  0.00  0.00    +0.000 A 
ATOM     18  C   UNL     1       3.575   3.679  17.477  0.00  0.00    +0.000 A 
ATOM     19  C   UNL     1       4.460   4.763  17.509  0.00  0.00    +0.000 A 
ATOM     20  C   UNL     1       3.939   6.043  17.775  0.00  0.00    +0.000 A 
BRANCH  19  21
ATOM     21  C   UNL     1       5.894   4.601  17.265  0.00  0.00    +0.000 A 
ATOM     22  N   UNL     1       6.529   4.690  16.109  0.00  0.00    +0.000 NA
ATOM     23  N   UNL     1       7.858   4.453  16.371  0.00  0.00    +0.000 NA
ATOM     24  N   UNL     1       8.050   4.218  17.659  0.00  0.00    +0.000 NA
ATOM     25  N   UNL     1       6.839   4.310  18.212  0.00  0.00    +0.000 N 
ATOM     26  H   UNL     1       6.737   4.158  19.207  0.00  0.00    +0.000 HD
ENDBRANCH  19  21
ENDBRANCH   3  15
TORSDOF 3
ENDMDL
MODEL 5
REMARK VINA RESULT:      -8.2      6.122      7.557
REMARK  Name = 
REMARK  3 active torsions:
REMARK  status: ('A' for Active; 'I' for Inactive)
REMARK    1  A    between atoms: C_2  and  C_15
REMARK    2  A    between atoms: N_3  and  C_4
REMARK    3  A    between atoms: C_8  and  C_9
REMARK                            x       y       z     vdW  Elec       q    Type
REMARK                         _______ _______ _______ _____ _____    ______ ____
ROOT
ATOM      1  O   UNL     1       1.750   6.273  21.257  0.00  0.00    +0.000 OA
ATOM      2  C   UNL     1       1.716   7.179  20.432  0.00  0.00    +0.000 C 
ATOM      3  N   UNL     1       2.119   7.086  19.109  0.00  0.00    +0.000 N 
ATOM      4  H   UNL     1       2.037   7.949  18.583  0.00  0.00    +0.000 HD
ENDROOT
BRANCH   2   5
ATOM      5  C   UNL     1       1.186   8.493  20.754  0.00  0.00    +0.000 A 
ATOM      6  C   UNL     1       0.695   9.020  21.934  0.00  0.00    +0.000 A 
ATOM      7  C   UNL     1       0.155  10.297  21.621  0.00  0.00    +0.000 A 
ATOM      8  C   UNL     1      -0.551  11.292  22.321  0.00  0.00    +0.000 A 
ATOM      9  C   UNL     1      -0.996  12.414  21.607  0.00  0.00    +0.000 A 
ATOM     10 BR   UNL     1      -2.037  13.721  22.496  0.00  0.00    +0.000 Br
ATOM     11  C   UNL     1      -0.715  12.577  20.247  0.00  0.00    +0.000 A 
ATOM     12  C   UNL     1       0.019  11.615  19.547  0.00  0.00    +0.000 A 
ATOM     13  C   UNL     1       0.411  10.491  20.269  0.00  0.00    +0.000 A 
ATOM     14  O   UNL     1       1.060   9.417  19.749  0.00  0.00    +0.000 OA
ENDBRANCH   2   5
BRANCH   3  15
ATOM     15  C   UNL     1       2.549   5.946  18.402  0.00  0.00    +0.000 A 
ATOM     16  C   UNL     1       1.758   4.817  18.202  0.00  0.00    +0.000 A 
ATOM     17  C   UNL     1       2.245   3.737  17.467  0.00  0.00    +0.000 A 
ATOM     18  C   UNL     1       3.528   3.774  16.919  0.00  0.00    +0.000 A 
ATOM     19  C   UNL     1       4.344   4.895  17.103  0.00  0.00    +0.000 A 
ATOM     20  C   UNL     1       3.841   5.973  17.855  0.00  0.00    +0.000 A 
BRANCH  19  21
ATOM     21  C   UNL     1       5.689   4.978  16.531  0.00  0.00    +0.000 A 
ATOM     22  N   UNL     1       6.114   5.802  15.589  0.00  0.00    +0.000 NA
ATOM     23  N   UNL     1       7.438   5.503  15.371  0.00  0.00    +0.000 NA
ATOM     24  N   UNL     1       7.833   4.514  16.156  0.00  0.00    +0.000 NA
ATOM     25  N   UNL     1       6.754   4.189  16.873  0.00  0.00    +0.000 N 
ATOM     26  H   UNL     1       6.817   3.437  17.548  0.00  0.00    +0.000 HD
ENDBRANCH  19  21
ENDBRANCH   3  15
TORSDOF 3
ENDMDL
MODEL 6
REMARK VINA RESULT:      -8.2      5.964      7.464
REMARK  Name = 
REMARK  3 active torsions:
REMARK  status: ('A' for Active; 'I' for Inactive)
REMARK    1  A    between atoms: C_2  and  C_15
REMARK    2  A    between atoms: N_3  and  C_4
REMARK    3  A    between atoms: C_8  and  C_9
REMARK                            x       y       z     vdW  Elec       q    Type
REMARK                         _______ _______ _______ _____ _____    ______ ____
ROOT
ATOM      1  O   UNL     1       2.833   8.639  17.756  0.00  0.00    +0.000 OA
ATOM      2  C   UNL     1       1.991   8.213  18.539  0.00  0.00    +0.000 C 
ATOM      3  N   UNL     1       1.685   6.879  18.752  0.00  0.00    +0.000 N 
ATOM      4  H   UNL     1       0.942   6.719  19.424  0.00  0.00    +0.000 HD
ENDROOT
BRANCH   2   5
ATOM      5  C   UNL     1       1.220   9.097  19.395  0.00  0.00    +0.000 A 
ATOM      6  C   UNL     1       0.926  10.445  19.296  0.00  0.00    +0.000 A 
ATOM      7  C   UNL     1       0.281  10.816  20.507  0.00  0.00    +0.000 A 
ATOM      8  C   UNL     1      -0.187  12.015  21.073  0.00  0.00    +0.000 A 
ATOM      9  C   UNL     1      -0.709  11.973  22.375  0.00  0.00    +0.000 A 
ATOM     10 BR   UNL     1      -1.251  13.587  23.204  0.00  0.00    +0.000 Br
ATOM     11  C   UNL     1      -0.811  10.774  23.086  0.00  0.00    +0.000 A 
ATOM     12  C   UNL     1      -0.385   9.568  22.521  0.00  0.00    +0.000 A 
ATOM     13  C   UNL     1       0.169   9.644  21.246  0.00  0.00    +0.000 A 
ATOM     14  O   UNL     1       0.707   8.599  20.566  0.00  0.00    +0.000 OA
ENDBRANCH   2   5
BRANCH   3  15
ATOM     15  C   UNL     1       2.315   5.739  18.217  0.00  0.00    +0.000 A 
ATOM     16  C   UNL     1       1.694   4.498  18.094  0.00  0.00    +0.000 A 
ATOM     17  C   UNL     1       2.376   3.422  17.528  0.00  0.00    +0.000 A 
ATOM     18  C   UNL     1       3.687   3.573  17.074  0.00  0.00    +0.000 A 
ATOM     19  C   UNL     1       4.336   4.808  17.183  0.00  0.00    +0.000 A 
ATOM     20  C   UNL     1       3.636   5.882  17.765  0.00  0.00    +0.000 A 
BRANCH  19  21
ATOM     21  C   UNL     1       5.704   5.011  16.704  0.00  0.00    +0.000 A 
ATOM     22  N   UNL     1       6.192   6.072  16.086  0.00  0.00    +0.000 NA
ATOM     23  N   UNL     1       7.513   5.802  15.820  0.00  0.00    +0.000 NA
ATOM     24  N   UNL     1       7.845   4.598  16.259  0.00  0.00    +0.000 NA
ATOM     25  N   UNL     1       6.729   4.109  16.805  0.00  0.00    +0.000 N 
ATOM     26  H   UNL     1       6.741   3.180  17.207  0.00  0.00    +0.000 HD
ENDBRANCH  19  21
ENDBRANCH   3  15
TORSDOF 3
ENDMDL
MODEL 7
REMARK VINA RESULT:      -8.1      6.154      7.627
REMARK  Name = 
REMARK  3 active torsions:
REMARK  status: ('A' for Active; 'I' for Inactive)
REMARK    1  A    between atoms: C_2  and  C_15
REMARK    2  A    between atoms: N_3  and  C_4
REMARK    3  A    between atoms: C_8  and  C_9
REMARK                            x       y       z     vdW  Elec       q    Type
REMARK                         _______ _______ _______ _____ _____    ______ ____
ROOT
ATOM      1  O   UNL     1       2.477   8.121  18.134  0.00  0.00    +0.000 OA
ATOM      2  C   UNL     1       2.001   7.898  19.242  0.00  0.00    +0.000 C 
ATOM      3  N   UNL     1       2.181   6.741  19.983  0.00  0.00    +0.000 N 
ATOM      4  H   UNL     1       1.690   6.729  20.870  0.00  0.00    +0.000 HD
ENDROOT
BRANCH   2   5
ATOM      5  C   UNL     1       1.198   8.882  19.946  0.00  0.00    +0.000 A 
ATOM      6  C   UNL     1       0.972  10.225  19.705  0.00  0.00    +0.000 A 
ATOM      7  C   UNL     1       0.241  10.726  20.816  0.00  0.00    +0.000 A 
ATOM      8  C   UNL     1      -0.222  11.987  21.232  0.00  0.00    +0.000 A 
ATOM      9  C   UNL     1      -0.856  12.080  22.479  0.00  0.00    +0.000 A 
ATOM     10 BR   UNL     1      -1.399  13.780  23.114  0.00  0.00    +0.000 Br
ATOM     11  C   UNL     1      -1.072  10.954  23.279  0.00  0.00    +0.000 A 
ATOM     12  C   UNL     1      -0.652   9.688  22.861  0.00  0.00    +0.000 A 
ATOM     13  C   UNL     1       0.014   9.630  21.639  0.00  0.00    +0.000 A 
ATOM     14  O   UNL     1       0.564   8.510  21.103  0.00  0.00    +0.000 OA
ENDBRANCH   2   5
BRANCH   3  15
ATOM     15  C   UNL     1       3.005   5.636  19.696  0.00  0.00    +0.000 A 
ATOM     16  C   UNL     1       2.808   4.366  20.232  0.00  0.00    +0.000 A 
ATOM     17  C   UNL     1       3.651   3.313  19.878  0.00  0.00    +0.000 A 
ATOM     18  C   UNL     1       4.699   3.516  18.980  0.00  0.00    +0.000 A 
ATOM     19  C   UNL     1       4.920   4.781  18.423  0.00  0.00    +0.000 A 
ATOM     20  C   UNL     1       4.066   5.834  18.799  0.00  0.00    +0.000 A 
BRANCH  19  21
ATOM     21  C   UNL     1       5.998   5.030  17.465  0.00  0.00    +0.000 A 
ATOM     22  N   UNL     1       6.304   6.172  16.876  0.00  0.00    +0.000 NA
ATOM     23  N   UNL     1       7.377   5.918  16.055  0.00  0.00    +0.000 NA
ATOM     24  N   UNL     1       7.733   4.646  16.126  0.00  0.00    +0.000 NA
ATOM     25  N   UNL     1       6.883   4.096  16.997  0.00  0.00    +0.000 N 
ATOM     26  H   UNL     1       6.960   3.109  17.207  0.00  0.00    +0.000 HD
ENDBRANCH  19  21
ENDBRANCH   3  15
TORSDOF 3
ENDMDL
MODEL 8
REMARK VINA RESULT:      -8.1      6.356      7.898
REMARK  Name = 
REMARK  3 active torsions:
REMARK  status: ('A' for Active; 'I' for Inactive)
REMARK    1  A    between atoms: C_2  and  C_15
REMARK    2  A    between atoms: N_3  and  C_4
REMARK    3  A    between atoms: C_8  and  C_9
REMARK                            x       y       z     vdW  Elec       q    Type
REMARK                         _______ _______ _______ _____ _____    ______ ____
ROOT
ATOM      1  O   UNL     1       2.406   8.066  18.359  0.00  0.00    +0.000 OA
ATOM      2  C   UNL     1       1.989   7.843  19.490  0.00  0.00    +0.000 C 
ATOM      3  N   UNL     1       2.200   6.682  20.217  0.00  0.00    +0.000 N 
ATOM      4  H   UNL     1       1.757   6.671  21.130  0.00  0.00    +0.000 HD
ENDROOT
BRANCH   2   5
ATOM      5  C   UNL     1       1.232   8.831  20.239  0.00  0.00    +0.000 A 
ATOM      6  C   UNL     1       0.738   8.823  21.531  0.00  0.00    +0.000 A 
ATOM      7  C   UNL     1      -0.071   9.982  21.670  0.00  0.00    +0.000 A 
ATOM      8  C   UNL     1      -0.906  10.515  22.668  0.00  0.00    +0.000 A 
ATOM      9  C   UNL     1      -1.623  11.685  22.377  0.00  0.00    +0.000 A 
ATOM     10 BR   UNL     1      -2.834  12.369  23.661  0.00  0.00    +0.000 Br
ATOM     11  C   UNL     1      -1.487  12.342  21.151  0.00  0.00    +0.000 A 
ATOM     12  C   UNL     1      -0.631  11.846  20.163  0.00  0.00    +0.000 A 
ATOM     13  C   UNL     1       0.035  10.660  20.461  0.00  0.00    +0.000 A 
ATOM     14  O   UNL     1       0.844   9.983  19.606  0.00  0.00    +0.000 OA
ENDBRANCH   2   5
BRANCH   3  15
ATOM     15  C   UNL     1       2.998   5.572  19.883  0.00  0.00    +0.000 A 
ATOM     16  C   UNL     1       2.768   4.283  20.359  0.00  0.00    +0.000 A 
ATOM     17  C   UNL     1       3.587   3.228  19.960  0.00  0.00    +0.000 A 
ATOM     18  C   UNL     1       4.646   3.446  19.078  0.00  0.00    +0.000 A 
ATOM     19  C   UNL     1       4.900   4.730  18.582  0.00  0.00    +0.000 A 
ATOM     20  C   UNL     1       4.069   5.786  19.002  0.00  0.00    +0.000 A 
BRANCH  19  21
ATOM     21  C   UNL     1       5.990   4.997  17.643  0.00  0.00    +0.000 A 
ATOM     22  N   UNL     1       6.342   6.162  17.127  0.00  0.00    +0.000 NA
ATOM     23  N   UNL     1       7.407   5.918  16.292  0.00  0.00    +0.000 NA
ATOM     24  N   UNL     1       7.714   4.631  16.283  0.00  0.00    +0.000 NA
ATOM     25  N   UNL     1       6.840   4.061  17.117  0.00  0.00    +0.000 N 
ATOM     26  H   UNL     1       6.879   3.061  17.265  0.00  0.00    +0.000 HD
ENDBRANCH  19  21
ENDBRANCH   3  15
TORSDOF 3
ENDMDL
MODEL 9
REMARK VINA RESULT:      -8.0      5.993      7.441
REMARK  Name = 
REMARK  3 active torsions:
REMARK  status: ('A' for Active; 'I' for Inactive)
REMARK    1  A    between atoms: C_2  and  C_15
REMARK    2  A    between atoms: N_3  and  C_4
REMARK    3  A    between atoms: C_8  and  C_9
REMARK                            x       y       z     vdW  Elec       q    Type
REMARK                         _______ _______ _______ _____ _____    ______ ____
ROOT
ATOM      1  O   UNL     1       1.907   6.254  21.167  0.00  0.00    +0.000 OA
ATOM      2  C   UNL     1       1.734   7.096  20.293  0.00  0.00    +0.000 C 
ATOM      3  N   UNL     1       2.046   6.945  18.951  0.00  0.00    +0.000 N 
ATOM      4  H   UNL     1       1.852   7.761  18.380  0.00  0.00    +0.000 HD
ENDROOT
BRANCH   2   5
ATOM      5  C   UNL     1       1.119   8.381  20.573  0.00  0.00    +0.000 A 
ATOM      6  C   UNL     1       1.241   9.612  19.955  0.00  0.00    +0.000 A 
ATOM      7  C   UNL     1       0.541  10.550  20.761  0.00  0.00    +0.000 A 
ATOM      8  C   UNL     1       0.349  11.943  20.750  0.00  0.00    +0.000 A 
ATOM      9  C   UNL     1      -0.367  12.521  21.808  0.00  0.00    +0.000 A 
ATOM     10 BR   UNL     1      -0.555  14.403  21.878  0.00  0.00    +0.000 Br
ATOM     11  C   UNL     1      -0.921  11.743  22.829  0.00  0.00    +0.000 A 
ATOM     12  C   UNL     1      -0.771  10.353  22.833  0.00  0.00    +0.000 A 
ATOM     13  C   UNL     1      -0.019   9.810  21.795  0.00  0.00    +0.000 A 
ATOM     14  O   UNL     1       0.302   8.497  21.668  0.00  0.00    +0.000 OA
ENDBRANCH   2   5
BRANCH   3  15
ATOM     15  C   UNL     1       2.520   5.799  18.285  0.00  0.00    +0.000 A 
ATOM     16  C   UNL     1       1.782   4.626  18.147  0.00  0.00    +0.000 A 
ATOM     17  C   UNL     1       2.309   3.540  17.449  0.00  0.00    +0.000 A 
ATOM     18  C   UNL     1       3.579   3.615  16.876  0.00  0.00    +0.000 A 
ATOM     19  C   UNL     1       4.343   4.782  16.997  0.00  0.00    +0.000 A 
ATOM     20  C   UNL     1       3.799   5.864  17.713  0.00  0.00    +0.000 A 
BRANCH  19  21
ATOM     21  C   UNL     1       5.672   4.905  16.397  0.00  0.00    +0.000 A 
ATOM     22  N   UNL     1       6.788   4.311  16.782  0.00  0.00    +0.000 NA
ATOM     23  N   UNL     1       7.777   4.738  15.928  0.00  0.00    +0.000 NA
ATOM     24  N   UNL     1       7.293   5.582  15.031  0.00  0.00    +0.000 NA
ATOM     25  N   UNL     1       5.994   5.686  15.319  0.00  0.00    +0.000 N 
ATOM     26  H   UNL     1       5.411   6.295  14.760  0.00  0.00    +0.000 HD
ENDBRANCH  19  21
ENDBRANCH   3  15
TORSDOF 3
ENDMDL
