MODEL 1
REMARK VINA RESULT:      -8.3      0.000      0.000
REMARK  Name = 
REMARK  3 active torsions:
REMARK  status: ('A' for Active; 'I' for Inactive)
REMARK    1  A    between atoms: C_1  and  C_2
REMARK    2  A    between atoms: C_2  and  C_3
REMARK    3  A    between atoms: C_8  and  C_9
REMARK                            x       y       z     vdW  Elec       q    Type
REMARK                         _______ _______ _______ _____ _____    ______ ____
ROOT
ATOM      1  C   UNL     1       2.534   7.117  19.099  0.00  0.00    +0.000 A 
ATOM      2  C   UNL     1       2.667   7.790  17.888  0.00  0.00    +0.000 A 
ATOM      3  C   UNL     1       2.137   9.071  17.755  0.00  0.00    +0.000 A 
ATOM      4  C   UNL     1       1.454   9.665  18.815  0.00  0.00    +0.000 A 
ATOM      5  N   UNL     1       0.932  10.950  18.628  0.00  0.00    +0.000 N 
ATOM      6  C   UNL     1      -0.208  11.308  19.474  0.00  0.00    +0.000 C 
ATOM      7  C   UNL     1      -0.735  12.696  19.080  0.00  0.00    +0.000 C 
ATOM      8  C   UNL     1       0.362  13.705  19.297  0.00  0.00    +0.000 A 
ATOM      9  C   UNL     1       0.101  14.980  19.810  0.00  0.00    +0.000 A 
ATOM     10  C   UNL     1       1.152  15.870  20.027  0.00  0.00    +0.000 A 
ATOM     11  C   UNL     1       2.459  15.497  19.720  0.00  0.00    +0.000 A 
ATOM     12  C   UNL     1       2.720  14.235  19.183  0.00  0.00    +0.000 A 
ATOM     13  C   UNL     1       1.673  13.326  18.968  0.00  0.00    +0.000 A 
ATOM     14  C   UNL     1       1.939  11.980  18.322  0.00  0.00    +0.000 C 
ATOM     15  N   UNL     1       1.279   9.001  19.980  0.00  0.00    +0.000 NA
ATOM     16  C   UNL     1       1.823   7.755  20.105  0.00  0.00    +0.000 A 
ENDROOT
BRANCH   1  22
ATOM     17  C   UNL     1       2.962   3.530  19.810  0.00  0.00    +0.000 A 
ATOM     18  C   UNL     1       4.251   3.296  19.534  0.00  0.00    +0.000 A 
ATOM     19  C   UNL     1       5.088   4.428  19.122  0.00  0.00    +0.000 A 
ATOM     20  O   UNL     1       6.287   4.305  18.907  0.00  0.00    +0.000 OA
ATOM     21  N   UNL     1       4.435   5.617  19.006  0.00  0.00    +0.000 N 
ATOM     22  C   UNL     1       3.100   5.758  19.293  0.00  0.00    +0.000 A 
ATOM     23  N   UNL     1       2.367   4.772  19.710  0.00  0.00    +0.000 NA
ATOM     24  H   UNL     1       5.021   6.399  18.759  0.00  0.00    +0.000 HD
BRANCH  17  26
ATOM     25  C   UNL     1       1.397   2.693  21.613  0.00  0.00    +0.000 C 
ATOM     26  C   UNL     1       2.069   2.401  20.278  0.00  0.00    +0.000 C 
ENDBRANCH  17  26
ENDBRANCH   1  22
TORSDOF 2
ENDMDL
MODEL 2
REMARK VINA RESULT:      -8.0      1.405      2.047
REMARK  Name = 
REMARK  3 active torsions:
REMARK  status: ('A' for Active; 'I' for Inactive)
REMARK    1  A    between atoms: C_1  and  C_2
REMARK    2  A    between atoms: C_2  and  C_3
REMARK    3  A    between atoms: C_8  and  C_9
REMARK                            x       y       z     vdW  Elec       q    Type
REMARK                         _______ _______ _______ _____ _____    ______ ____
ROOT
ATOM      1  C   UNL     1       2.146   7.237  19.280  0.00  0.00    +0.000 A 
ATOM      2  C   UNL     1       2.298   7.834  18.032  0.00  0.00    +0.000 A 
ATOM      3  C   UNL     1       1.949   9.173  17.866  0.00  0.00    +0.000 A 
ATOM      4  C   UNL     1       1.426   9.901  18.934  0.00  0.00    +0.000 A 
ATOM      5  N   UNL     1       1.082  11.240  18.714  0.00  0.00    +0.000 N 
ATOM      6  C   UNL     1       0.060  11.794  19.604  0.00  0.00    +0.000 C 
ATOM      7  C   UNL     1      -0.287  13.227  19.173  0.00  0.00    +0.000 C 
ATOM      8  C   UNL     1       0.954  14.073  19.279  0.00  0.00    +0.000 A 
ATOM      9  C   UNL     1       0.911  15.392  19.743  0.00  0.00    +0.000 A 
ATOM     10  C   UNL     1       2.089  16.128  19.857  0.00  0.00    +0.000 A 
ATOM     11  C   UNL     1       3.308  15.557  19.495  0.00  0.00    +0.000 A 
ATOM     12  C   UNL     1       3.352  14.250  19.006  0.00  0.00    +0.000 A 
ATOM     13  C   UNL     1       2.174  13.495  18.895  0.00  0.00    +0.000 A 
ATOM     14  C   UNL     1       2.204  12.100  18.301  0.00  0.00    +0.000 C 
ATOM     15  N   UNL     1       1.231   9.318  20.137  0.00  0.00    +0.000 NA
ATOM     16  C   UNL     1       1.598   8.011  20.292  0.00  0.00    +0.000 A 
ENDROOT
BRANCH   1  22
ATOM     17  C   UNL     1       3.476   3.824  18.906  0.00  0.00    +0.000 A 
ATOM     18  C   UNL     1       3.230   3.248  20.089  0.00  0.00    +0.000 A 
ATOM     19  C   UNL     1       2.511   4.028  21.103  0.00  0.00    +0.000 A 
ATOM     20  O   UNL     1       2.201   3.553  22.187  0.00  0.00    +0.000 OA
ATOM     21  N   UNL     1       2.213   5.306  20.744  0.00  0.00    +0.000 N 
ATOM     22  C   UNL     1       2.524   5.819  19.508  0.00  0.00    +0.000 A 
ATOM     23  N   UNL     1       3.112   5.117  18.589  0.00  0.00    +0.000 NA
ATOM     24  H   UNL     1       1.687   5.827  21.428  0.00  0.00    +0.000 HD
BRANCH  17  26
ATOM     25  C   UNL     1       4.675   3.932  16.680  0.00  0.00    +0.000 C 
ATOM     26  C   UNL     1       4.179   3.046  17.814  0.00  0.00    +0.000 C 
ENDBRANCH  17  26
ENDBRANCH   1  22
TORSDOF 2
ENDMDL
MODEL 3
REMARK VINA RESULT:      -8.0      4.245      5.613
REMARK  Name = 
REMARK  3 active torsions:
REMARK  status: ('A' for Active; 'I' for Inactive)
REMARK    1  A    between atoms: C_1  and  C_2
REMARK    2  A    between atoms: C_2  and  C_3
REMARK    3  A    between atoms: C_8  and  C_9
REMARK                            x       y       z     vdW  Elec       q    Type
REMARK                         _______ _______ _______ _____ _____    ______ ____
ROOT
ATOM      1  C   UNL     1       0.439   9.627  21.222  0.00  0.00    +0.000 A 
ATOM      2  C   UNL     1      -0.160   9.255  22.422  0.00  0.00    +0.000 A 
ATOM      3  C   UNL     1      -0.863  10.205  23.159  0.00  0.00    +0.000 A 
ATOM      4  C   UNL     1      -0.943  11.524  22.715  0.00  0.00    +0.000 A 
ATOM      5  N   UNL     1      -1.652  12.443  23.497  0.00  0.00    +0.000 N 
ATOM      6  C   UNL     1      -1.265  13.847  23.346  0.00  0.00    +0.000 C 
ATOM      7  C   UNL     1      -2.051  14.714  24.340  0.00  0.00    +0.000 C 
ATOM      8  C   UNL     1      -3.520  14.584  24.034  0.00  0.00    +0.000 A 
ATOM      9  C   UNL     1      -4.390  15.677  24.107  0.00  0.00    +0.000 A 
ATOM     10  C   UNL     1      -5.736  15.518  23.783  0.00  0.00    +0.000 A 
ATOM     11  C   UNL     1      -6.219  14.268  23.399  0.00  0.00    +0.000 A 
ATOM     12  C   UNL     1      -5.360  13.169  23.351  0.00  0.00    +0.000 A 
ATOM     13  C   UNL     1      -4.001  13.317  23.667  0.00  0.00    +0.000 A 
ATOM     14  C   UNL     1      -3.076  12.116  23.683  0.00  0.00    +0.000 C 
ATOM     15  N   UNL     1      -0.325  11.906  21.575  0.00  0.00    +0.000 NA
ATOM     16  C   UNL     1       0.342  10.960  20.850  0.00  0.00    +0.000 A 
ENDROOT
BRANCH   1  22
ATOM     17  C   UNL     1       2.098   6.587  19.973  0.00  0.00    +0.000 A 
ATOM     18  C   UNL     1       2.485   6.913  18.733  0.00  0.00    +0.000 A 
ATOM     19  C   UNL     1       2.227   8.280  18.264  0.00  0.00    +0.000 A 
ATOM     20  O   UNL     1       2.599   8.670  17.166  0.00  0.00    +0.000 OA
ATOM     21  N   UNL     1       1.555   9.074  19.142  0.00  0.00    +0.000 N 
ATOM     22  C   UNL     1       1.181   8.644  20.392  0.00  0.00    +0.000 A 
ATOM     23  N   UNL     1       1.453   7.454  20.832  0.00  0.00    +0.000 NA
ATOM     24  H   UNL     1       1.413  10.023  18.832  0.00  0.00    +0.000 HD
BRANCH  17  26
ATOM     25  C   UNL     1       1.157   4.292  20.474  0.00  0.00    +0.000 C 
ATOM     26  C   UNL     1       2.378   5.202  20.515  0.00  0.00    +0.000 C 
ENDBRANCH  17  26
ENDBRANCH   1  22
TORSDOF 2
ENDMDL
MODEL 4
REMARK VINA RESULT:      -7.9      2.034      2.754
REMARK  Name = 
REMARK  3 active torsions:
REMARK  status: ('A' for Active; 'I' for Inactive)
REMARK    1  A    between atoms: C_1  and  C_2
REMARK    2  A    between atoms: C_2  and  C_3
REMARK    3  A    between atoms: C_8  and  C_9
REMARK                            x       y       z     vdW  Elec       q    Type
REMARK                         _______ _______ _______ _____ _____    ______ ____
ROOT
ATOM      1  C   UNL     1       2.517   7.261  18.554  0.00  0.00    +0.000 A 
ATOM      2  C   UNL     1       2.231   8.248  17.616  0.00  0.00    +0.000 A 
ATOM      3  C   UNL     1       1.557   9.399  18.017  0.00  0.00    +0.000 A 
ATOM      4  C   UNL     1       1.146   9.549  19.341  0.00  0.00    +0.000 A 
ATOM      5  N   UNL     1       0.463  10.720  19.691  0.00  0.00    +0.000 N 
ATOM      6  C   UNL     1      -0.420  10.623  20.855  0.00  0.00    +0.000 C 
ATOM      7  C   UNL     1      -1.176  11.945  21.048  0.00  0.00    +0.000 C 
ATOM      8  C   UNL     1      -0.173  13.040  21.296  0.00  0.00    +0.000 A 
ATOM      9  C   UNL     1      -0.406  14.060  22.224  0.00  0.00    +0.000 A 
ATOM     10  C   UNL     1       0.566  15.034  22.446  0.00  0.00    +0.000 A 
ATOM     11  C   UNL     1       1.763  15.002  21.733  0.00  0.00    +0.000 A 
ATOM     12  C   UNL     1       1.989  14.002  20.786  0.00  0.00    +0.000 A 
ATOM     13  C   UNL     1       1.023  13.010  20.560  0.00  0.00    +0.000 A 
ATOM     14  C   UNL     1       1.231  11.960  19.485  0.00  0.00    +0.000 C 
ATOM     15  N   UNL     1       1.378   8.576  20.249  0.00  0.00    +0.000 NA
ATOM     16  C   UNL     1       2.060   7.462  19.848  0.00  0.00    +0.000 A 
ENDROOT
BRANCH   1  22
ATOM     17  C   UNL     1       5.146   4.773  17.880  0.00  0.00    +0.000 A 
ATOM     18  C   UNL     1       4.470   3.670  17.533  0.00  0.00    +0.000 A 
ATOM     19  C   UNL     1       3.006   3.750  17.460  0.00  0.00    +0.000 A 
ATOM     20  O   UNL     1       2.322   2.803  17.098  0.00  0.00    +0.000 OA
ATOM     21  N   UNL     1       2.475   4.952  17.816  0.00  0.00    +0.000 N 
ATOM     22  C   UNL     1       3.251   6.026  18.177  0.00  0.00    +0.000 A 
ATOM     23  N   UNL     1       4.548   5.977  18.192  0.00  0.00    +0.000 NA
ATOM     24  H   UNL     1       1.473   5.015  17.728  0.00  0.00    +0.000 HD
BRANCH  17  26
ATOM     25  C   UNL     1       7.259   6.098  18.308  0.00  0.00    +0.000 C 
ATOM     26  C   UNL     1       6.659   4.750  17.930  0.00  0.00    +0.000 C 
ENDBRANCH  17  26
ENDBRANCH   1  22
TORSDOF 2
ENDMDL
MODEL 5
REMARK VINA RESULT:      -7.8      1.620      1.709
REMARK  Name = 
REMARK  3 active torsions:
REMARK  status: ('A' for Active; 'I' for Inactive)
REMARK    1  A    between atoms: C_1  and  C_2
REMARK    2  A    between atoms: C_2  and  C_3
REMARK    3  A    between atoms: C_8  and  C_9
REMARK                            x       y       z     vdW  Elec       q    Type
REMARK                         _______ _______ _______ _____ _____    ______ ____
ROOT
ATOM      1  C   UNL     1       2.493   7.175  18.484  0.00  0.00    +0.000 A 
ATOM      2  C   UNL     1       2.200   8.152  17.538  0.00  0.00    +0.000 A 
ATOM      3  C   UNL     1       1.588   9.336  17.943  0.00  0.00    +0.000 A 
ATOM      4  C   UNL     1       1.245   9.529  19.281  0.00  0.00    +0.000 A 
ATOM      5  N   UNL     1       0.622  10.731  19.636  0.00  0.00    +0.000 N 
ATOM      6  C   UNL     1      -0.209  10.691  20.841  0.00  0.00    +0.000 C 
ATOM      7  C   UNL     1      -0.907  12.045  21.038  0.00  0.00    +0.000 C 
ATOM      8  C   UNL     1       0.147  13.107  21.215  0.00  0.00    +0.000 A 
ATOM      9  C   UNL     1      -0.006  14.153  22.130  0.00  0.00    +0.000 A 
ATOM     10  C   UNL     1       1.010  15.095  22.286  0.00  0.00    +0.000 A 
ATOM     11  C   UNL     1       2.171  15.003  21.520  0.00  0.00    +0.000 A 
ATOM     12  C   UNL     1       2.316  13.976  20.586  0.00  0.00    +0.000 A 
ATOM     13  C   UNL     1       1.305  13.016  20.427  0.00  0.00    +0.000 A 
ATOM     14  C   UNL     1       1.424  11.937  19.367  0.00  0.00    +0.000 C 
ATOM     15  N   UNL     1       1.483   8.566  20.200  0.00  0.00    +0.000 NA
ATOM     16  C   UNL     1       2.104   7.420  19.793  0.00  0.00    +0.000 A 
ENDROOT
BRANCH   1  22
ATOM     17  C   UNL     1       3.250   3.635  17.811  0.00  0.00    +0.000 A 
ATOM     18  C   UNL     1       4.482   3.659  17.287  0.00  0.00    +0.000 A 
ATOM     19  C   UNL     1       5.166   4.954  17.185  0.00  0.00    +0.000 A 
ATOM     20  O   UNL     1       6.313   5.052  16.770  0.00  0.00    +0.000 OA
ATOM     21  N   UNL     1       4.434   6.027  17.593  0.00  0.00    +0.000 N 
ATOM     22  C   UNL     1       3.164   5.906  18.102  0.00  0.00    +0.000 A 
ATOM     23  N   UNL     1       2.575   4.758  18.244  0.00  0.00    +0.000 NA
ATOM     24  H   UNL     1       4.920   6.909  17.557  0.00  0.00    +0.000 HD
BRANCH  17  26
ATOM     25  C   UNL     1       1.248   2.444  18.800  0.00  0.00    +0.000 C 
ATOM     26  C   UNL     1       2.521   2.318  17.973  0.00  0.00    +0.000 C 
ENDBRANCH  17  26
ENDBRANCH   1  22
TORSDOF 2
ENDMDL
MODEL 6
REMARK VINA RESULT:      -7.8      1.835      2.634
REMARK  Name = 
REMARK  3 active torsions:
REMARK  status: ('A' for Active; 'I' for Inactive)
REMARK    1  A    between atoms: C_1  and  C_2
REMARK    2  A    between atoms: C_2  and  C_3
REMARK    3  A    between atoms: C_8  and  C_9
REMARK                            x       y       z     vdW  Elec       q    Type
REMARK                         _______ _______ _______ _____ _____    ______ ____
ROOT
ATOM      1  C   UNL     1       2.520   7.056  18.814  0.00  0.00    +0.000 A 
ATOM      2  C   UNL     1       2.302   8.005  17.820  0.00  0.00    +0.000 A 
ATOM      3  C   UNL     1       1.648   9.193  18.139  0.00  0.00    +0.000 A 
ATOM      4  C   UNL     1       1.189   9.417  19.436  0.00  0.00    +0.000 A 
ATOM      5  N   UNL     1       0.528  10.622  19.703  0.00  0.00    +0.000 N 
ATOM      6  C   UNL     1      -0.405  10.606  20.831  0.00  0.00    +0.000 C 
ATOM      7  C   UNL     1      -1.127  11.957  20.931  0.00  0.00    +0.000 C 
ATOM      8  C   UNL     1      -0.102  13.033  21.171  0.00  0.00    +0.000 A 
ATOM      9  C   UNL     1      -0.341  14.102  22.040  0.00  0.00    +0.000 A 
ATOM     10  C   UNL     1       0.650  15.058  22.258  0.00  0.00    +0.000 A 
ATOM     11  C   UNL     1       1.874  14.958  21.598  0.00  0.00    +0.000 A 
ATOM     12  C   UNL     1       2.107  13.907  20.709  0.00  0.00    +0.000 A 
ATOM     13  C   UNL     1       1.121  12.934  20.488  0.00  0.00    +0.000 A 
ATOM     14  C   UNL     1       1.341  11.829  19.472  0.00  0.00    +0.000 C 
ATOM     15  N   UNL     1       1.353   8.482  20.397  0.00  0.00    +0.000 NA
ATOM     16  C   UNL     1       2.017   7.332  20.077  0.00  0.00    +0.000 A 
ENDROOT
BRANCH   1  22
ATOM     17  C   UNL     1       4.583   4.426  17.269  0.00  0.00    +0.000 A 
ATOM     18  C   UNL     1       4.552   3.425  18.158  0.00  0.00    +0.000 A 
ATOM     19  C   UNL     1       3.736   3.595  19.366  0.00  0.00    +0.000 A 
ATOM     20  O   UNL     1       3.613   2.705  20.196  0.00  0.00    +0.000 OA
ATOM     21  N   UNL     1       3.127   4.806  19.484  0.00  0.00    +0.000 N 
ATOM     22  C   UNL     1       3.231   5.784  18.525  0.00  0.00    +0.000 A 
ATOM     23  N   UNL     1       3.908   5.620  17.430  0.00  0.00    +0.000 NA
ATOM     24  H   UNL     1       2.537   4.906  20.296  0.00  0.00    +0.000 HD
BRANCH  17  26
ATOM     25  C   UNL     1       5.458   5.575  15.192  0.00  0.00    +0.000 C 
ATOM     26  C   UNL     1       5.378   4.281  15.989  0.00  0.00    +0.000 C 
ENDBRANCH  17  26
ENDBRANCH   1  22
TORSDOF 2
ENDMDL
MODEL 7
REMARK VINA RESULT:      -7.7      1.535      1.554
REMARK  Name = 
REMARK  3 active torsions:
REMARK  status: ('A' for Active; 'I' for Inactive)
REMARK    1  A    between atoms: C_1  and  C_2
REMARK    2  A    between atoms: C_2  and  C_3
REMARK    3  A    between atoms: C_8  and  C_9
REMARK                            x       y       z     vdW  Elec       q    Type
REMARK                         _______ _______ _______ _____ _____    ______ ____
ROOT
ATOM      1  C   UNL     1       2.398   7.139  18.963  0.00  0.00    +0.000 A 
ATOM      2  C   UNL     1       2.248   8.084  17.951  0.00  0.00    +0.000 A 
ATOM      3  C   UNL     1       1.634   9.301  18.237  0.00  0.00    +0.000 A 
ATOM      4  C   UNL     1       1.146   9.561  19.517  0.00  0.00    +0.000 A 
ATOM      5  N   UNL     1       0.528  10.794  19.750  0.00  0.00    +0.000 N 
ATOM      6  C   UNL     1      -0.438  10.830  20.850  0.00  0.00    +0.000 C 
ATOM      7  C   UNL     1      -1.107  12.211  20.912  0.00  0.00    +0.000 C 
ATOM      8  C   UNL     1      -0.046  13.248  21.170  0.00  0.00    +0.000 A 
ATOM      9  C   UNL     1      -0.267  14.336  22.019  0.00  0.00    +0.000 A 
ATOM     10  C   UNL     1       0.755  15.254  22.255  0.00  0.00    +0.000 A 
ATOM     11  C   UNL     1       1.993  15.096  21.633  0.00  0.00    +0.000 A 
ATOM     12  C   UNL     1       2.210  14.026  20.764  0.00  0.00    +0.000 A 
ATOM     13  C   UNL     1       1.192  13.090  20.525  0.00  0.00    +0.000 A 
ATOM     14  C   UNL     1       1.395  11.964  19.529  0.00  0.00    +0.000 C 
ATOM     15  N   UNL     1       1.244   8.631  20.494  0.00  0.00    +0.000 NA
ATOM     16  C   UNL     1       1.869   7.452  20.207  0.00  0.00    +0.000 A 
ENDROOT
BRANCH   1  22
ATOM     17  C   UNL     1       3.649   3.689  19.254  0.00  0.00    +0.000 A 
ATOM     18  C   UNL     1       4.264   3.466  18.085  0.00  0.00    +0.000 A 
ATOM     19  C   UNL     1       4.327   4.565  17.115  0.00  0.00    +0.000 A 
ATOM     20  O   UNL     1       4.919   4.458  16.050  0.00  0.00    +0.000 OA
ATOM     21  N   UNL     1       3.688   5.706  17.493  0.00  0.00    +0.000 N 
ATOM     22  C   UNL     1       3.064   5.836  18.710  0.00  0.00    +0.000 A 
ATOM     23  N   UNL     1       3.051   4.886  19.594  0.00  0.00    +0.000 NA
ATOM     24  H   UNL     1       3.765   6.471  16.841  0.00  0.00    +0.000 HD
BRANCH  17  26
ATOM     25  C   UNL     1       2.487   2.815  21.325  0.00  0.00    +0.000 C 
ATOM     26  C   UNL     1       3.594   2.598  20.302  0.00  0.00    +0.000 C 
ENDBRANCH  17  26
ENDBRANCH   1  22
TORSDOF 2
ENDMDL
MODEL 8
REMARK VINA RESULT:      -7.6      1.266      2.382
REMARK  Name = 
REMARK  3 active torsions:
REMARK  status: ('A' for Active; 'I' for Inactive)
REMARK    1  A    between atoms: C_1  and  C_2
REMARK    2  A    between atoms: C_2  and  C_3
REMARK    3  A    between atoms: C_8  and  C_9
REMARK                            x       y       z     vdW  Elec       q    Type
REMARK                         _______ _______ _______ _____ _____    ______ ____
ROOT
ATOM      1  C   UNL     1       2.602   7.258  19.003  0.00  0.00    +0.000 A 
ATOM      2  C   UNL     1       2.509   8.023  17.844  0.00  0.00    +0.000 A 
ATOM      3  C   UNL     1       1.769   9.204  17.861  0.00  0.00    +0.000 A 
ATOM      4  C   UNL     1       1.104   9.601  19.019  0.00  0.00    +0.000 A 
ATOM      5  N   UNL     1       0.365  10.790  18.982  0.00  0.00    +0.000 N 
ATOM      6  C   UNL     1      -0.732  10.894  19.946  0.00  0.00    +0.000 C 
ATOM      7  C   UNL     1      -1.510  12.196  19.712  0.00  0.00    +0.000 C 
ATOM      8  C   UNL     1      -0.576  13.358  19.920  0.00  0.00    +0.000 A 
ATOM      9  C   UNL     1      -0.988  14.534  20.556  0.00  0.00    +0.000 A 
ATOM     10  C   UNL     1      -0.080  15.572  20.757  0.00  0.00    +0.000 A 
ATOM     11  C   UNL     1       1.236  15.445  20.314  0.00  0.00    +0.000 A 
ATOM     12  C   UNL     1       1.645  14.284  19.655  0.00  0.00    +0.000 A 
ATOM     13  C   UNL     1       0.742  13.229  19.454  0.00  0.00    +0.000 A 
ATOM     14  C   UNL     1       1.159  11.993  18.679  0.00  0.00    +0.000 C 
ATOM     15  N   UNL     1       1.149   8.841  20.136  0.00  0.00    +0.000 NA
ATOM     16  C   UNL     1       1.897   7.698  20.113  0.00  0.00    +0.000 A 
ENDROOT
BRANCH   1  22
ATOM     17  C   UNL     1       5.269   4.746  18.637  0.00  0.00    +0.000 A 
ATOM     18  C   UNL     1       4.775   3.657  19.240  0.00  0.00    +0.000 A 
ATOM     19  C   UNL     1       3.412   3.723  19.781  0.00  0.00    +0.000 A 
ATOM     20  O   UNL     1       2.871   2.754  20.296  0.00  0.00    +0.000 OA
ATOM     21  N   UNL     1       2.801   4.933  19.658  0.00  0.00    +0.000 N 
ATOM     22  C   UNL     1       3.396   6.003  19.037  0.00  0.00    +0.000 A 
ATOM     23  N   UNL     1       4.580   5.936  18.510  0.00  0.00    +0.000 NA
ATOM     24  H   UNL     1       1.851   4.963  19.996  0.00  0.00    +0.000 HD
BRANCH  17  26
ATOM     25  C   UNL     1       7.564   5.809  18.568  0.00  0.00    +0.000 C 
ATOM     26  C   UNL     1       6.655   4.713  18.029  0.00  0.00    +0.000 C 
ENDBRANCH  17  26
ENDBRANCH   1  22
TORSDOF 2
ENDMDL
MODEL 9
REMARK VINA RESULT:      -7.6      1.265      1.327
REMARK  Name = 
REMARK  3 active torsions:
REMARK  status: ('A' for Active; 'I' for Inactive)
REMARK    1  A    between atoms: C_1  and  C_2
REMARK    2  A    between atoms: C_2  and  C_3
REMARK    3  A    between atoms: C_8  and  C_9
REMARK                            x       y       z     vdW  Elec       q    Type
REMARK                         _______ _______ _______ _____ _____    ______ ____
ROOT
ATOM      1  C   UNL     1       2.505   7.358  18.892  0.00  0.00    +0.000 A 
ATOM      2  C   UNL     1       2.399   8.164  17.763  0.00  0.00    +0.000 A 
ATOM      3  C   UNL     1       1.700   9.366  17.843  0.00  0.00    +0.000 A 
ATOM      4  C   UNL     1       1.088   9.746  19.037  0.00  0.00    +0.000 A 
ATOM      5  N   UNL     1       0.389  10.959  19.063  0.00  0.00    +0.000 N 
ATOM      6  C   UNL     1      -0.671  11.066  20.067  0.00  0.00    +0.000 C 
ATOM      7  C   UNL     1      -1.413  12.401  19.903  0.00  0.00    +0.000 C 
ATOM      8  C   UNL     1      -0.433  13.524  20.116  0.00  0.00    +0.000 A 
ATOM      9  C   UNL     1      -0.784  14.690  20.803  0.00  0.00    +0.000 A 
ATOM     10  C   UNL     1       0.165  15.691  21.006  0.00  0.00    +0.000 A 
ATOM     11  C   UNL     1       1.460  15.536  20.513  0.00  0.00    +0.000 A 
ATOM     12  C   UNL     1       1.807  14.385  19.804  0.00  0.00    +0.000 A 
ATOM     13  C   UNL     1       0.864  13.367  19.600  0.00  0.00    +0.000 A 
ATOM     14  C   UNL     1       1.212  12.145  18.772  0.00  0.00    +0.000 C 
ATOM     15  N   UNL     1       1.145   8.948  20.126  0.00  0.00    +0.000 NA
ATOM     16  C   UNL     1       1.853   7.783  20.040  0.00  0.00    +0.000 A 
ENDROOT
BRANCH   1  22
ATOM     17  C   UNL     1       3.489   3.842  18.411  0.00  0.00    +0.000 A 
ATOM     18  C   UNL     1       4.777   3.812  18.777  0.00  0.00    +0.000 A 
ATOM     19  C   UNL     1       5.383   5.050  19.281  0.00  0.00    +0.000 A 
ATOM     20  O   UNL     1       6.537   5.089  19.686  0.00  0.00    +0.000 OA
ATOM     21  N   UNL     1       4.566   6.138  19.271  0.00  0.00    +0.000 N 
ATOM     22  C   UNL     1       3.257   6.077  18.859  0.00  0.00    +0.000 A 
ATOM     23  N   UNL     1       2.700   4.974  18.462  0.00  0.00    +0.000 NA
ATOM     24  H   UNL     1       4.974   6.977  19.654  0.00  0.00    +0.000 HD
BRANCH  17  26
ATOM     25  C   UNL     1       3.548   1.314  18.332  0.00  0.00    +0.000 C 
ATOM     26  C   UNL     1       2.809   2.581  17.923  0.00  0.00    +0.000 C 
ENDBRANCH  17  26
ENDBRANCH   1  22
TORSDOF 2
ENDMDL
