MODEL 1
REMARK VINA RESULT:      -8.5      0.000      0.000
REMARK  Name = 
REMARK  5 active torsions:
REMARK  status: ('A' for Active; 'I' for Inactive)
REMARK    1  A    between atoms: C_1  and  N_2
REMARK    2  A    between atoms: C_6  and  C_7
REMARK    3  A    between atoms: C_7  and  C_8
REMARK    4  A    between atoms: C_12  and  N_13
REMARK    5  A    between atoms: C_21  and  C_22
REMARK                            x       y       z     vdW  Elec       q    Type
REMARK                         _______ _______ _______ _____ _____    ______ ____
ROOT
ATOM      1  N   UNL     1       3.820   4.539  19.078  0.00  0.00    +0.000 N 
ATOM      2  C   UNL     1       5.177   5.075  19.341  0.00  0.00    +0.000 C 
ATOM      3  C   UNL     1       5.807   5.018  17.980  0.00  0.00    +0.000 A 
ATOM      4  C   UNL     1       5.185   3.975  17.282  0.00  0.00    +0.000 A 
ATOM      5  C   UNL     1       5.405   3.730  15.937  0.00  0.00    +0.000 A 
ATOM      6  C   UNL     1       6.277   4.591  15.286  0.00  0.00    +0.000 A 
ATOM      7  F   UNL     1       6.471   4.454  13.968  0.00  0.00    +0.000 F 
ATOM      8  C   UNL     1       6.891   5.661  15.955  0.00  0.00    +0.000 A 
ATOM      9  C   UNL     1       6.662   5.899  17.326  0.00  0.00    +0.000 A 
ATOM     10  C   UNL     1       3.994   3.563  18.066  0.00  0.00    +0.000 C 
ATOM     11  O   UNL     1       3.234   2.670  17.719  0.00  0.00    +0.000 OA
ENDROOT
BRANCH   1  16
ATOM     12  C   UNL     1       1.858   7.508  19.869  0.00  0.00    +0.000 A 
ATOM     13  C   UNL     1       2.435   8.354  18.912  0.00  0.00    +0.000 A 
ATOM     14  C   UNL     1       3.052   7.826  17.780  0.00  0.00    +0.000 A 
ATOM     15  C   UNL     1       3.206   6.452  17.653  0.00  0.00    +0.000 A 
ATOM     16  C   UNL     1       2.906   5.626  18.748  0.00  0.00    +0.000 A 
ATOM     17  C   UNL     1       2.078   6.127  19.764  0.00  0.00    +0.000 A 
BRANCH  12  18
ATOM     18  C   UNL     1       0.984   8.100  20.952  0.00  0.00    +0.000 C 
BRANCH  18  24
ATOM     19  C   UNL     1      -0.901   9.816  19.102  0.00  0.00    +0.000 C 
ATOM     20  N   UNL     1      -0.017  10.299  20.128  0.00  0.00    +0.000 N 
ATOM     21  C   UNL     1       0.101  11.601  20.514  0.00  0.00    +0.000 A 
ATOM     22  N   UNL     1       0.980  11.693  21.481  0.00  0.00    +0.000 NA
ATOM     23  N   UNL     1       1.441  10.427  21.745  0.00  0.00    +0.000 NA
ATOM     24  C   UNL     1       0.835   9.583  20.931  0.00  0.00    +0.000 A 
ENDBRANCH  18  24
ENDBRANCH  12  18
ENDBRANCH   1  16
BRANCH   9  25
ATOM     25  C   UNL     1       7.225   7.145  17.955  0.00  0.00    +0.000 C 
ATOM     26  F   UNL     1       8.240   6.868  18.824  0.00  0.00    +0.000 F 
ATOM     27  F   UNL     1       7.742   8.037  17.068  0.00  0.00    +0.000 F 
ENDBRANCH   9  25
TORSDOF 4
ENDMDL
MODEL 2
REMARK VINA RESULT:      -8.4      0.740      1.105
REMARK  Name = 
REMARK  5 active torsions:
REMARK  status: ('A' for Active; 'I' for Inactive)
REMARK    1  A    between atoms: C_1  and  N_2
REMARK    2  A    between atoms: C_6  and  C_7
REMARK    3  A    between atoms: C_7  and  C_8
REMARK    4  A    between atoms: C_12  and  N_13
REMARK    5  A    between atoms: C_21  and  C_22
REMARK                            x       y       z     vdW  Elec       q    Type
REMARK                         _______ _______ _______ _____ _____    ______ ____
ROOT
ATOM      1  N   UNL     1       3.931   4.317  19.067  0.00  0.00    +0.000 N 
ATOM      2  C   UNL     1       5.283   4.862  19.331  0.00  0.00    +0.000 C 
ATOM      3  C   UNL     1       5.896   4.856  17.961  0.00  0.00    +0.000 A 
ATOM      4  C   UNL     1       5.279   3.828  17.237  0.00  0.00    +0.000 A 
ATOM      5  C   UNL     1       5.485   3.628  15.883  0.00  0.00    +0.000 A 
ATOM      6  C   UNL     1       6.337   4.520  15.249  0.00  0.00    +0.000 A 
ATOM      7  F   UNL     1       6.517   4.428  13.925  0.00  0.00    +0.000 F 
ATOM      8  C   UNL     1       6.947   5.577  15.944  0.00  0.00    +0.000 A 
ATOM      9  C   UNL     1       6.732   5.768  17.324  0.00  0.00    +0.000 A 
ATOM     10  C   UNL     1       4.103   3.376  18.023  0.00  0.00    +0.000 C 
ATOM     11  O   UNL     1       3.351   2.484  17.657  0.00  0.00    +0.000 OA
ENDROOT
BRANCH   1  16
ATOM     12  C   UNL     1       2.168   7.403  19.880  0.00  0.00    +0.000 A 
ATOM     13  C   UNL     1       2.610   8.148  18.778  0.00  0.00    +0.000 A 
ATOM     14  C   UNL     1       3.041   7.508  17.618  0.00  0.00    +0.000 A 
ATOM     15  C   UNL     1       3.146   6.123  17.589  0.00  0.00    +0.000 A 
ATOM     16  C   UNL     1       2.998   5.402  18.783  0.00  0.00    +0.000 A 
ATOM     17  C   UNL     1       2.343   6.011  19.863  0.00  0.00    +0.000 A 
BRANCH  12  18
ATOM     18  C   UNL     1       1.478   8.110  21.025  0.00  0.00    +0.000 C 
BRANCH  18  24
ATOM     19  C   UNL     1      -0.349   9.832  22.926  0.00  0.00    +0.000 C 
ATOM     20  N   UNL     1      -0.181   9.990  21.508  0.00  0.00    +0.000 N 
ATOM     21  C   UNL     1      -0.750  10.972  20.753  0.00  0.00    +0.000 A 
ATOM     22  N   UNL     1      -0.379  10.836  19.503  0.00  0.00    +0.000 NA
ATOM     23  N   UNL     1       0.460   9.750  19.436  0.00  0.00    +0.000 NA
ATOM     24  C   UNL     1       0.584   9.242  20.648  0.00  0.00    +0.000 A 
ENDBRANCH  18  24
ENDBRANCH  12  18
ENDBRANCH   1  16
BRANCH   9  25
ATOM     25  C   UNL     1       7.288   7.001  17.986  0.00  0.00    +0.000 C 
ATOM     26  F   UNL     1       8.227   6.700  18.928  0.00  0.00    +0.000 F 
ATOM     27  F   UNL     1       7.895   7.870  17.134  0.00  0.00    +0.000 F 
ENDBRANCH   9  25
TORSDOF 4
ENDMDL
MODEL 3
REMARK VINA RESULT:      -8.4      4.038      7.560
REMARK  Name = 
REMARK  5 active torsions:
REMARK  status: ('A' for Active; 'I' for Inactive)
REMARK    1  A    between atoms: C_1  and  N_2
REMARK    2  A    between atoms: C_6  and  C_7
REMARK    3  A    between atoms: C_7  and  C_8
REMARK    4  A    between atoms: C_12  and  N_13
REMARK    5  A    between atoms: C_21  and  C_22
REMARK                            x       y       z     vdW  Elec       q    Type
REMARK                         _______ _______ _______ _____ _____    ______ ____
ROOT
ATOM      1  N   UNL     1       2.357   4.367  17.217  0.00  0.00    +0.000 N 
ATOM      2  C   UNL     1       1.513   5.243  18.063  0.00  0.00    +0.000 C 
ATOM      3  C   UNL     1       1.525   4.516  19.377  0.00  0.00    +0.000 A 
ATOM      4  C   UNL     1       1.712   3.157  19.094  0.00  0.00    +0.000 A 
ATOM      5  C   UNL     1       1.929   2.205  20.076  0.00  0.00    +0.000 A 
ATOM      6  C   UNL     1       1.973   2.664  21.384  0.00  0.00    +0.000 A 
ATOM      7  F   UNL     1       2.256   1.804  22.371  0.00  0.00    +0.000 F 
ATOM      8  C   UNL     1       1.818   4.025  21.693  0.00  0.00    +0.000 A 
ATOM      9  C   UNL     1       1.593   4.985  20.685  0.00  0.00    +0.000 A 
ATOM     10  C   UNL     1       2.097   3.049  17.665  0.00  0.00    +0.000 C 
ATOM     11  O   UNL     1       2.333   1.986  17.109  0.00  0.00    +0.000 OA
ENDROOT
BRANCH   1  16
ATOM     12  C   UNL     1       5.748   4.683  15.914  0.00  0.00    +0.000 A 
ATOM     13  C   UNL     1       5.830   6.081  15.986  0.00  0.00    +0.000 A 
ATOM     14  C   UNL     1       5.017   6.792  16.866  0.00  0.00    +0.000 A 
ATOM     15  C   UNL     1       4.036   6.130  17.592  0.00  0.00    +0.000 A 
ATOM     16  C   UNL     1       3.752   4.789  17.293  0.00  0.00    +0.000 A 
ATOM     17  C   UNL     1       4.710   4.035  16.600  0.00  0.00    +0.000 A 
BRANCH  12  18
ATOM     18  C   UNL     1       6.800   3.917  15.142  0.00  0.00    +0.000 C 
BRANCH  18  24
ATOM     19  C   UNL     1       5.947   3.248  12.185  0.00  0.00    +0.000 C 
ATOM     20  N   UNL     1       6.872   4.261  12.614  0.00  0.00    +0.000 N 
ATOM     21  C   UNL     1       7.494   5.156  11.794  0.00  0.00    +0.000 A 
ATOM     22  N   UNL     1       8.256   5.948  12.507  0.00  0.00    +0.000 NA
ATOM     23  N   UNL     1       8.126   5.576  13.822  0.00  0.00    +0.000 NA
ATOM     24  C   UNL     1       7.285   4.560  13.888  0.00  0.00    +0.000 A 
ENDBRANCH  18  24
ENDBRANCH  12  18
ENDBRANCH   1  16
BRANCH   9  25
ATOM     25  C   UNL     1       1.585   6.444  21.056  0.00  0.00    +0.000 C 
ATOM     26  F   UNL     1       2.354   7.193  20.215  0.00  0.00    +0.000 F 
ATOM     27  F   UNL     1       0.354   7.022  21.032  0.00  0.00    +0.000 F 
ENDBRANCH   9  25
TORSDOF 4
ENDMDL
MODEL 4
REMARK VINA RESULT:      -8.3      5.202      8.362
REMARK  Name = 
REMARK  5 active torsions:
REMARK  status: ('A' for Active; 'I' for Inactive)
REMARK    1  A    between atoms: C_1  and  N_2
REMARK    2  A    between atoms: C_6  and  C_7
REMARK    3  A    between atoms: C_7  and  C_8
REMARK    4  A    between atoms: C_12  and  N_13
REMARK    5  A    between atoms: C_21  and  C_22
REMARK                            x       y       z     vdW  Elec       q    Type
REMARK                         _______ _______ _______ _____ _____    ______ ____
ROOT
ATOM      1  N   UNL     1      -0.832  11.806  18.693  0.00  0.00    +0.000 N 
ATOM      2  C   UNL     1       0.463  11.092  18.599  0.00  0.00    +0.000 C 
ATOM      3  C   UNL     1       0.578  10.469  19.959  0.00  0.00    +0.000 A 
ATOM      4  C   UNL     1      -0.130  11.287  20.848  0.00  0.00    +0.000 A 
ATOM      5  C   UNL     1      -0.370  10.939  22.167  0.00  0.00    +0.000 A 
ATOM      6  C   UNL     1       0.118   9.709  22.580  0.00  0.00    +0.000 A 
ATOM      7  F   UNL     1      -0.148   9.281  23.822  0.00  0.00    +0.000 F 
ATOM      8  C   UNL     1       0.806   8.856  21.703  0.00  0.00    +0.000 A 
ATOM      9  C   UNL     1       1.047   9.222  20.362  0.00  0.00    +0.000 A 
ATOM     10  C   UNL     1      -0.918  12.248  20.036  0.00  0.00    +0.000 C 
ATOM     11  O   UNL     1      -1.648  13.100  20.521  0.00  0.00    +0.000 OA
ENDROOT
BRANCH   1  16
ATOM     12  C   UNL     1      -4.204  11.168  17.464  0.00  0.00    +0.000 A 
ATOM     13  C   UNL     1      -3.835  10.485  16.297  0.00  0.00    +0.000 A 
ATOM     14  C   UNL     1      -2.593   9.860  16.206  0.00  0.00    +0.000 A 
ATOM     15  C   UNL     1      -1.665  10.010  17.228  0.00  0.00    +0.000 A 
ATOM     16  C   UNL     1      -1.918  10.940  18.249  0.00  0.00    +0.000 A 
ATOM     17  C   UNL     1      -3.236  11.370  18.459  0.00  0.00    +0.000 A 
BRANCH  12  18
ATOM     18  C   UNL     1      -5.637  11.623  17.635  0.00  0.00    +0.000 C 
BRANCH  18  24
ATOM     19  C   UNL     1      -6.278  13.451  20.119  0.00  0.00    +0.000 C 
ATOM     20  N   UNL     1      -6.586  12.056  19.965  0.00  0.00    +0.000 N 
ATOM     21  C   UNL     1      -7.276  11.300  20.865  0.00  0.00    +0.000 A 
ATOM     22  N   UNL     1      -7.396  10.076  20.411  0.00  0.00    +0.000 NA
ATOM     23  N   UNL     1      -6.782  10.028  19.184  0.00  0.00    +0.000 NA
ATOM     24  C   UNL     1      -6.298  11.226  18.911  0.00  0.00    +0.000 A 
ENDBRANCH  18  24
ENDBRANCH  12  18
ENDBRANCH   1  16
BRANCH   9  25
ATOM     25  C   UNL     1       1.655   8.211  19.427  0.00  0.00    +0.000 C 
ATOM     26  F   UNL     1       2.552   8.778  18.569  0.00  0.00    +0.000 F 
ATOM     27  F   UNL     1       2.332   7.208  20.048  0.00  0.00    +0.000 F 
ENDBRANCH   9  25
TORSDOF 4
ENDMDL
MODEL 5
REMARK VINA RESULT:      -8.2      3.230      4.550
REMARK  Name = 
REMARK  5 active torsions:
REMARK  status: ('A' for Active; 'I' for Inactive)
REMARK    1  A    between atoms: C_1  and  N_2
REMARK    2  A    between atoms: C_6  and  C_7
REMARK    3  A    between atoms: C_7  and  C_8
REMARK    4  A    between atoms: C_12  and  N_13
REMARK    5  A    between atoms: C_21  and  C_22
REMARK                            x       y       z     vdW  Elec       q    Type
REMARK                         _______ _______ _______ _____ _____    ______ ____
ROOT
ATOM      1  N   UNL     1       2.924   5.409  17.386  0.00  0.00    +0.000 N 
ATOM      2  C   UNL     1       1.826   4.497  17.783  0.00  0.00    +0.000 C 
ATOM      3  C   UNL     1       2.527   3.545  18.709  0.00  0.00    +0.000 A 
ATOM      4  C   UNL     1       3.868   3.495  18.310  0.00  0.00    +0.000 A 
ATOM      5  C   UNL     1       4.847   2.836  19.033  0.00  0.00    +0.000 A 
ATOM      6  C   UNL     1       4.440   2.225  20.210  0.00  0.00    +0.000 A 
ATOM      7  F   UNL     1       5.354   1.637  20.994  0.00  0.00    +0.000 F 
ATOM      8  C   UNL     1       3.108   2.284  20.649  0.00  0.00    +0.000 A 
ATOM      9  C   UNL     1       2.118   2.955  19.901  0.00  0.00    +0.000 A 
ATOM     10  C   UNL     1       4.085   4.599  17.341  0.00  0.00    +0.000 C 
ATOM     11  O   UNL     1       5.161   4.825  16.807  0.00  0.00    +0.000 OA
ENDROOT
BRANCH   1  16
ATOM     12  C   UNL     1       1.879   8.683  18.604  0.00  0.00    +0.000 A 
ATOM     13  C   UNL     1       1.539   8.281  19.903  0.00  0.00    +0.000 A 
ATOM     14  C   UNL     1       2.095   7.130  20.457  0.00  0.00    +0.000 A 
ATOM     15  C   UNL     1       2.899   6.306  19.680  0.00  0.00    +0.000 A 
ATOM     16  C   UNL     1       2.989   6.545  18.300  0.00  0.00    +0.000 A 
ATOM     17  C   UNL     1       2.636   7.810  17.808  0.00  0.00    +0.000 A 
BRANCH  12  18
ATOM     18  C   UNL     1       1.463  10.054  18.118  0.00  0.00    +0.000 C 
BRANCH  18  24
ATOM     19  C   UNL     1       0.738  12.054  20.440  0.00  0.00    +0.000 C 
ATOM     20  N   UNL     1      -0.173  11.404  19.538  0.00  0.00    +0.000 N 
ATOM     21  C   UNL     1      -1.521  11.604  19.502  0.00  0.00    +0.000 A 
ATOM     22  N   UNL     1      -2.049  10.870  18.554  0.00  0.00    +0.000 NA
ATOM     23  N   UNL     1      -1.028  10.182  17.945  0.00  0.00    +0.000 NA
ATOM     24  C   UNL     1       0.107  10.509  18.536  0.00  0.00    +0.000 A 
ENDBRANCH  18  24
ENDBRANCH  12  18
ENDBRANCH   1  16
BRANCH   9  25
ATOM     25  C   UNL     1       0.743   3.116  20.490  0.00  0.00    +0.000 C 
ATOM     26  F   UNL     1       0.685   2.693  21.786  0.00  0.00    +0.000 F 
ATOM     27  F   UNL     1       0.286   4.397  20.507  0.00  0.00    +0.000 F 
ENDBRANCH   9  25
TORSDOF 4
ENDMDL
MODEL 6
REMARK VINA RESULT:      -8.2      5.559      8.636
REMARK  Name = 
REMARK  5 active torsions:
REMARK  status: ('A' for Active; 'I' for Inactive)
REMARK    1  A    between atoms: C_1  and  N_2
REMARK    2  A    between atoms: C_6  and  C_7
REMARK    3  A    between atoms: C_7  and  C_8
REMARK    4  A    between atoms: C_12  and  N_13
REMARK    5  A    between atoms: C_21  and  C_22
REMARK                            x       y       z     vdW  Elec       q    Type
REMARK                         _______ _______ _______ _____ _____    ______ ____
ROOT
ATOM      1  N   UNL     1      -1.652  12.385  18.908  0.00  0.00    +0.000 N 
ATOM      2  C   UNL     1      -0.270  12.102  18.457  0.00  0.00    +0.000 C 
ATOM      3  C   UNL     1       0.192  11.097  19.472  0.00  0.00    +0.000 A 
ATOM      4  C   UNL     1      -0.518  11.348  20.652  0.00  0.00    +0.000 A 
ATOM      5  C   UNL     1      -0.463  10.516  21.758  0.00  0.00    +0.000 A 
ATOM      6  C   UNL     1       0.332   9.386  21.642  0.00  0.00    +0.000 A 
ATOM      7  F   UNL     1       0.366   8.502  22.648  0.00  0.00    +0.000 F 
ATOM      8  C   UNL     1       1.032   9.095  20.460  0.00  0.00    +0.000 A 
ATOM      9  C   UNL     1       0.971   9.951  19.342  0.00  0.00    +0.000 A 
ATOM     10  C   UNL     1      -1.611  12.297  20.321  0.00  0.00    +0.000 C 
ATOM     11  O   UNL     1      -2.414  12.713  21.143  0.00  0.00    +0.000 OA
ENDROOT
BRANCH   1  16
ATOM     12  C   UNL     1      -4.913  11.491  17.544  0.00  0.00    +0.000 A 
ATOM     13  C   UNL     1      -4.481  11.202  16.243  0.00  0.00    +0.000 A 
ATOM     14  C   UNL     1      -3.155  10.851  15.999  0.00  0.00    +0.000 A 
ATOM     15  C   UNL     1      -2.225  10.901  17.028  0.00  0.00    +0.000 A 
ATOM     16  C   UNL     1      -2.590  11.481  18.253  0.00  0.00    +0.000 A 
ATOM     17  C   UNL     1      -3.953  11.603  18.562  0.00  0.00    +0.000 A 
BRANCH  12  18
ATOM     18  C   UNL     1      -6.394  11.625  17.822  0.00  0.00    +0.000 C 
BRANCH  18  24
ATOM     19  C   UNL     1      -7.643  13.115  20.300  0.00  0.00    +0.000 C 
ATOM     20  N   UNL     1      -7.439  11.701  20.150  0.00  0.00    +0.000 N 
ATOM     21  C   UNL     1      -7.820  10.752  21.052  0.00  0.00    +0.000 A 
ATOM     22  N   UNL     1      -7.499   9.564  20.601  0.00  0.00    +0.000 NA
ATOM     23  N   UNL     1      -6.906   9.732  19.374  0.00  0.00    +0.000 NA
ATOM     24  C   UNL     1      -6.875  11.023  19.099  0.00  0.00    +0.000 A 
ENDBRANCH  18  24
ENDBRANCH  12  18
ENDBRANCH   1  16
BRANCH   9  25
ATOM     25  C   UNL     1       1.617   9.517  18.054  0.00  0.00    +0.000 C 
ATOM     26  F   UNL     1       2.826   8.921  18.260  0.00  0.00    +0.000 F 
ATOM     27  F   UNL     1       0.890   8.620  17.335  0.00  0.00    +0.000 F 
ENDBRANCH   9  25
TORSDOF 4
ENDMDL
MODEL 7
REMARK VINA RESULT:      -8.2      1.461      2.098
REMARK  Name = 
REMARK  5 active torsions:
REMARK  status: ('A' for Active; 'I' for Inactive)
REMARK    1  A    between atoms: C_1  and  N_2
REMARK    2  A    between atoms: C_6  and  C_7
REMARK    3  A    between atoms: C_7  and  C_8
REMARK    4  A    between atoms: C_12  and  N_13
REMARK    5  A    between atoms: C_21  and  C_22
REMARK                            x       y       z     vdW  Elec       q    Type
REMARK                         _______ _______ _______ _____ _____    ______ ____
ROOT
ATOM      1  N   UNL     1       4.239   3.139  19.203  0.00  0.00    +0.000 N 
ATOM      2  C   UNL     1       5.680   3.477  19.258  0.00  0.00    +0.000 C 
ATOM      3  C   UNL     1       5.821   4.440  18.115  0.00  0.00    +0.000 A 
ATOM      4  C   UNL     1       4.834   4.112  17.177  0.00  0.00    +0.000 A 
ATOM      5  C   UNL     1       4.565   4.887  16.061  0.00  0.00    +0.000 A 
ATOM      6  C   UNL     1       5.320   6.041  15.914  0.00  0.00    +0.000 A 
ATOM      7  F   UNL     1       5.056   6.872  14.897  0.00  0.00    +0.000 F 
ATOM      8  C   UNL     1       6.297   6.408  16.854  0.00  0.00    +0.000 A 
ATOM      9  C   UNL     1       6.564   5.609  17.984  0.00  0.00    +0.000 A 
ATOM     10  C   UNL     1       3.903   3.156  17.827  0.00  0.00    +0.000 C 
ATOM     11  O   UNL     1       2.927   2.679  17.266  0.00  0.00    +0.000 OA
ENDROOT
BRANCH   1  16
ATOM     12  C   UNL     1       2.283   6.155  19.807  0.00  0.00    +0.000 A 
ATOM     13  C   UNL     1       1.134   5.519  20.297  0.00  0.00    +0.000 A 
ATOM     14  C   UNL     1       1.213   4.242  20.847  0.00  0.00    +0.000 A 
ATOM     15  C   UNL     1       2.411   3.542  20.804  0.00  0.00    +0.000 A 
ATOM     16  C   UNL     1       3.474   4.053  20.044  0.00  0.00    +0.000 A 
ATOM     17  C   UNL     1       3.470   5.415  19.707  0.00  0.00    +0.000 A 
BRANCH  12  18
ATOM     18  C   UNL     1       2.221   7.623  19.446  0.00  0.00    +0.000 C 
BRANCH  18  24
ATOM     19  C   UNL     1       0.264   9.984  18.729  0.00  0.00    +0.000 C 
ATOM     20  N   UNL     1       0.596   9.500  20.041  0.00  0.00    +0.000 N 
ATOM     21  C   UNL     1       0.057   9.955  21.206  0.00  0.00    +0.000 A 
ATOM     22  N   UNL     1       0.565   9.291  22.215  0.00  0.00    +0.000 NA
ATOM     23  N   UNL     1       1.448   8.372  21.703  0.00  0.00    +0.000 NA
ATOM     24  C   UNL     1       1.463   8.495  20.388  0.00  0.00    +0.000 A 
ENDBRANCH  18  24
ENDBRANCH  12  18
ENDBRANCH   1  16
BRANCH   9  25
ATOM     25  C   UNL     1       7.511   6.124  19.035  0.00  0.00    +0.000 C 
ATOM     26  F   UNL     1       8.465   5.205  19.363  0.00  0.00    +0.000 F 
ATOM     27  F   UNL     1       8.195   7.243  18.674  0.00  0.00    +0.000 F 
ENDBRANCH   9  25
TORSDOF 4
ENDMDL
MODEL 8
REMARK VINA RESULT:      -8.2      5.772      8.867
REMARK  Name = 
REMARK  5 active torsions:
REMARK  status: ('A' for Active; 'I' for Inactive)
REMARK    1  A    between atoms: C_1  and  N_2
REMARK    2  A    between atoms: C_6  and  C_7
REMARK    3  A    between atoms: C_7  and  C_8
REMARK    4  A    between atoms: C_12  and  N_13
REMARK    5  A    between atoms: C_21  and  C_22
REMARK                            x       y       z     vdW  Elec       q    Type
REMARK                         _______ _______ _______ _____ _____    ______ ____
ROOT
ATOM      1  N   UNL     1      -1.683  12.517  19.089  0.00  0.00    +0.000 N 
ATOM      2  C   UNL     1      -0.289  12.117  18.785  0.00  0.00    +0.000 C 
ATOM      3  C   UNL     1       0.046  11.236  19.954  0.00  0.00    +0.000 A 
ATOM      4  C   UNL     1      -0.731  11.672  21.034  0.00  0.00    +0.000 A 
ATOM      5  C   UNL     1      -0.797  10.993  22.240  0.00  0.00    +0.000 A 
ATOM      6  C   UNL     1      -0.058   9.823  22.331  0.00  0.00    +0.000 A 
ATOM      7  F   UNL     1      -0.141   9.080  23.443  0.00  0.00    +0.000 F 
ATOM      8  C   UNL     1       0.707   9.348  21.254  0.00  0.00    +0.000 A 
ATOM      9  C   UNL     1       0.770  10.050  20.033  0.00  0.00    +0.000 A 
ATOM     10  C   UNL     1      -1.745  12.616  20.501  0.00  0.00    +0.000 C 
ATOM     11  O   UNL     1      -2.581  13.172  21.199  0.00  0.00    +0.000 OA
ENDROOT
BRANCH   1  16
ATOM     12  C   UNL     1      -4.857  11.608  17.542  0.00  0.00    +0.000 A 
ATOM     13  C   UNL     1      -4.325  11.087  16.355  0.00  0.00    +0.000 A 
ATOM     14  C   UNL     1      -3.013  10.622  16.311  0.00  0.00    +0.000 A 
ATOM     15  C   UNL     1      -2.184  10.783  17.414  0.00  0.00    +0.000 A 
ATOM     16  C   UNL     1      -2.620  11.576  18.487  0.00  0.00    +0.000 A 
ATOM     17  C   UNL     1      -3.993  11.827  18.626  0.00  0.00    +0.000 A 
BRANCH  12  18
ATOM     18  C   UNL     1      -6.343  11.874  17.636  0.00  0.00    +0.000 C 
BRANCH  18  24
ATOM     19  C   UNL     1      -7.030   9.388  19.444  0.00  0.00    +0.000 C 
ATOM     20  N   UNL     1      -7.181  10.777  19.783  0.00  0.00    +0.000 N 
ATOM     21  C   UNL     1      -7.597  11.249  20.992  0.00  0.00    +0.000 A 
ATOM     22  N   UNL     1      -7.608  12.560  20.971  0.00  0.00    +0.000 NA
ATOM     23  N   UNL     1      -7.182  12.958  19.728  0.00  0.00    +0.000 NA
ATOM     24  C   UNL     1      -6.918  11.880  19.012  0.00  0.00    +0.000 A 
ENDBRANCH  18  24
ENDBRANCH  12  18
ENDBRANCH   1  16
BRANCH   9  25
ATOM     25  C   UNL     1       1.480   9.421  18.864  0.00  0.00    +0.000 C 
ATOM     26  F   UNL     1       2.046   8.223  19.191  0.00  0.00    +0.000 F 
ATOM     27  F   UNL     1       0.681   9.163  17.794  0.00  0.00    +0.000 F 
ENDBRANCH   9  25
TORSDOF 4
ENDMDL
MODEL 9
REMARK VINA RESULT:      -8.2      3.218      4.402
REMARK  Name = 
REMARK  5 active torsions:
REMARK  status: ('A' for Active; 'I' for Inactive)
REMARK    1  A    between atoms: C_1  and  N_2
REMARK    2  A    between atoms: C_6  and  C_7
REMARK    3  A    between atoms: C_7  and  C_8
REMARK    4  A    between atoms: C_12  and  N_13
REMARK    5  A    between atoms: C_21  and  C_22
REMARK                            x       y       z     vdW  Elec       q    Type
REMARK                         _______ _______ _______ _____ _____    ______ ____
ROOT
ATOM      1  N   UNL     1       2.836   5.559  17.423  0.00  0.00    +0.000 N 
ATOM      2  C   UNL     1       1.759   4.617  17.809  0.00  0.00    +0.000 C 
ATOM      3  C   UNL     1       2.490   3.650  18.694  0.00  0.00    +0.000 A 
ATOM      4  C   UNL     1       3.825   3.634  18.274  0.00  0.00    +0.000 A 
ATOM      5  C   UNL     1       4.826   2.970  18.962  0.00  0.00    +0.000 A 
ATOM      6  C   UNL     1       4.447   2.317  20.125  0.00  0.00    +0.000 A 
ATOM      7  F   UNL     1       5.383   1.721  20.877  0.00  0.00    +0.000 F 
ATOM      8  C   UNL     1       3.121   2.340  20.586  0.00  0.00    +0.000 A 
ATOM      9  C   UNL     1       2.110   3.017  19.874  0.00  0.00    +0.000 A 
ATOM     10  C   UNL     1       4.009   4.770  17.336  0.00  0.00    +0.000 C 
ATOM     11  O   UNL     1       5.073   5.030  16.793  0.00  0.00    +0.000 OA
ENDROOT
BRANCH   1  16
ATOM     12  C   UNL     1       1.894   8.862  18.647  0.00  0.00    +0.000 A 
ATOM     13  C   UNL     1       1.432   8.452  19.906  0.00  0.00    +0.000 A 
ATOM     14  C   UNL     1       1.874   7.257  20.468  0.00  0.00    +0.000 A 
ATOM     15  C   UNL     1       2.686   6.404  19.732  0.00  0.00    +0.000 A 
ATOM     16  C   UNL     1       2.897   6.667  18.369  0.00  0.00    +0.000 A 
ATOM     17  C   UNL     1       2.658   7.963  17.888  0.00  0.00    +0.000 A 
BRANCH  12  18
ATOM     18  C   UNL     1       1.599  10.266  18.169  0.00  0.00    +0.000 C 
BRANCH  18  24
ATOM     19  C   UNL     1      -1.473  10.023  17.518  0.00  0.00    +0.000 C 
ATOM     20  N   UNL     1      -0.865  10.812  18.554  0.00  0.00    +0.000 N 
ATOM     21  C   UNL     1      -1.541  11.548  19.481  0.00  0.00    +0.000 A 
ATOM     22  N   UNL     1      -0.688  12.130  20.287  0.00  0.00    +0.000 NA
ATOM     23  N   UNL     1       0.574  11.762  19.890  0.00  0.00    +0.000 NA
ATOM     24  C   UNL     1       0.467  10.961  18.847  0.00  0.00    +0.000 A 
ENDBRANCH  18  24
ENDBRANCH  12  18
ENDBRANCH   1  16
BRANCH   9  25
ATOM     25  C   UNL     1       0.741   3.138  20.488  0.00  0.00    +0.000 C 
ATOM     26  F   UNL     1       0.713   2.688  21.776  0.00  0.00    +0.000 F 
ATOM     27  F   UNL     1       0.257   4.408  20.538  0.00  0.00    +0.000 F 
ENDBRANCH   9  25
TORSDOF 4
ENDMDL
