MODEL 1
REMARK VINA RESULT:      -8.6      0.000      0.000
REMARK  Name = 
REMARK  4 active torsions:
REMARK  status: ('A' for Active; 'I' for Inactive)
REMARK    1  A    between atoms: C_1  and  N_2
REMARK    2  A    between atoms: C_6  and  C_7
REMARK    3  A    between atoms: C_8  and  N_9
REMARK    4  A    between atoms: N_23  and  C_24
REMARK                            x       y       z     vdW  Elec       q    Type
REMARK                         _______ _______ _______ _____ _____    ______ ____
ROOT
ATOM      1  C   UNL     1       4.095   4.692  18.768  0.00  0.00    +0.000 C 
ATOM      2  C   UNL     1       3.271   5.991  18.614  0.00  0.00    +0.000 C 
ATOM      3  C   UNL     1       2.073   5.575  17.770  0.00  0.00    +0.000 C 
ATOM      4  C   UNL     1       1.931   4.108  18.067  0.00  0.00    +0.000 C 
ATOM      5  O   UNL     1       0.905   3.462  17.912  0.00  0.00    +0.000 OA
ATOM      6  N   UNL     1       3.160   3.618  18.519  0.00  0.00    +0.000 N 
ENDROOT
BRANCH   2   7
ATOM      7  N   UNL     1       2.816   6.552  19.895  0.00  0.00    +0.000 N 
ATOM      8  C   UNL     1       2.105   7.694  19.834  0.00  0.00    +0.000 A 
ATOM      9  N   UNL     1       2.033   8.566  18.856  0.00  0.00    +0.000 NA
ATOM     10  C   UNL     1       1.155   9.508  19.327  0.00  0.00    +0.000 A 
ATOM     11  C   UNL     1       0.701  10.704  18.759  0.00  0.00    +0.000 A 
ATOM     12  C   UNL     1      -0.220  11.453  19.495  0.00  0.00    +0.000 A 
ATOM     13  F   UNL     1      -0.661  12.613  18.990  0.00  0.00    +0.000 F 
ATOM     14  C   UNL     1      -0.693  11.032  20.742  0.00  0.00    +0.000 A 
ATOM     15  C   UNL     1      -0.244   9.842  21.324  0.00  0.00    +0.000 A 
ATOM     16  C   UNL     1       0.695   9.133  20.579  0.00  0.00    +0.000 A 
ATOM     17  O   UNL     1       1.334   7.978  20.925  0.00  0.00    +0.000 OA
ATOM     18  H   UNL     1       3.492   6.521  20.653  0.00  0.00    +0.000 HD
ENDBRANCH   2   7
BRANCH   1  24
ATOM     19  C   UNL     1       7.175   5.578  19.333  0.00  0.00    +0.000 C 
ATOM     20  N   UNL     1       6.592   5.015  18.138  0.00  0.00    +0.000 N 
ATOM     21  N   UNL     1       7.432   4.727  17.121  0.00  0.00    +0.000 NA
ATOM     22  C   UNL     1       6.637   4.296  16.145  0.00  0.00    +0.000 A 
ATOM     23  C   UNL     1       5.292   4.295  16.527  0.00  0.00    +0.000 A 
ATOM     24  C   UNL     1       5.281   4.709  17.852  0.00  0.00    +0.000 A 
ENDBRANCH   1  24
BRANCH   6  25
ATOM     25  C   UNL     1       3.254   2.383  19.245  0.00  0.00    +0.000 C 
ATOM     26  C   UNL     1       4.562   1.895  19.806  0.00  0.00    +0.000 C 
ATOM     27  C   UNL     1       3.918   1.161  18.668  0.00  0.00    +0.000 C 
ENDBRANCH   6  25
TORSDOF 3
ENDMDL
MODEL 2
REMARK VINA RESULT:      -8.0      0.590      1.217
REMARK  Name = 
REMARK  4 active torsions:
REMARK  status: ('A' for Active; 'I' for Inactive)
REMARK    1  A    between atoms: C_1  and  N_2
REMARK    2  A    between atoms: C_6  and  C_7
REMARK    3  A    between atoms: C_8  and  N_9
REMARK    4  A    between atoms: N_23  and  C_24
REMARK                            x       y       z     vdW  Elec       q    Type
REMARK                         _______ _______ _______ _____ _____    ______ ____
ROOT
ATOM      1  C   UNL     1       4.050   4.941  19.220  0.00  0.00    +0.000 C 
ATOM      2  C   UNL     1       3.279   6.254  18.953  0.00  0.00    +0.000 C 
ATOM      3  C   UNL     1       2.287   5.888  17.856  0.00  0.00    +0.000 C 
ATOM      4  C   UNL     1       2.083   4.411  18.051  0.00  0.00    +0.000 C 
ATOM      5  O   UNL     1       1.112   3.784  17.653  0.00  0.00    +0.000 OA
ATOM      6  N   UNL     1       3.187   3.888  18.731  0.00  0.00    +0.000 N 
ENDROOT
BRANCH   2   7
ATOM      7  N   UNL     1       2.563   6.764  20.132  0.00  0.00    +0.000 N 
ATOM      8  C   UNL     1       1.907   7.930  19.981  0.00  0.00    +0.000 A 
ATOM      9  N   UNL     1       2.072   8.853  19.062  0.00  0.00    +0.000 NA
ATOM     10  C   UNL     1       1.131   9.798  19.380  0.00  0.00    +0.000 A 
ATOM     11  C   UNL     1       0.839  11.035  18.795  0.00  0.00    +0.000 A 
ATOM     12  C   UNL     1      -0.206  11.776  19.351  0.00  0.00    +0.000 A 
ATOM     13  F   UNL     1      -0.500  12.974  18.828  0.00  0.00    +0.000 F 
ATOM     14  C   UNL     1      -0.952  11.309  20.438  0.00  0.00    +0.000 A 
ATOM     15  C   UNL     1      -0.668  10.077  21.035  0.00  0.00    +0.000 A 
ATOM     16  C   UNL     1       0.398   9.375  20.477  0.00  0.00    +0.000 A 
ATOM     17  O   UNL     1       0.920   8.184  20.890  0.00  0.00    +0.000 OA
ATOM     18  H   UNL     1       3.053   6.673  21.017  0.00  0.00    +0.000 HD
ENDBRANCH   2   7
BRANCH   1  24
ATOM     19  C   UNL     1       4.980   4.092  16.220  0.00  0.00    +0.000 C 
ATOM     20  N   UNL     1       5.755   4.692  17.281  0.00  0.00    +0.000 N 
ATOM     21  N   UNL     1       7.029   5.035  16.993  0.00  0.00    +0.000 NA
ATOM     22  C   UNL     1       7.519   5.490  18.144  0.00  0.00    +0.000 A 
ATOM     23  C   UNL     1       6.569   5.449  19.168  0.00  0.00    +0.000 A 
ATOM     24  C   UNL     1       5.403   4.984  18.578  0.00  0.00    +0.000 A 
ENDBRANCH   1  24
BRANCH   6  25
ATOM     25  C   UNL     1       3.122   2.622  19.405  0.00  0.00    +0.000 C 
ATOM     26  C   UNL     1       4.355   1.961  19.960  0.00  0.00    +0.000 C 
ATOM     27  C   UNL     1       3.649   1.356  18.784  0.00  0.00    +0.000 C 
ENDBRANCH   6  25
TORSDOF 3
ENDMDL
MODEL 3
REMARK VINA RESULT:      -7.3      3.510      8.545
REMARK  Name = 
REMARK  4 active torsions:
REMARK  status: ('A' for Active; 'I' for Inactive)
REMARK    1  A    between atoms: C_1  and  N_2
REMARK    2  A    between atoms: C_6  and  C_7
REMARK    3  A    between atoms: C_8  and  N_9
REMARK    4  A    between atoms: N_23  and  C_24
REMARK                            x       y       z     vdW  Elec       q    Type
REMARK                         _______ _______ _______ _____ _____    ______ ____
ROOT
ATOM      1  C   UNL     1       0.069  11.258  19.744  0.00  0.00    +0.000 C 
ATOM      2  C   UNL     1       0.119   9.939  18.941  0.00  0.00    +0.000 C 
ATOM      3  C   UNL     1      -1.133   9.982  18.074  0.00  0.00    +0.000 C 
ATOM      4  C   UNL     1      -1.399  11.453  17.922  0.00  0.00    +0.000 C 
ATOM      5  O   UNL     1      -2.061  11.952  17.022  0.00  0.00    +0.000 OA
ATOM      6  N   UNL     1      -0.792  12.134  18.981  0.00  0.00    +0.000 N 
ENDROOT
BRANCH   2   7
ATOM      7  N   UNL     1       1.316   9.812  18.096  0.00  0.00    +0.000 N 
ATOM      8  C   UNL     1       2.053   8.697  18.258  0.00  0.00    +0.000 A 
ATOM      9  N   UNL     1       2.071   7.863  19.272  0.00  0.00    +0.000 NA
ATOM     10  C   UNL     1       2.980   6.910  18.892  0.00  0.00    +0.000 A 
ATOM     11  C   UNL     1       3.461   5.781  19.565  0.00  0.00    +0.000 A 
ATOM     12  C   UNL     1       4.391   4.984  18.894  0.00  0.00    +0.000 A 
ATOM     13  F   UNL     1       4.888   3.906  19.516  0.00  0.00    +0.000 F 
ATOM     14  C   UNL     1       4.824   5.279  17.597  0.00  0.00    +0.000 A 
ATOM     15  C   UNL     1       4.356   6.406  16.915  0.00  0.00    +0.000 A 
ATOM     16  C   UNL     1       3.452   7.196  17.621  0.00  0.00    +0.000 A 
ATOM     17  O   UNL     1       2.880   8.369  17.222  0.00  0.00    +0.000 OA
ATOM     18  H   UNL     1       1.863  10.660  17.978  0.00  0.00    +0.000 HD
ENDBRANCH   2   7
BRANCH   1  24
ATOM     19  C   UNL     1       1.348   9.368  22.063  0.00  0.00    +0.000 C 
ATOM     20  N   UNL     1       0.214  10.260  22.135  0.00  0.00    +0.000 N 
ATOM     21  N   UNL     1      -0.370  10.415  23.342  0.00  0.00    +0.000 NA
ATOM     22  C   UNL     1      -1.406  11.218  23.108  0.00  0.00    +0.000 A 
ATOM     23  C   UNL     1      -1.488  11.587  21.763  0.00  0.00    +0.000 A 
ATOM     24  C   UNL     1      -0.390  11.005  21.148  0.00  0.00    +0.000 A 
ENDBRANCH   1  24
BRANCH   6  25
ATOM     25  C   UNL     1      -0.528  13.544  18.913  0.00  0.00    +0.000 C 
ATOM     26  C   UNL     1       0.513  14.193  19.785  0.00  0.00    +0.000 C 
ATOM     27  C   UNL     1      -0.940  14.491  20.009  0.00  0.00    +0.000 C 
ENDBRANCH   6  25
TORSDOF 3
ENDMDL
MODEL 4
REMARK VINA RESULT:      -7.3      2.145      3.775
REMARK  Name = 
REMARK  4 active torsions:
REMARK  status: ('A' for Active; 'I' for Inactive)
REMARK    1  A    between atoms: C_1  and  N_2
REMARK    2  A    between atoms: C_6  and  C_7
REMARK    3  A    between atoms: C_8  and  N_9
REMARK    4  A    between atoms: N_23  and  C_24
REMARK                            x       y       z     vdW  Elec       q    Type
REMARK                         _______ _______ _______ _____ _____    ______ ____
ROOT
ATOM      1  C   UNL     1       4.053   5.456  17.244  0.00  0.00    +0.000 C 
ATOM      2  C   UNL     1       3.918   6.774  18.041  0.00  0.00    +0.000 C 
ATOM      3  C   UNL     1       5.353   7.266  18.194  0.00  0.00    +0.000 C 
ATOM      4  C   UNL     1       6.055   6.661  17.011  0.00  0.00    +0.000 C 
ATOM      5  O   UNL     1       7.099   7.081  16.532  0.00  0.00    +0.000 OA
ATOM      6  N   UNL     1       5.334   5.544  16.579  0.00  0.00    +0.000 N 
ENDROOT
BRANCH   2   7
ATOM      7  N   UNL     1       3.105   7.792  17.357  0.00  0.00    +0.000 N 
ATOM      8  C   UNL     1       2.271   8.514  18.129  0.00  0.00    +0.000 A 
ATOM      9  N   UNL     1       1.817   8.240  19.330  0.00  0.00    +0.000 NA
ATOM     10  C   UNL     1       1.033   9.322  19.634  0.00  0.00    +0.000 A 
ATOM     11  C   UNL     1       0.249   9.599  20.760  0.00  0.00    +0.000 A 
ATOM     12  C   UNL     1      -0.436  10.816  20.780  0.00  0.00    +0.000 A 
ATOM     13  F   UNL     1      -1.212  11.105  21.834  0.00  0.00    +0.000 F 
ATOM     14  C   UNL     1      -0.341  11.739  19.733  0.00  0.00    +0.000 A 
ATOM     15  C   UNL     1       0.434  11.473  18.600  0.00  0.00    +0.000 A 
ATOM     16  C   UNL     1       1.082  10.240  18.598  0.00  0.00    +0.000 A 
ATOM     17  O   UNL     1       1.853   9.705  17.607  0.00  0.00    +0.000 OA
ATOM     18  H   UNL     1       2.711   7.512  16.464  0.00  0.00    +0.000 HD
ENDBRANCH   2   7
BRANCH   1  24
ATOM     19  C   UNL     1       1.409   3.733  18.036  0.00  0.00    +0.000 C 
ATOM     20  N   UNL     1       2.787   3.514  18.410  0.00  0.00    +0.000 N 
ATOM     21  N   UNL     1       3.062   2.400  19.122  0.00  0.00    +0.000 NA
ATOM     22  C   UNL     1       4.364   2.484  19.382  0.00  0.00    +0.000 A 
ATOM     23  C   UNL     1       4.932   3.640  18.838  0.00  0.00    +0.000 A 
ATOM     24  C   UNL     1       3.905   4.273  18.153  0.00  0.00    +0.000 A 
ENDBRANCH   1  24
BRANCH   6  25
ATOM     25  C   UNL     1       5.515   4.997  15.263  0.00  0.00    +0.000 C 
ATOM     26  C   UNL     1       5.751   3.527  15.047  0.00  0.00    +0.000 C 
ATOM     27  C   UNL     1       6.852   4.508  14.776  0.00  0.00    +0.000 C 
ENDBRANCH   6  25
TORSDOF 3
ENDMDL
MODEL 5
REMARK VINA RESULT:      -7.2      3.434      8.471
REMARK  Name = 
REMARK  4 active torsions:
REMARK  status: ('A' for Active; 'I' for Inactive)
REMARK    1  A    between atoms: C_1  and  N_2
REMARK    2  A    between atoms: C_6  and  C_7
REMARK    3  A    between atoms: C_8  and  N_9
REMARK    4  A    between atoms: N_23  and  C_24
REMARK                            x       y       z     vdW  Elec       q    Type
REMARK                         _______ _______ _______ _____ _____    ______ ____
ROOT
ATOM      1  C   UNL     1       0.932  10.948  20.235  0.00  0.00    +0.000 C 
ATOM      2  C   UNL     1       0.532   9.890  19.182  0.00  0.00    +0.000 C 
ATOM      3  C   UNL     1      -0.613  10.540  18.415  0.00  0.00    +0.000 C 
ATOM      4  C   UNL     1      -0.348  12.011  18.578  0.00  0.00    +0.000 C 
ATOM      5  O   UNL     1      -0.781  12.883  17.838  0.00  0.00    +0.000 OA
ATOM      6  N   UNL     1       0.441  12.205  19.715  0.00  0.00    +0.000 N 
ENDROOT
BRANCH   2   7
ATOM      7  N   UNL     1       1.623   9.539  18.260  0.00  0.00    +0.000 N 
ATOM      8  C   UNL     1       2.217   8.347  18.455  0.00  0.00    +0.000 A 
ATOM      9  N   UNL     1       2.212   7.592  19.528  0.00  0.00    +0.000 NA
ATOM     10  C   UNL     1       2.951   6.498  19.158  0.00  0.00    +0.000 A 
ATOM     11  C   UNL     1       3.334   5.363  19.881  0.00  0.00    +0.000 A 
ATOM     12  C   UNL     1       4.089   4.399  19.208  0.00  0.00    +0.000 A 
ATOM     13  F   UNL     1       4.491   3.309  19.875  0.00  0.00    +0.000 F 
ATOM     14  C   UNL     1       4.442   4.539  17.862  0.00  0.00    +0.000 A 
ATOM     15  C   UNL     1       4.069   5.670  17.128  0.00  0.00    +0.000 A 
ATOM     16  C   UNL     1       3.343   6.626  17.836  0.00  0.00    +0.000 A 
ATOM     17  O   UNL     1       2.900   7.836  17.388  0.00  0.00    +0.000 OA
ATOM     18  H   UNL     1       2.265  10.293  18.031  0.00  0.00    +0.000 HD
ENDBRANCH   2   7
BRANCH   1  24
ATOM     19  C   UNL     1      -1.651  12.094  21.848  0.00  0.00    +0.000 C 
ATOM     20  N   UNL     1      -0.749  11.026  22.210  0.00  0.00    +0.000 N 
ATOM     21  N   UNL     1      -1.038  10.331  23.331  0.00  0.00    +0.000 NA
ATOM     22  C   UNL     1      -0.028   9.473  23.460  0.00  0.00    +0.000 A 
ATOM     23  C   UNL     1       0.904   9.605  22.427  0.00  0.00    +0.000 A 
ATOM     24  C   UNL     1       0.392  10.580  21.584  0.00  0.00    +0.000 A 
ENDBRANCH   1  24
BRANCH   6  25
ATOM     25  C   UNL     1       1.181  13.420  19.917  0.00  0.00    +0.000 C 
ATOM     26  C   UNL     1       2.420  13.455  20.769  0.00  0.00    +0.000 C 
ATOM     27  C   UNL     1       1.176  14.152  21.232  0.00  0.00    +0.000 C 
ENDBRANCH   6  25
TORSDOF 3
ENDMDL
MODEL 6
REMARK VINA RESULT:      -7.2      2.264      3.654
REMARK  Name = 
REMARK  4 active torsions:
REMARK  status: ('A' for Active; 'I' for Inactive)
REMARK    1  A    between atoms: C_1  and  N_2
REMARK    2  A    between atoms: C_6  and  C_7
REMARK    3  A    between atoms: C_8  and  N_9
REMARK    4  A    between atoms: N_23  and  C_24
REMARK                            x       y       z     vdW  Elec       q    Type
REMARK                         _______ _______ _______ _____ _____    ______ ____
ROOT
ATOM      1  C   UNL     1       4.103   5.474  16.778  0.00  0.00    +0.000 C 
ATOM      2  C   UNL     1       3.863   6.630  17.775  0.00  0.00    +0.000 C 
ATOM      3  C   UNL     1       5.264   7.075  18.176  0.00  0.00    +0.000 C 
ATOM      4  C   UNL     1       6.104   6.685  16.992  0.00  0.00    +0.000 C 
ATOM      5  O   UNL     1       7.191   7.175  16.718  0.00  0.00    +0.000 OA
ATOM      6  N   UNL     1       5.451   5.669  16.289  0.00  0.00    +0.000 N 
ENDROOT
BRANCH   2   7
ATOM      7  N   UNL     1       3.120   7.760  17.196  0.00  0.00    +0.000 N 
ATOM      8  C   UNL     1       2.338   8.462  18.037  0.00  0.00    +0.000 A 
ATOM      9  N   UNL     1       1.868   8.108  19.211  0.00  0.00    +0.000 NA
ATOM     10  C   UNL     1       1.160   9.208  19.621  0.00  0.00    +0.000 A 
ATOM     11  C   UNL     1       0.398   9.431  20.774  0.00  0.00    +0.000 A 
ATOM     12  C   UNL     1      -0.202  10.685  20.911  0.00  0.00    +0.000 A 
ATOM     13  F   UNL     1      -0.955  10.926  21.993  0.00  0.00    +0.000 F 
ATOM     14  C   UNL     1      -0.046  11.693  19.954  0.00  0.00    +0.000 A 
ATOM     15  C   UNL     1       0.708  11.482  18.796  0.00  0.00    +0.000 A 
ATOM     16  C   UNL     1       1.269  10.213  18.673  0.00  0.00    +0.000 A 
ATOM     17  O   UNL     1       2.002   9.722  17.632  0.00  0.00    +0.000 OA
ATOM     18  H   UNL     1       2.706   7.592  16.283  0.00  0.00    +0.000 HD
ENDBRANCH   2   7
BRANCH   1  24
ATOM     19  C   UNL     1       5.665   4.054  19.254  0.00  0.00    +0.000 C 
ATOM     20  N   UNL     1       4.494   3.606  18.536  0.00  0.00    +0.000 N 
ATOM     21  N   UNL     1       3.891   2.484  18.983  0.00  0.00    +0.000 NA
ATOM     22  C   UNL     1       2.905   2.269  18.115  0.00  0.00    +0.000 A 
ATOM     23  C   UNL     1       2.863   3.248  17.118  0.00  0.00    +0.000 A 
ATOM     24  C   UNL     1       3.868   4.149  17.439  0.00  0.00    +0.000 A 
ENDBRANCH   1  24
BRANCH   6  25
ATOM     25  C   UNL     1       5.786   5.364  14.927  0.00  0.00    +0.000 C 
ATOM     26  C   UNL     1       5.466   4.026  14.317  0.00  0.00    +0.000 C 
ATOM     27  C   UNL     1       6.894   4.409  14.569  0.00  0.00    +0.000 C 
ENDBRANCH   6  25
TORSDOF 3
ENDMDL
MODEL 7
REMARK VINA RESULT:      -7.2      2.175      3.950
REMARK  Name = 
REMARK  4 active torsions:
REMARK  status: ('A' for Active; 'I' for Inactive)
REMARK    1  A    between atoms: C_1  and  N_2
REMARK    2  A    between atoms: C_6  and  C_7
REMARK    3  A    between atoms: C_8  and  N_9
REMARK    4  A    between atoms: N_23  and  C_24
REMARK                            x       y       z     vdW  Elec       q    Type
REMARK                         _______ _______ _______ _____ _____    ______ ____
ROOT
ATOM      1  C   UNL     1       4.306   4.556  17.123  0.00  0.00    +0.000 C 
ATOM      2  C   UNL     1       4.252   5.831  17.996  0.00  0.00    +0.000 C 
ATOM      3  C   UNL     1       5.680   5.998  18.500  0.00  0.00    +0.000 C 
ATOM      4  C   UNL     1       6.504   5.319  17.442  0.00  0.00    +0.000 C 
ATOM      5  O   UNL     1       7.692   5.530  17.241  0.00  0.00    +0.000 OA
ATOM      6  N   UNL     1       5.697   4.403  16.759  0.00  0.00    +0.000 N 
ENDROOT
BRANCH   2   7
ATOM      7  N   UNL     1       3.833   7.031  17.256  0.00  0.00    +0.000 N 
ATOM      8  C   UNL     1       2.987   7.865  17.890  0.00  0.00    +0.000 A 
ATOM      9  N   UNL     1       2.214   7.623  18.923  0.00  0.00    +0.000 NA
ATOM     10  C   UNL     1       1.597   8.825  19.154  0.00  0.00    +0.000 A 
ATOM     11  C   UNL     1       0.631   9.194  20.097  0.00  0.00    +0.000 A 
ATOM     12  C   UNL     1       0.201  10.523  20.087  0.00  0.00    +0.000 A 
ATOM     13  F   UNL     1      -0.737  10.906  20.964  0.00  0.00    +0.000 F 
ATOM     14  C   UNL     1       0.717  11.464  19.190  0.00  0.00    +0.000 A 
ATOM     15  C   UNL     1       1.679  11.108  18.240  0.00  0.00    +0.000 A 
ATOM     16  C   UNL     1       2.065   9.770  18.255  0.00  0.00    +0.000 A 
ATOM     17  O   UNL     1       2.939   9.144  17.414  0.00  0.00    +0.000 OA
ATOM     18  H   UNL     1       3.621   6.889  16.273  0.00  0.00    +0.000 HD
ENDBRANCH   2   7
BRANCH   1  24
ATOM     19  C   UNL     1       1.239   3.959  18.032  0.00  0.00    +0.000 C 
ATOM     20  N   UNL     1       2.409   3.123  18.163  0.00  0.00    +0.000 N 
ATOM     21  N   UNL     1       2.224   1.879  18.656  0.00  0.00    +0.000 NA
ATOM     22  C   UNL     1       3.449   1.366  18.732  0.00  0.00    +0.000 A 
ATOM     23  C   UNL     1       4.421   2.266  18.286  0.00  0.00    +0.000 A 
ATOM     24  C   UNL     1       3.724   3.387  17.860  0.00  0.00    +0.000 A 
ENDBRANCH   1  24
BRANCH   6  25
ATOM     25  C   UNL     1       6.065   3.898  15.466  0.00  0.00    +0.000 C 
ATOM     26  C   UNL     1       6.778   4.757  14.458  0.00  0.00    +0.000 C 
ATOM     27  C   UNL     1       5.362   4.331  14.207  0.00  0.00    +0.000 C 
ENDBRANCH   6  25
TORSDOF 3
ENDMDL
MODEL 8
REMARK VINA RESULT:      -7.1      1.061      1.570
REMARK  Name = 
REMARK  4 active torsions:
REMARK  status: ('A' for Active; 'I' for Inactive)
REMARK    1  A    between atoms: C_1  and  N_2
REMARK    2  A    between atoms: C_6  and  C_7
REMARK    3  A    between atoms: C_8  and  N_9
REMARK    4  A    between atoms: N_23  and  C_24
REMARK                            x       y       z     vdW  Elec       q    Type
REMARK                         _______ _______ _______ _____ _____    ______ ____
ROOT
ATOM      1  C   UNL     1       4.416   5.092  18.615  0.00  0.00    +0.000 C 
ATOM      2  C   UNL     1       3.398   6.251  18.719  0.00  0.00    +0.000 C 
ATOM      3  C   UNL     1       2.305   5.877  17.725  0.00  0.00    +0.000 C 
ATOM      4  C   UNL     1       2.393   4.378  17.659  0.00  0.00    +0.000 C 
ATOM      5  O   UNL     1       1.487   3.643  17.290  0.00  0.00    +0.000 OA
ATOM      6  N   UNL     1       3.672   3.982  18.060  0.00  0.00    +0.000 N 
ENDROOT
BRANCH   2   7
ATOM      7  N   UNL     1       2.825   6.410  20.064  0.00  0.00    +0.000 N 
ATOM      8  C   UNL     1       2.067   7.503  20.271  0.00  0.00    +0.000 A 
ATOM      9  N   UNL     1       2.025   8.617  19.578  0.00  0.00    +0.000 NA
ATOM     10  C   UNL     1       1.072   9.363  20.222  0.00  0.00    +0.000 A 
ATOM     11  C   UNL     1       0.604  10.660  19.981  0.00  0.00    +0.000 A 
ATOM     12  C   UNL     1      -0.402  11.144  20.820  0.00  0.00    +0.000 A 
ATOM     13  F   UNL     1      -0.859  12.389  20.631  0.00  0.00    +0.000 F 
ATOM     14  C   UNL     1      -0.943  10.372  21.853  0.00  0.00    +0.000 A 
ATOM     15  C   UNL     1      -0.483   9.077  22.108  0.00  0.00    +0.000 A 
ATOM     16  C   UNL     1       0.541   8.634  21.274  0.00  0.00    +0.000 A 
ATOM     17  O   UNL     1       1.207   7.444  21.330  0.00  0.00    +0.000 OA
ATOM     18  H   UNL     1       3.445   6.180  20.835  0.00  0.00    +0.000 HD
ENDBRANCH   2   7
BRANCH   1  24
ATOM     19  C   UNL     1       5.155   4.496  15.503  0.00  0.00    +0.000 C 
ATOM     20  N   UNL     1       5.858   5.307  16.469  0.00  0.00    +0.000 N 
ATOM     21  N   UNL     1       6.934   5.993  16.028  0.00  0.00    +0.000 NA
ATOM     22  C   UNL     1       7.419   6.586  17.117  0.00  0.00    +0.000 A 
ATOM     23  C   UNL     1       6.659   6.293  18.253  0.00  0.00    +0.000 A 
ATOM     24  C   UNL     1       5.607   5.507  17.807  0.00  0.00    +0.000 A 
ENDBRANCH   1  24
BRANCH   6  25
ATOM     25  C   UNL     1       3.943   2.636  18.481  0.00  0.00    +0.000 C 
ATOM     26  C   UNL     1       2.933   1.833  19.254  0.00  0.00    +0.000 C 
ATOM     27  C   UNL     1       4.198   2.283  19.922  0.00  0.00    +0.000 C 
ENDBRANCH   6  25
TORSDOF 3
ENDMDL
MODEL 9
REMARK VINA RESULT:      -7.1      1.959      3.696
REMARK  Name = 
REMARK  4 active torsions:
REMARK  status: ('A' for Active; 'I' for Inactive)
REMARK    1  A    between atoms: C_1  and  N_2
REMARK    2  A    between atoms: C_6  and  C_7
REMARK    3  A    between atoms: C_8  and  N_9
REMARK    4  A    between atoms: N_23  and  C_24
REMARK                            x       y       z     vdW  Elec       q    Type
REMARK                         _______ _______ _______ _____ _____    ______ ____
ROOT
ATOM      1  C   UNL     1       3.625   4.708  17.545  0.00  0.00    +0.000 C 
ATOM      2  C   UNL     1       3.557   5.989  18.407  0.00  0.00    +0.000 C 
ATOM      3  C   UNL     1       4.862   5.979  19.193  0.00  0.00    +0.000 C 
ATOM      4  C   UNL     1       5.791   5.188  18.315  0.00  0.00    +0.000 C 
ATOM      5  O   UNL     1       7.012   5.245  18.363  0.00  0.00    +0.000 OA
ATOM      6  N   UNL     1       5.031   4.375  17.469  0.00  0.00    +0.000 N 
ENDROOT
BRANCH   2   7
ATOM      7  N   UNL     1       3.453   7.224  17.615  0.00  0.00    +0.000 N 
ATOM      8  C   UNL     1       2.643   8.184  18.100  0.00  0.00    +0.000 A 
ATOM      9  N   UNL     1       1.677   8.077  18.983  0.00  0.00    +0.000 NA
ATOM     10  C   UNL     1       1.213   9.360  19.112  0.00  0.00    +0.000 A 
ATOM     11  C   UNL     1       0.165   9.883  19.877  0.00  0.00    +0.000 A 
ATOM     12  C   UNL     1      -0.056  11.261  19.804  0.00  0.00    +0.000 A 
ATOM     13  F   UNL     1      -1.064  11.793  20.508  0.00  0.00    +0.000 F 
ATOM     14  C   UNL     1       0.739  12.100  19.017  0.00  0.00    +0.000 A 
ATOM     15  C   UNL     1       1.787  11.590  18.244  0.00  0.00    +0.000 A 
ATOM     16  C   UNL     1       1.963  10.210  18.315  0.00  0.00    +0.000 A 
ATOM     17  O   UNL     1       2.866   9.448  17.633  0.00  0.00    +0.000 OA
ATOM     18  H   UNL     1       3.394   7.097  16.609  0.00  0.00    +0.000 HD
ENDBRANCH   2   7
BRANCH   1  24
ATOM     19  C   UNL     1       4.341   2.389  19.713  0.00  0.00    +0.000 C 
ATOM     20  N   UNL     1       3.070   2.710  19.106  0.00  0.00    +0.000 N 
ATOM     21  N   UNL     1       1.991   2.023  19.537  0.00  0.00    +0.000 NA
ATOM     22  C   UNL     1       0.991   2.463  18.777  0.00  0.00    +0.000 A 
ATOM     23  C   UNL     1       1.415   3.433  17.865  0.00  0.00    +0.000 A 
ATOM     24  C   UNL     1       2.763   3.631  18.131  0.00  0.00    +0.000 A 
ENDBRANCH   1  24
BRANCH   6  25
ATOM     25  C   UNL     1       5.586   3.812  16.271  0.00  0.00    +0.000 C 
ATOM     26  C   UNL     1       6.699   4.494  15.522  0.00  0.00    +0.000 C 
ATOM     27  C   UNL     1       5.331   4.408  14.912  0.00  0.00    +0.000 C 
ENDBRANCH   6  25
TORSDOF 3
ENDMDL
