MODEL 1
REMARK VINA RESULT:      -9.2      0.000      0.000
REMARK  Name = 
REMARK  5 active torsions:
REMARK  status: ('A' for Active; 'I' for Inactive)
REMARK    1  A    between atoms: C_1  and  C_2
REMARK    2  A    between atoms: N_6  and  C_7
REMARK    3  A    between atoms: C_10  and  C_11
REMARK    4  A    between atoms: C_11  and  N_12
REMARK    5  A    between atoms: C_21  and  C_22
REMARK                            x       y       z     vdW  Elec       q    Type
REMARK                         _______ _______ _______ _____ _____    ______ ____
ROOT
ATOM      1  N   UNL     1       2.157   7.062  19.341  0.00  0.00    +0.000 N 
ATOM      2  C   UNL     1       2.992   6.167  18.714  0.00  0.00    +0.000 C 
ATOM      3  O   UNL     1       3.536   6.465  17.658  0.00  0.00    +0.000 OA
ATOM      4  N   UNL     1       3.137   4.943  19.365  0.00  0.00    +0.000 N 
ATOM      5  C   UNL     1       2.125   4.508  20.347  0.00  0.00    +0.000 C 
ATOM      6  C   UNL     1       2.449   3.290  21.215  0.00  0.00    +0.000 C 
ATOM      7  O   UNL     1       1.782   3.001  22.207  0.00  0.00    +0.000 OA
ATOM      8  N   UNL     1       3.440   2.455  20.786  0.00  0.00    +0.000 N 
ATOM      9  C   UNL     1       4.426   2.881  19.815  0.00  0.00    +0.000 C 
ATOM     10  C   UNL     1       3.844   3.807  18.714  0.00  0.00    +0.000 C 
ATOM     11  H   UNL     1       2.045   6.993  20.336  0.00  0.00    +0.000 HD
ATOM     12  H   UNL     1       3.666   1.712  21.437  0.00  0.00    +0.000 HD
ENDROOT
BRANCH  10  13
ATOM     13  C   UNL     1       4.954   4.115  17.721  0.00  0.00    +0.000 A 
ATOM     14  C   UNL     1       4.729   3.918  16.346  0.00  0.00    +0.000 A 
ATOM     15  C   UNL     1       5.731   4.189  15.411  0.00  0.00    +0.000 A 
ATOM     16  C   UNL     1       6.971   4.655  15.837  0.00  0.00    +0.000 A 
ATOM     17  C   UNL     1       7.212   4.850  17.197  0.00  0.00    +0.000 A 
ATOM     18  C   UNL     1       6.212   4.579  18.133  0.00  0.00    +0.000 A 
ENDBRANCH  10  13
BRANCH   1  19
ATOM     19  C   UNL     1       1.928   8.384  18.808  0.00  0.00    +0.000 C 
BRANCH  19  23
ATOM     20  C   UNL     1      -0.263  11.104  21.381  0.00  0.00    +0.000 A 
ATOM     21  C   UNL     1      -0.181  11.307  20.000  0.00  0.00    +0.000 A 
ATOM     22  C   UNL     1       0.533  10.413  19.195  0.00  0.00    +0.000 A 
ATOM     23  C   UNL     1       1.188   9.307  19.749  0.00  0.00    +0.000 A 
ATOM     24  C   UNL     1       1.112   9.113  21.134  0.00  0.00    +0.000 A 
ATOM     25  C   UNL     1       0.403  10.011  21.940  0.00  0.00    +0.000 A 
ATOM     26  F   UNL     1       0.344   9.748  23.255  0.00  0.00    +0.000 F 
BRANCH  20  32
ATOM     27  C   UNL     1       0.430  14.134  21.954  0.00  0.00    +0.000 C 
ATOM     28  C   UNL     1      -0.659  13.321  22.559  0.00  0.00    +0.000 A 
ATOM     29  N   UNL     1      -1.529  13.812  23.425  0.00  0.00    +0.000 NA
ATOM     30  C   UNL     1      -2.479  12.851  23.588  0.00  0.00    +0.000 A 
ATOM     31  C   UNL     1      -2.187  11.748  22.828  0.00  0.00    +0.000 A 
ATOM     32  N   UNL     1      -0.988  12.012  22.201  0.00  0.00    +0.000 N 
ENDBRANCH  20  32
ENDBRANCH  19  23
ENDBRANCH   1  19
TORSDOF 4
ENDMDL
MODEL 2
REMARK VINA RESULT:      -9.1      0.883      1.405
REMARK  Name = 
REMARK  5 active torsions:
REMARK  status: ('A' for Active; 'I' for Inactive)
REMARK    1  A    between atoms: C_1  and  C_2
REMARK    2  A    between atoms: N_6  and  C_7
REMARK    3  A    between atoms: C_10  and  C_11
REMARK    4  A    between atoms: C_11  and  N_12
REMARK    5  A    between atoms: C_21  and  C_22
REMARK                            x       y       z     vdW  Elec       q    Type
REMARK                         _______ _______ _______ _____ _____    ______ ____
ROOT
ATOM      1  N   UNL     1       2.282   7.162  19.261  0.00  0.00    +0.000 N 
ATOM      2  C   UNL     1       3.082   6.241  18.627  0.00  0.00    +0.000 C 
ATOM      3  O   UNL     1       3.621   6.518  17.563  0.00  0.00    +0.000 OA
ATOM      4  N   UNL     1       3.201   5.016  19.283  0.00  0.00    +0.000 N 
ATOM      5  C   UNL     1       2.190   4.615  20.281  0.00  0.00    +0.000 C 
ATOM      6  C   UNL     1       2.490   3.393  21.150  0.00  0.00    +0.000 C 
ATOM      7  O   UNL     1       1.829   3.129  22.153  0.00  0.00    +0.000 OA
ATOM      8  N   UNL     1       3.451   2.528  20.713  0.00  0.00    +0.000 N 
ATOM      9  C   UNL     1       4.436   2.921  19.727  0.00  0.00    +0.000 C 
ATOM     10  C   UNL     1       3.867   3.858  18.629  0.00  0.00    +0.000 C 
ATOM     11  H   UNL     1       2.181   7.101  20.257  0.00  0.00    +0.000 HD
ATOM     12  H   UNL     1       3.665   1.782  21.365  0.00  0.00    +0.000 HD
ENDROOT
BRANCH  10  13
ATOM     13  C   UNL     1       4.972   4.128  17.620  0.00  0.00    +0.000 A 
ATOM     14  C   UNL     1       6.230   4.569  18.071  0.00  0.00    +0.000 A 
ATOM     15  C   UNL     1       7.263   4.829  17.166  0.00  0.00    +0.000 A 
ATOM     16  C   UNL     1       7.052   4.655  15.802  0.00  0.00    +0.000 A 
ATOM     17  C   UNL     1       5.810   4.223  15.339  0.00  0.00    +0.000 A 
ATOM     18  C   UNL     1       4.775   3.964  16.241  0.00  0.00    +0.000 A 
ENDBRANCH  10  13
BRANCH   1  19
ATOM     19  C   UNL     1       2.083   8.488  18.724  0.00  0.00    +0.000 C 
BRANCH  19  23
ATOM     20  C   UNL     1      -0.561  11.084  20.979  0.00  0.00    +0.000 A 
ATOM     21  C   UNL     1       0.050  11.509  19.796  0.00  0.00    +0.000 A 
ATOM     22  C   UNL     1       0.898  10.650  19.089  0.00  0.00    +0.000 A 
ATOM     23  C   UNL     1       1.165   9.356  19.552  0.00  0.00    +0.000 A 
ATOM     24  C   UNL     1       0.559   8.938  20.744  0.00  0.00    +0.000 A 
ATOM     25  C   UNL     1      -0.284   9.800  21.454  0.00  0.00    +0.000 A 
ATOM     26  F   UNL     1      -0.856   9.325  22.571  0.00  0.00    +0.000 F 
BRANCH  20  32
ATOM     27  C   UNL     1      -3.216  12.443  19.933  0.00  0.00    +0.000 C 
ATOM     28  C   UNL     1      -2.541  12.655  21.242  0.00  0.00    +0.000 A 
ATOM     29  N   UNL     1      -3.023  13.452  22.180  0.00  0.00    +0.000 NA
ATOM     30  C   UNL     1      -2.264  13.230  23.287  0.00  0.00    +0.000 A 
ATOM     31  C   UNL     1      -1.293  12.297  23.029  0.00  0.00    +0.000 A 
ATOM     32  N   UNL     1      -1.422  11.957  21.699  0.00  0.00    +0.000 N 
ENDBRANCH  20  32
ENDBRANCH  19  23
ENDBRANCH   1  19
TORSDOF 4
ENDMDL
MODEL 3
REMARK VINA RESULT:      -8.9      0.956      1.297
REMARK  Name = 
REMARK  5 active torsions:
REMARK  status: ('A' for Active; 'I' for Inactive)
REMARK    1  A    between atoms: C_1  and  C_2
REMARK    2  A    between atoms: N_6  and  C_7
REMARK    3  A    between atoms: C_10  and  C_11
REMARK    4  A    between atoms: C_11  and  N_12
REMARK    5  A    between atoms: C_21  and  C_22
REMARK                            x       y       z     vdW  Elec       q    Type
REMARK                         _______ _______ _______ _____ _____    ______ ____
ROOT
ATOM      1  N   UNL     1       2.205   7.155  19.025  0.00  0.00    +0.000 N 
ATOM      2  C   UNL     1       3.045   6.228  18.454  0.00  0.00    +0.000 C 
ATOM      3  O   UNL     1       3.613   6.476  17.399  0.00  0.00    +0.000 OA
ATOM      4  N   UNL     1       3.165   5.032  19.160  0.00  0.00    +0.000 N 
ATOM      5  C   UNL     1       2.128   4.647  20.138  0.00  0.00    +0.000 C 
ATOM      6  C   UNL     1       2.423   3.465  21.063  0.00  0.00    +0.000 C 
ATOM      7  O   UNL     1       1.734   3.225  22.052  0.00  0.00    +0.000 OA
ATOM      8  N   UNL     1       3.415   2.604  20.692  0.00  0.00    +0.000 N 
ATOM      9  C   UNL     1       4.425   2.980  19.724  0.00  0.00    +0.000 C 
ATOM     10  C   UNL     1       3.875   3.863  18.573  0.00  0.00    +0.000 C 
ATOM     11  H   UNL     1       2.072   7.130  20.019  0.00  0.00    +0.000 HD
ATOM     12  H   UNL     1       3.621   1.888  21.378  0.00  0.00    +0.000 HD
ENDROOT
BRANCH  10  13
ATOM     13  C   UNL     1       5.008   4.119  17.592  0.00  0.00    +0.000 A 
ATOM     14  C   UNL     1       4.805   3.878  16.220  0.00  0.00    +0.000 A 
ATOM     15  C   UNL     1       5.830   4.100  15.296  0.00  0.00    +0.000 A 
ATOM     16  C   UNL     1       7.069   4.562  15.730  0.00  0.00    +0.000 A 
ATOM     17  C   UNL     1       7.287   4.801  17.086  0.00  0.00    +0.000 A 
ATOM     18  C   UNL     1       6.266   4.578  18.012  0.00  0.00    +0.000 A 
ENDBRANCH  10  13
BRANCH   1  19
ATOM     19  C   UNL     1       1.999   8.456  18.432  0.00  0.00    +0.000 C 
BRANCH  19  23
ATOM     20  C   UNL     1      -0.140  11.147  21.077  0.00  0.00    +0.000 A 
ATOM     21  C   UNL     1       0.525  10.016  21.562  0.00  0.00    +0.000 A 
ATOM     22  C   UNL     1       1.206   9.166  20.685  0.00  0.00    +0.000 A 
ATOM     23  C   UNL     1       1.230   9.417  19.308  0.00  0.00    +0.000 A 
ATOM     24  C   UNL     1       0.554  10.545  18.826  0.00  0.00    +0.000 A 
ATOM     25  C   UNL     1      -0.133  11.392  19.702  0.00  0.00    +0.000 A 
ATOM     26  F   UNL     1      -0.734  12.471  19.177  0.00  0.00    +0.000 F 
BRANCH  20  32
ATOM     27  C   UNL     1       0.596  14.132  21.808  0.00  0.00    +0.000 C 
ATOM     28  C   UNL     1      -0.485  13.294  22.393  0.00  0.00    +0.000 A 
ATOM     29  N   UNL     1      -1.328  13.740  23.309  0.00  0.00    +0.000 NA
ATOM     30  C   UNL     1      -2.282  12.779  23.440  0.00  0.00    +0.000 A 
ATOM     31  C   UNL     1      -2.020  11.720  22.609  0.00  0.00    +0.000 A 
ATOM     32  N   UNL     1      -0.835  12.011  21.968  0.00  0.00    +0.000 N 
ENDBRANCH  20  32
ENDBRANCH  19  23
ENDBRANCH   1  19
TORSDOF 4
ENDMDL
MODEL 4
REMARK VINA RESULT:      -8.9      1.315      1.894
REMARK  Name = 
REMARK  5 active torsions:
REMARK  status: ('A' for Active; 'I' for Inactive)
REMARK    1  A    between atoms: C_1  and  C_2
REMARK    2  A    between atoms: N_6  and  C_7
REMARK    3  A    between atoms: C_10  and  C_11
REMARK    4  A    between atoms: C_11  and  N_12
REMARK    5  A    between atoms: C_21  and  C_22
REMARK                            x       y       z     vdW  Elec       q    Type
REMARK                         _______ _______ _______ _____ _____    ______ ____
ROOT
ATOM      1  N   UNL     1       2.376   7.294  18.946  0.00  0.00    +0.000 N 
ATOM      2  C   UNL     1       3.176   6.337  18.367  0.00  0.00    +0.000 C 
ATOM      3  O   UNL     1       3.748   6.567  17.309  0.00  0.00    +0.000 OA
ATOM      4  N   UNL     1       3.253   5.135  19.068  0.00  0.00    +0.000 N 
ATOM      5  C   UNL     1       2.208   4.787  20.050  0.00  0.00    +0.000 C 
ATOM      6  C   UNL     1       2.462   3.591  20.969  0.00  0.00    +0.000 C 
ATOM      7  O   UNL     1       1.769   3.373  21.962  0.00  0.00    +0.000 OA
ATOM      8  N   UNL     1       3.418   2.694  20.589  0.00  0.00    +0.000 N 
ATOM      9  C   UNL     1       4.436   3.034  19.618  0.00  0.00    +0.000 C 
ATOM     10  C   UNL     1       3.915   3.942  18.473  0.00  0.00    +0.000 C 
ATOM     11  H   UNL     1       2.247   7.270  19.940  0.00  0.00    +0.000 HD
ATOM     12  H   UNL     1       3.600   1.967  21.272  0.00  0.00    +0.000 HD
ENDROOT
BRANCH  10  13
ATOM     13  C   UNL     1       5.051   4.157  17.486  0.00  0.00    +0.000 A 
ATOM     14  C   UNL     1       6.312   4.568  17.959  0.00  0.00    +0.000 A 
ATOM     15  C   UNL     1       7.374   4.777  17.075  0.00  0.00    +0.000 A 
ATOM     16  C   UNL     1       7.190   4.581  15.709  0.00  0.00    +0.000 A 
ATOM     17  C   UNL     1       5.946   4.179  15.225  0.00  0.00    +0.000 A 
ATOM     18  C   UNL     1       4.883   3.971  16.106  0.00  0.00    +0.000 A 
ENDBRANCH  10  13
BRANCH   1  19
ATOM     19  C   UNL     1       2.217   8.604  18.358  0.00  0.00    +0.000 C 
BRANCH  19  23
ATOM     20  C   UNL     1      -0.381  11.139  20.733  0.00  0.00    +0.000 A 
ATOM     21  C   UNL     1      -0.186   9.790  21.046  0.00  0.00    +0.000 A 
ATOM     22  C   UNL     1       0.658   8.997  20.262  0.00  0.00    +0.000 A 
ATOM     23  C   UNL     1       1.314   9.526  19.145  0.00  0.00    +0.000 A 
ATOM     24  C   UNL     1       1.107  10.875  18.829  0.00  0.00    +0.000 A 
ATOM     25  C   UNL     1       0.259  11.667  19.609  0.00  0.00    +0.000 A 
ATOM     26  F   UNL     1       0.130  12.958  19.269  0.00  0.00    +0.000 F 
BRANCH  20  32
ATOM     27  C   UNL     1      -3.153  12.399  19.883  0.00  0.00    +0.000 C 
ATOM     28  C   UNL     1      -2.415  12.603  21.158  0.00  0.00    +0.000 A 
ATOM     29  N   UNL     1      -2.879  13.347  22.149  0.00  0.00    +0.000 NA
ATOM     30  C   UNL     1      -2.048  13.127  23.204  0.00  0.00    +0.000 A 
ATOM     31  C   UNL     1      -1.050  12.251  22.860  0.00  0.00    +0.000 A 
ATOM     32  N   UNL     1      -1.240  11.947  21.529  0.00  0.00    +0.000 N 
ENDBRANCH  20  32
ENDBRANCH  19  23
ENDBRANCH   1  19
TORSDOF 4
ENDMDL
MODEL 5
REMARK VINA RESULT:      -8.7      1.134      1.503
REMARK  Name = 
REMARK  5 active torsions:
REMARK  status: ('A' for Active; 'I' for Inactive)
REMARK    1  A    between atoms: C_1  and  C_2
REMARK    2  A    between atoms: N_6  and  C_7
REMARK    3  A    between atoms: C_10  and  C_11
REMARK    4  A    between atoms: C_11  and  N_12
REMARK    5  A    between atoms: C_21  and  C_22
REMARK                            x       y       z     vdW  Elec       q    Type
REMARK                         _______ _______ _______ _____ _____    ______ ____
ROOT
ATOM      1  N   UNL     1       2.361   7.347  18.913  0.00  0.00    +0.000 N 
ATOM      2  C   UNL     1       3.159   6.384  18.342  0.00  0.00    +0.000 C 
ATOM      3  O   UNL     1       3.782   6.626  17.316  0.00  0.00    +0.000 OA
ATOM      4  N   UNL     1       3.176   5.161  19.012  0.00  0.00    +0.000 N 
ATOM      5  C   UNL     1       2.081   4.816  19.940  0.00  0.00    +0.000 C 
ATOM      6  C   UNL     1       2.264   3.589  20.835  0.00  0.00    +0.000 C 
ATOM      7  O   UNL     1       1.524   3.364  21.791  0.00  0.00    +0.000 OA
ATOM      8  N   UNL     1       3.212   2.677  20.471  0.00  0.00    +0.000 N 
ATOM      9  C   UNL     1       4.279   3.015  19.552  0.00  0.00    +0.000 C 
ATOM     10  C   UNL     1       3.831   3.967  18.412  0.00  0.00    +0.000 C 
ATOM     11  H   UNL     1       2.189   7.300  19.900  0.00  0.00    +0.000 HD
ATOM     12  H   UNL     1       3.346   1.928  21.140  0.00  0.00    +0.000 HD
ENDROOT
BRANCH  10  13
ATOM     13  C   UNL     1       5.014   4.178  17.480  0.00  0.00    +0.000 A 
ATOM     14  C   UNL     1       6.256   4.568  18.014  0.00  0.00    +0.000 A 
ATOM     15  C   UNL     1       7.360   4.772  17.181  0.00  0.00    +0.000 A 
ATOM     16  C   UNL     1       7.236   4.592  15.807  0.00  0.00    +0.000 A 
ATOM     17  C   UNL     1       6.011   4.211  15.263  0.00  0.00    +0.000 A 
ATOM     18  C   UNL     1       4.906   4.007  16.092  0.00  0.00    +0.000 A 
ENDBRANCH  10  13
BRANCH   1  19
ATOM     19  C   UNL     1       2.261   8.675  18.355  0.00  0.00    +0.000 C 
BRANCH  19  23
ATOM     20  C   UNL     1      -0.844  11.196  20.035  0.00  0.00    +0.000 A 
ATOM     21  C   UNL     1      -0.325  11.425  18.757  0.00  0.00    +0.000 A 
ATOM     22  C   UNL     1       0.676  10.595  18.241  0.00  0.00    +0.000 A 
ATOM     23  C   UNL     1       1.188   9.530  18.990  0.00  0.00    +0.000 A 
ATOM     24  C   UNL     1       0.673   9.311  20.274  0.00  0.00    +0.000 A 
ATOM     25  C   UNL     1      -0.324  10.145  20.793  0.00  0.00    +0.000 A 
ATOM     26  F   UNL     1      -0.795   9.860  22.016  0.00  0.00    +0.000 F 
BRANCH  20  32
ATOM     27  C   UNL     1      -0.605  13.186  22.479  0.00  0.00    +0.000 C 
ATOM     28  C   UNL     1      -1.824  12.851  21.697  0.00  0.00    +0.000 A 
ATOM     29  N   UNL     1      -3.003  13.406  21.925  0.00  0.00    +0.000 NA
ATOM     30  C   UNL     1      -3.805  13.018  20.897  0.00  0.00    +0.000 A 
ATOM     31  C   UNL     1      -3.124  12.203  20.031  0.00  0.00    +0.000 A 
ATOM     32  N   UNL     1      -1.861  12.040  20.561  0.00  0.00    +0.000 N 
ENDBRANCH  20  32
ENDBRANCH  19  23
ENDBRANCH   1  19
TORSDOF 4
ENDMDL
MODEL 6
REMARK VINA RESULT:      -8.6      3.106      9.541
REMARK  Name = 
REMARK  5 active torsions:
REMARK  status: ('A' for Active; 'I' for Inactive)
REMARK    1  A    between atoms: C_1  and  C_2
REMARK    2  A    between atoms: N_6  and  C_7
REMARK    3  A    between atoms: C_10  and  C_11
REMARK    4  A    between atoms: C_11  and  N_12
REMARK    5  A    between atoms: C_21  and  C_22
REMARK                            x       y       z     vdW  Elec       q    Type
REMARK                         _______ _______ _______ _____ _____    ______ ____
ROOT
ATOM      1  N   UNL     1       0.882   9.949  17.783  0.00  0.00    +0.000 N 
ATOM      2  C   UNL     1       0.145  10.609  18.737  0.00  0.00    +0.000 C 
ATOM      3  O   UNL     1       0.653  10.911  19.810  0.00  0.00    +0.000 OA
ATOM      4  N   UNL     1      -1.176  10.875  18.379  0.00  0.00    +0.000 N 
ATOM      5  C   UNL     1      -1.816  10.099  17.300  0.00  0.00    +0.000 C 
ATOM      6  C   UNL     1      -3.167  10.587  16.774  0.00  0.00    +0.000 C 
ATOM      7  O   UNL     1      -3.656  10.153  15.733  0.00  0.00    +0.000 OA
ATOM      8  N   UNL     1      -3.879  11.445  17.562  0.00  0.00    +0.000 N 
ATOM      9  C   UNL     1      -3.250  12.198  18.627  0.00  0.00    +0.000 C 
ATOM     10  C   UNL     1      -2.148  11.403  19.375  0.00  0.00    +0.000 C 
ATOM     11  H   UNL     1       0.623  10.058  16.820  0.00  0.00    +0.000 HD
ATOM     12  H   UNL     1      -4.725  11.799  17.131  0.00  0.00    +0.000 HD
ENDROOT
BRANCH  10  13
ATOM     13  C   UNL     1      -1.628  12.270  20.510  0.00  0.00    +0.000 A 
ATOM     14  C   UNL     1      -1.603  11.756  21.820  0.00  0.00    +0.000 A 
ATOM     15  C   UNL     1      -1.134  12.531  22.884  0.00  0.00    +0.000 A 
ATOM     16  C   UNL     1      -0.688  13.829  22.654  0.00  0.00    +0.000 A 
ATOM     17  C   UNL     1      -0.712  14.355  21.363  0.00  0.00    +0.000 A 
ATOM     18  C   UNL     1      -1.181  13.583  20.298  0.00  0.00    +0.000 A 
ENDBRANCH  10  13
BRANCH   1  19
ATOM     19  C   UNL     1       2.275   9.628  17.990  0.00  0.00    +0.000 C 
BRANCH  19  23
ATOM     20  C   UNL     1       3.109   5.461  18.862  0.00  0.00    +0.000 A 
ATOM     21  C   UNL     1       3.563   6.070  17.688  0.00  0.00    +0.000 A 
ATOM     22  C   UNL     1       3.279   7.416  17.433  0.00  0.00    +0.000 A 
ATOM     23  C   UNL     1       2.528   8.179  18.335  0.00  0.00    +0.000 A 
ATOM     24  C   UNL     1       2.067   7.562  19.505  0.00  0.00    +0.000 A 
ATOM     25  C   UNL     1       2.346   6.214  19.757  0.00  0.00    +0.000 A 
ATOM     26  F   UNL     1       1.900   5.695  20.911  0.00  0.00    +0.000 F 
BRANCH  20  32
ATOM     27  C   UNL     1       1.167   2.995  18.490  0.00  0.00    +0.000 C 
ATOM     28  C   UNL     1       2.538   2.993  19.068  0.00  0.00    +0.000 A 
ATOM     29  N   UNL     1       3.145   1.893  19.481  0.00  0.00    +0.000 NA
ATOM     30  C   UNL     1       4.432   2.250  19.741  0.00  0.00    +0.000 A 
ATOM     31  C   UNL     1       4.621   3.587  19.502  0.00  0.00    +0.000 A 
ATOM     32  N   UNL     1       3.396   4.093  19.121  0.00  0.00    +0.000 N 
ENDBRANCH  20  32
ENDBRANCH  19  23
ENDBRANCH   1  19
TORSDOF 4
ENDMDL
MODEL 7
REMARK VINA RESULT:      -8.5      1.631      2.121
REMARK  Name = 
REMARK  5 active torsions:
REMARK  status: ('A' for Active; 'I' for Inactive)
REMARK    1  A    between atoms: C_1  and  C_2
REMARK    2  A    between atoms: N_6  and  C_7
REMARK    3  A    between atoms: C_10  and  C_11
REMARK    4  A    between atoms: C_11  and  N_12
REMARK    5  A    between atoms: C_21  and  C_22
REMARK                            x       y       z     vdW  Elec       q    Type
REMARK                         _______ _______ _______ _____ _____    ______ ____
ROOT
ATOM      1  N   UNL     1       2.407   7.509  18.731  0.00  0.00    +0.000 N 
ATOM      2  C   UNL     1       3.201   6.529  18.183  0.00  0.00    +0.000 C 
ATOM      3  O   UNL     1       3.914   6.778  17.220  0.00  0.00    +0.000 OA
ATOM      4  N   UNL     1       3.104   5.282  18.800  0.00  0.00    +0.000 N 
ATOM      5  C   UNL     1       1.923   4.959  19.624  0.00  0.00    +0.000 C 
ATOM      6  C   UNL     1       1.974   3.691  20.478  0.00  0.00    +0.000 C 
ATOM      7  O   UNL     1       1.150   3.469  21.363  0.00  0.00    +0.000 OA
ATOM      8  N   UNL     1       2.902   2.746  20.150  0.00  0.00    +0.000 N 
ATOM      9  C   UNL     1       4.054   3.062  19.333  0.00  0.00    +0.000 C 
ATOM     10  C   UNL     1       3.745   4.080  18.203  0.00  0.00    +0.000 C 
ATOM     11  H   UNL     1       2.155   7.434  19.699  0.00  0.00    +0.000 HD
ATOM     12  H   UNL     1       2.945   1.965  20.796  0.00  0.00    +0.000 HD
ENDROOT
BRANCH  10  13
ATOM     13  C   UNL     1       5.008   4.264  17.376  0.00  0.00    +0.000 A 
ATOM     14  C   UNL     1       6.218   4.585  18.018  0.00  0.00    +0.000 A 
ATOM     15  C   UNL     1       7.392   4.764  17.283  0.00  0.00    +0.000 A 
ATOM     16  C   UNL     1       7.374   4.627  15.899  0.00  0.00    +0.000 A 
ATOM     17  C   UNL     1       6.182   4.313  15.247  0.00  0.00    +0.000 A 
ATOM     18  C   UNL     1       5.006   4.135  15.978  0.00  0.00    +0.000 A 
ENDBRANCH  10  13
BRANCH   1  19
ATOM     19  C   UNL     1       2.418   8.862  18.224  0.00  0.00    +0.000 C 
BRANCH  19  23
ATOM     20  C   UNL     1      -0.804  11.247  19.883  0.00  0.00    +0.000 A 
ATOM     21  C   UNL     1      -0.495   9.979  20.386  0.00  0.00    +0.000 A 
ATOM     22  C   UNL     1       0.549   9.233  19.831  0.00  0.00    +0.000 A 
ATOM     23  C   UNL     1       1.300   9.727  18.758  0.00  0.00    +0.000 A 
ATOM     24  C   UNL     1       0.980  10.993  18.250  0.00  0.00    +0.000 A 
ATOM     25  C   UNL     1      -0.069  11.737  18.801  0.00  0.00    +0.000 A 
ATOM     26  F   UNL     1      -0.301  12.954  18.286  0.00  0.00    +0.000 F 
BRANCH  20  32
ATOM     27  C   UNL     1      -0.816  12.753  22.662  0.00  0.00    +0.000 C 
ATOM     28  C   UNL     1      -1.947  12.597  21.708  0.00  0.00    +0.000 A 
ATOM     29  N   UNL     1      -3.139  13.131  21.910  0.00  0.00    +0.000 NA
ATOM     30  C   UNL     1      -3.829  12.958  20.750  0.00  0.00    +0.000 A 
ATOM     31  C   UNL     1      -3.063  12.295  19.825  0.00  0.00    +0.000 A 
ATOM     32  N   UNL     1      -1.866  12.007  20.445  0.00  0.00    +0.000 N 
ENDBRANCH  20  32
ENDBRANCH  19  23
ENDBRANCH   1  19
TORSDOF 4
ENDMDL
MODEL 8
REMARK VINA RESULT:      -8.5      1.553      2.051
REMARK  Name = 
REMARK  5 active torsions:
REMARK  status: ('A' for Active; 'I' for Inactive)
REMARK    1  A    between atoms: C_1  and  C_2
REMARK    2  A    between atoms: N_6  and  C_7
REMARK    3  A    between atoms: C_10  and  C_11
REMARK    4  A    between atoms: C_11  and  N_12
REMARK    5  A    between atoms: C_21  and  C_22
REMARK                            x       y       z     vdW  Elec       q    Type
REMARK                         _______ _______ _______ _____ _____    ______ ____
ROOT
ATOM      1  N   UNL     1       2.238   7.371  18.574  0.00  0.00    +0.000 N 
ATOM      2  C   UNL     1       3.091   6.417  18.071  0.00  0.00    +0.000 C 
ATOM      3  O   UNL     1       3.746   6.644  17.062  0.00  0.00    +0.000 OA
ATOM      4  N   UNL     1       3.122   5.221  18.786  0.00  0.00    +0.000 N 
ATOM      5  C   UNL     1       2.003   4.870  19.683  0.00  0.00    +0.000 C 
ATOM      6  C   UNL     1       2.191   3.684  20.630  0.00  0.00    +0.000 C 
ATOM      7  O   UNL     1       1.422   3.468  21.564  0.00  0.00    +0.000 OA
ATOM      8  N   UNL     1       3.183   2.794  20.337  0.00  0.00    +0.000 N 
ATOM      9  C   UNL     1       4.275   3.136  19.449  0.00  0.00    +0.000 C 
ATOM     10  C   UNL     1       3.840   4.030  18.258  0.00  0.00    +0.000 C 
ATOM     11  H   UNL     1       2.028   7.353  19.555  0.00  0.00    +0.000 HD
ATOM     12  H   UNL     1       3.316   2.074  21.038  0.00  0.00    +0.000 HD
ENDROOT
BRANCH  10  13
ATOM     13  C   UNL     1       5.052   4.248  17.365  0.00  0.00    +0.000 A 
ATOM     14  C   UNL     1       6.268   4.667  17.937  0.00  0.00    +0.000 A 
ATOM     15  C   UNL     1       7.397   4.879  17.141  0.00  0.00    +0.000 A 
ATOM     16  C   UNL     1       7.325   4.679  15.766  0.00  0.00    +0.000 A 
ATOM     17  C   UNL     1       6.127   4.269  15.184  0.00  0.00    +0.000 A 
ATOM     18  C   UNL     1       4.997   4.058  15.976  0.00  0.00    +0.000 A 
ENDBRANCH  10  13
BRANCH   1  19
ATOM     19  C   UNL     1       2.116   8.674  17.964  0.00  0.00    +0.000 C 
BRANCH  19  23
ATOM     20  C   UNL     1      -0.601  11.365  20.012  0.00  0.00    +0.000 A 
ATOM     21  C   UNL     1       0.749  11.276  20.366  0.00  0.00    +0.000 A 
ATOM     22  C   UNL     1       1.602  10.400  19.688  0.00  0.00    +0.000 A 
ATOM     23  C   UNL     1       1.126   9.585  18.653  0.00  0.00    +0.000 A 
ATOM     24  C   UNL     1      -0.229   9.670  18.309  0.00  0.00    +0.000 A 
ATOM     25  C   UNL     1      -1.084  10.542  18.992  0.00  0.00    +0.000 A 
ATOM     26  F   UNL     1      -2.363  10.596  18.591  0.00  0.00    +0.000 F 
BRANCH  20  32
ATOM     27  C   UNL     1      -1.482  11.212  23.044  0.00  0.00    +0.000 C 
ATOM     28  C   UNL     1      -1.962  12.163  22.006  0.00  0.00    +0.000 A 
ATOM     29  N   UNL     1      -2.831  13.128  22.257  0.00  0.00    +0.000 NA
ATOM     30  C   UNL     1      -2.862  13.904  21.140  0.00  0.00    +0.000 A 
ATOM     31  C   UNL     1      -2.017  13.409  20.181  0.00  0.00    +0.000 A 
ATOM     32  N   UNL     1      -1.470  12.255  20.702  0.00  0.00    +0.000 N 
ENDBRANCH  20  32
ENDBRANCH  19  23
ENDBRANCH   1  19
TORSDOF 4
ENDMDL
MODEL 9
REMARK VINA RESULT:      -8.5      3.381      9.618
REMARK  Name = 
REMARK  5 active torsions:
REMARK  status: ('A' for Active; 'I' for Inactive)
REMARK    1  A    between atoms: C_1  and  C_2
REMARK    2  A    between atoms: N_6  and  C_7
REMARK    3  A    between atoms: C_10  and  C_11
REMARK    4  A    between atoms: C_11  and  N_12
REMARK    5  A    between atoms: C_21  and  C_22
REMARK                            x       y       z     vdW  Elec       q    Type
REMARK                         _______ _______ _______ _____ _____    ______ ____
ROOT
ATOM      1  N   UNL     1       0.959   9.911  17.780  0.00  0.00    +0.000 N 
ATOM      2  C   UNL     1       0.211  10.570  18.727  0.00  0.00    +0.000 C 
ATOM      3  O   UNL     1       0.718  10.907  19.790  0.00  0.00    +0.000 OA
ATOM      4  N   UNL     1      -1.119  10.792  18.375  0.00  0.00    +0.000 N 
ATOM      5  C   UNL     1      -1.746   9.977  17.316  0.00  0.00    +0.000 C 
ATOM      6  C   UNL     1      -3.114  10.417  16.792  0.00  0.00    +0.000 C 
ATOM      7  O   UNL     1      -3.599   9.948  15.764  0.00  0.00    +0.000 OA
ATOM      8  N   UNL     1      -3.843  11.270  17.568  0.00  0.00    +0.000 N 
ATOM      9  C   UNL     1      -3.228  12.062  18.612  0.00  0.00    +0.000 C 
ATOM     10  C   UNL     1      -2.098  11.312  19.367  0.00  0.00    +0.000 C 
ATOM     11  H   UNL     1       0.690   9.994  16.817  0.00  0.00    +0.000 HD
ATOM     12  H   UNL     1      -4.702  11.591  17.137  0.00  0.00    +0.000 HD
ENDROOT
BRANCH  10  13
ATOM     13  C   UNL     1      -1.595  12.216  20.481  0.00  0.00    +0.000 A 
ATOM     14  C   UNL     1      -1.537  11.727  21.799  0.00  0.00    +0.000 A 
ATOM     15  C   UNL     1      -1.081  12.536  22.843  0.00  0.00    +0.000 A 
ATOM     16  C   UNL     1      -0.682  13.844  22.586  0.00  0.00    +0.000 A 
ATOM     17  C   UNL     1      -0.738  14.345  21.286  0.00  0.00    +0.000 A 
ATOM     18  C   UNL     1      -1.193  13.539  20.241  0.00  0.00    +0.000 A 
ENDBRANCH  10  13
BRANCH   1  19
ATOM     19  C   UNL     1       2.362   9.633  17.982  0.00  0.00    +0.000 C 
BRANCH  19  23
ATOM     20  C   UNL     1       3.145   5.443  18.786  0.00  0.00    +0.000 A 
ATOM     21  C   UNL     1       2.422   6.239  19.680  0.00  0.00    +0.000 A 
ATOM     22  C   UNL     1       2.185   7.587  19.394  0.00  0.00    +0.000 A 
ATOM     23  C   UNL     1       2.672   8.173  18.220  0.00  0.00    +0.000 A 
ATOM     24  C   UNL     1       3.405   7.375  17.333  0.00  0.00    +0.000 A 
ATOM     25  C   UNL     1       3.648   6.028  17.621  0.00  0.00    +0.000 A 
ATOM     26  F   UNL     1       4.330   5.314  16.714  0.00  0.00    +0.000 F 
BRANCH  20  32
ATOM     27  C   UNL     1       1.138   3.027  18.427  0.00  0.00    +0.000 C 
ATOM     28  C   UNL     1       2.498   2.997  19.028  0.00  0.00    +0.000 A 
ATOM     29  N   UNL     1       3.066   1.888  19.471  0.00  0.00    +0.000 NA
ATOM     30  C   UNL     1       4.359   2.212  19.747  0.00  0.00    +0.000 A 
ATOM     31  C   UNL     1       4.591   3.539  19.487  0.00  0.00    +0.000 A 
ATOM     32  N   UNL     1       3.388   4.072  19.076  0.00  0.00    +0.000 N 
ENDBRANCH  20  32
ENDBRANCH  19  23
ENDBRANCH   1  19
TORSDOF 4
ENDMDL
