MODEL 1
REMARK VINA RESULT:      -9.7      0.000      0.000
REMARK  Name = 
REMARK  4 active torsions:
REMARK  status: ('A' for Active; 'I' for Inactive)
REMARK    1  A    between atoms: C_1  and  C_2
REMARK    2  A    between atoms: C_8  and  C_9
REMARK    3  A    between atoms: C_15  and  C_16
REMARK    4  A    between atoms: C_16  and  C_17
REMARK                            x       y       z     vdW  Elec       q    Type
REMARK                         _______ _______ _______ _____ _____    ______ ____
ROOT
ATOM      1  C   UNL     1       4.284   3.203  19.652  0.00  0.00    +0.000 C 
ATOM      2  O   UNL     1       4.898   2.236  20.102  0.00  0.00    +0.000 OA
ATOM      3  N   UNL     1       3.036   3.577  20.144  0.00  0.00    +0.000 N 
ATOM      4  C   UNL     1       2.367   2.755  21.138  0.00  0.00    +0.000 C 
ATOM      5  C   UNL     1       0.898   2.962  20.821  0.00  0.00    +0.000 C 
ATOM      6  C   UNL     1       0.838   4.448  20.491  0.00  0.00    +0.000 C 
ATOM      7  C   UNL     1       2.186   4.731  19.797  0.00  0.00    +0.000 C 
ENDROOT
BRANCH   1  15
ATOM      8  C   UNL     1       8.208   7.373  18.566  0.00  0.00    +0.000 C 
ATOM      9  C   UNL     1       7.476   6.605  17.536  0.00  0.00    +0.000 A 
ATOM     10  N   UNL     1       7.765   6.743  16.236  0.00  0.00    +0.000 NA
ATOM     11  O   UNL     1       6.941   5.840  15.572  0.00  0.00    +0.000 OA
ATOM     12  C   UNL     1       6.179   5.159  16.472  0.00  0.00    +0.000 A 
ATOM     13  N   UNL     1       5.292   4.193  16.159  0.00  0.00    +0.000 NA
ATOM     14  C   UNL     1       4.711   3.636  17.256  0.00  0.00    +0.000 A 
ATOM     15  C   UNL     1       4.950   3.989  18.586  0.00  0.00    +0.000 A 
ATOM     16  C   UNL     1       5.786   5.078  18.834  0.00  0.00    +0.000 A 
ATOM     17  C   UNL     1       6.469   5.633  17.742  0.00  0.00    +0.000 A 
ENDBRANCH   1  15
BRANCH   7  18
ATOM     18  C   UNL     1       2.800   6.082  20.227  0.00  0.00    +0.000 C 
BRANCH  18  19
ATOM     19  C   UNL     1       2.270   7.314  19.525  0.00  0.00    +0.000 A 
ATOM     20  C   UNL     1       2.550   7.554  18.173  0.00  0.00    +0.000 A 
ATOM     21  F   UNL     1       3.343   6.723  17.483  0.00  0.00    +0.000 F 
ATOM     22  C   UNL     1       2.038   8.655  17.490  0.00  0.00    +0.000 A 
ATOM     23  C   UNL     1       1.247   9.577  18.162  0.00  0.00    +0.000 A 
ATOM     24  C   UNL     1       1.005   9.405  19.522  0.00  0.00    +0.000 A 
ATOM     25  C   UNL     1       1.523   8.294  20.202  0.00  0.00    +0.000 A 
ATOM     26 CL   UNL     1       1.213   8.207  21.901  0.00  0.00    +0.000 Cl
ENDBRANCH  18  19
ENDBRANCH   7  18
TORSDOF 3
ENDMDL
MODEL 2
REMARK VINA RESULT:      -9.6      1.718      2.450
REMARK  Name = 
REMARK  4 active torsions:
REMARK  status: ('A' for Active; 'I' for Inactive)
REMARK    1  A    between atoms: C_1  and  C_2
REMARK    2  A    between atoms: C_8  and  C_9
REMARK    3  A    between atoms: C_15  and  C_16
REMARK    4  A    between atoms: C_16  and  C_17
REMARK                            x       y       z     vdW  Elec       q    Type
REMARK                         _______ _______ _______ _____ _____    ______ ____
ROOT
ATOM      1  C   UNL     1       4.453   3.149  19.681  0.00  0.00    +0.000 C 
ATOM      2  O   UNL     1       4.934   2.159  20.231  0.00  0.00    +0.000 OA
ATOM      3  N   UNL     1       3.163   3.594  19.960  0.00  0.00    +0.000 N 
ATOM      4  C   UNL     1       2.298   2.822  20.836  0.00  0.00    +0.000 C 
ATOM      5  C   UNL     1       0.914   3.099  20.283  0.00  0.00    +0.000 C 
ATOM      6  C   UNL     1       0.986   4.581  19.938  0.00  0.00    +0.000 C 
ATOM      7  C   UNL     1       2.443   4.785  19.472  0.00  0.00    +0.000 C 
ENDROOT
BRANCH   1  15
ATOM      8  C   UNL     1       5.826   3.868  14.063  0.00  0.00    +0.000 C 
ATOM      9  C   UNL     1       6.403   4.639  15.185  0.00  0.00    +0.000 A 
ATOM     10  N   UNL     1       7.224   5.673  14.962  0.00  0.00    +0.000 NA
ATOM     11  O   UNL     1       7.519   6.193  16.217  0.00  0.00    +0.000 OA
ATOM     12  C   UNL     1       6.865   5.484  17.179  0.00  0.00    +0.000 A 
ATOM     13  N   UNL     1       6.916   5.745  18.501  0.00  0.00    +0.000 NA
ATOM     14  C   UNL     1       6.120   4.918  19.231  0.00  0.00    +0.000 A 
ATOM     15  C   UNL     1       5.324   3.885  18.733  0.00  0.00    +0.000 A 
ATOM     16  C   UNL     1       5.412   3.589  17.372  0.00  0.00    +0.000 A 
ATOM     17  C   UNL     1       6.157   4.462  16.566  0.00  0.00    +0.000 A 
ENDBRANCH   1  15
BRANCH   7  18
ATOM     18  C   UNL     1       3.049   6.108  19.989  0.00  0.00    +0.000 C 
BRANCH  18  19
ATOM     19  C   UNL     1       2.412   7.383  19.477  0.00  0.00    +0.000 A 
ATOM     20  C   UNL     1       1.485   8.092  20.252  0.00  0.00    +0.000 A 
ATOM     21  F   UNL     1       1.098   7.626  21.448  0.00  0.00    +0.000 F 
ATOM     22  C   UNL     1       0.917   9.290  19.824  0.00  0.00    +0.000 A 
ATOM     23  C   UNL     1       1.244   9.801  18.576  0.00  0.00    +0.000 A 
ATOM     24  C   UNL     1       2.110   9.087  17.752  0.00  0.00    +0.000 A 
ATOM     25  C   UNL     1       2.677   7.883  18.190  0.00  0.00    +0.000 A 
ATOM     26 CL   UNL     1       3.692   7.047  17.066  0.00  0.00    +0.000 Cl
ENDBRANCH  18  19
ENDBRANCH   7  18
TORSDOF 3
ENDMDL
MODEL 3
REMARK VINA RESULT:      -9.5      0.941      1.746
REMARK  Name = 
REMARK  4 active torsions:
REMARK  status: ('A' for Active; 'I' for Inactive)
REMARK    1  A    between atoms: C_1  and  C_2
REMARK    2  A    between atoms: C_8  and  C_9
REMARK    3  A    between atoms: C_15  and  C_16
REMARK    4  A    between atoms: C_16  and  C_17
REMARK                            x       y       z     vdW  Elec       q    Type
REMARK                         _______ _______ _______ _____ _____    ______ ____
ROOT
ATOM      1  C   UNL     1       4.434   3.152  19.724  0.00  0.00    +0.000 C 
ATOM      2  O   UNL     1       4.939   2.172  20.272  0.00  0.00    +0.000 OA
ATOM      3  N   UNL     1       3.130   3.560  20.000  0.00  0.00    +0.000 N 
ATOM      4  C   UNL     1       2.283   2.760  20.868  0.00  0.00    +0.000 C 
ATOM      5  C   UNL     1       0.894   3.003  20.310  0.00  0.00    +0.000 C 
ATOM      6  C   UNL     1       0.928   4.488  19.973  0.00  0.00    +0.000 C 
ATOM      7  C   UNL     1       2.381   4.734  19.514  0.00  0.00    +0.000 C 
ENDROOT
BRANCH   1  15
ATOM      8  C   UNL     1       5.824   3.924  14.118  0.00  0.00    +0.000 C 
ATOM      9  C   UNL     1       6.369   4.710  15.245  0.00  0.00    +0.000 A 
ATOM     10  N   UNL     1       7.160   5.768  15.030  0.00  0.00    +0.000 NA
ATOM     11  O   UNL     1       7.430   6.295  16.289  0.00  0.00    +0.000 OA
ATOM     12  C   UNL     1       6.791   5.564  17.244  0.00  0.00    +0.000 A 
ATOM     13  N   UNL     1       6.825   5.824  18.567  0.00  0.00    +0.000 NA
ATOM     14  C   UNL     1       6.049   4.972  19.290  0.00  0.00    +0.000 A 
ATOM     15  C   UNL     1       5.289   3.916  18.784  0.00  0.00    +0.000 A 
ATOM     16  C   UNL     1       5.395   3.625  17.424  0.00  0.00    +0.000 A 
ATOM     17  C   UNL     1       6.118   4.522  16.624  0.00  0.00    +0.000 A 
ENDBRANCH   1  15
BRANCH   7  18
ATOM     18  C   UNL     1       2.949   6.071  20.041  0.00  0.00    +0.000 C 
BRANCH  18  19
ATOM     19  C   UNL     1       2.425   7.328  19.379  0.00  0.00    +0.000 A 
ATOM     20  C   UNL     1       2.806   7.673  18.075  0.00  0.00    +0.000 A 
ATOM     21  F   UNL     1       3.690   6.924  17.402  0.00  0.00    +0.000 F 
ATOM     22  C   UNL     1       2.306   8.800  17.427  0.00  0.00    +0.000 A 
ATOM     23  C   UNL     1       1.422   9.641  18.088  0.00  0.00    +0.000 A 
ATOM     24  C   UNL     1       1.075   9.364  19.408  0.00  0.00    +0.000 A 
ATOM     25  C   UNL     1       1.582   8.229  20.053  0.00  0.00    +0.000 A 
ATOM     26 CL   UNL     1       1.136   8.011  21.710  0.00  0.00    +0.000 Cl
ENDBRANCH  18  19
ENDBRANCH   7  18
TORSDOF 3
ENDMDL
MODEL 4
REMARK VINA RESULT:      -9.4      1.442      1.717
REMARK  Name = 
REMARK  4 active torsions:
REMARK  status: ('A' for Active; 'I' for Inactive)
REMARK    1  A    between atoms: C_1  and  C_2
REMARK    2  A    between atoms: C_8  and  C_9
REMARK    3  A    between atoms: C_15  and  C_16
REMARK    4  A    between atoms: C_16  and  C_17
REMARK                            x       y       z     vdW  Elec       q    Type
REMARK                         _______ _______ _______ _____ _____    ______ ____
ROOT
ATOM      1  C   UNL     1       4.295   3.191  19.627  0.00  0.00    +0.000 C 
ATOM      2  O   UNL     1       4.872   2.206  20.085  0.00  0.00    +0.000 OA
ATOM      3  N   UNL     1       3.056   3.609  20.107  0.00  0.00    +0.000 N 
ATOM      4  C   UNL     1       2.351   2.814  21.099  0.00  0.00    +0.000 C 
ATOM      5  C   UNL     1       0.893   3.070  20.770  0.00  0.00    +0.000 C 
ATOM      6  C   UNL     1       0.886   4.556  20.434  0.00  0.00    +0.000 C 
ATOM      7  C   UNL     1       2.249   4.790  19.750  0.00  0.00    +0.000 C 
ENDROOT
BRANCH   1  15
ATOM      8  C   UNL     1       8.194   7.391  18.566  0.00  0.00    +0.000 C 
ATOM      9  C   UNL     1       7.523   6.573  17.533  0.00  0.00    +0.000 A 
ATOM     10  N   UNL     1       7.868   6.670  16.244  0.00  0.00    +0.000 NA
ATOM     11  O   UNL     1       7.091   5.729  15.577  0.00  0.00    +0.000 OA
ATOM     12  C   UNL     1       6.299   5.067  16.466  0.00  0.00    +0.000 A 
ATOM     13  N   UNL     1       5.444   4.074  16.150  0.00  0.00    +0.000 NA
ATOM     14  C   UNL     1       4.823   3.547  17.239  0.00  0.00    +0.000 A 
ATOM     15  C   UNL     1       4.995   3.951  18.564  0.00  0.00    +0.000 A 
ATOM     16  C   UNL     1       5.801   5.064  18.810  0.00  0.00    +0.000 A 
ATOM     17  C   UNL     1       6.524   5.591  17.730  0.00  0.00    +0.000 A 
ENDBRANCH   1  15
BRANCH   7  18
ATOM     18  C   UNL     1       2.905   6.121  20.181  0.00  0.00    +0.000 C 
BRANCH  18  19
ATOM     19  C   UNL     1       2.249   7.387  19.672  0.00  0.00    +0.000 A 
ATOM     20  C   UNL     1       1.404   8.147  20.494  0.00  0.00    +0.000 A 
ATOM     21  F   UNL     1       1.113   7.736  21.737  0.00  0.00    +0.000 F 
ATOM     22  C   UNL     1       0.823   9.338  20.067  0.00  0.00    +0.000 A 
ATOM     23  C   UNL     1       1.050   9.792  18.775  0.00  0.00    +0.000 A 
ATOM     24  C   UNL     1       1.829   9.028  17.910  0.00  0.00    +0.000 A 
ATOM     25  C   UNL     1       2.410   7.830  18.348  0.00  0.00    +0.000 A 
ATOM     26 CL   UNL     1       3.309   6.928  17.177  0.00  0.00    +0.000 Cl
ENDBRANCH  18  19
ENDBRANCH   7  18
TORSDOF 3
ENDMDL
MODEL 5
REMARK VINA RESULT:      -7.6      1.685      2.494
REMARK  Name = 
REMARK  4 active torsions:
REMARK  status: ('A' for Active; 'I' for Inactive)
REMARK    1  A    between atoms: C_1  and  C_2
REMARK    2  A    between atoms: C_8  and  C_9
REMARK    3  A    between atoms: C_15  and  C_16
REMARK    4  A    between atoms: C_16  and  C_17
REMARK                            x       y       z     vdW  Elec       q    Type
REMARK                         _______ _______ _______ _____ _____    ______ ____
ROOT
ATOM      1  C   UNL     1       4.634   3.437  18.617  0.00  0.00    +0.000 C 
ATOM      2  O   UNL     1       5.081   2.570  19.367  0.00  0.00    +0.000 OA
ATOM      3  N   UNL     1       3.347   3.951  18.769  0.00  0.00    +0.000 N 
ATOM      4  C   UNL     1       2.448   3.386  19.761  0.00  0.00    +0.000 C 
ATOM      5  C   UNL     1       1.082   3.570  19.129  0.00  0.00    +0.000 C 
ATOM      6  C   UNL     1       1.194   4.951  18.495  0.00  0.00    +0.000 C 
ATOM      7  C   UNL     1       2.664   5.031  18.034  0.00  0.00    +0.000 C 
ENDROOT
BRANCH   1  15
ATOM      8  C   UNL     1       5.656   3.581  12.882  0.00  0.00    +0.000 C 
ATOM      9  C   UNL     1       6.445   4.300  13.904  0.00  0.00    +0.000 A 
ATOM     10  N   UNL     1       7.412   5.157  13.554  0.00  0.00    +0.000 NA
ATOM     11  O   UNL     1       7.892   5.687  14.747  0.00  0.00    +0.000 OA
ATOM     12  C   UNL     1       7.204   5.161  15.798  0.00  0.00    +0.000 A 
ATOM     13  N   UNL     1       7.405   5.483  17.092  0.00  0.00    +0.000 NA
ATOM     14  C   UNL     1       6.539   4.854  17.931  0.00  0.00    +0.000 A 
ATOM     15  C   UNL     1       5.540   3.952  17.563  0.00  0.00    +0.000 A 
ATOM     16  C   UNL     1       5.466   3.568  16.223  0.00  0.00    +0.000 A 
ATOM     17  C   UNL     1       6.283   4.248  15.308  0.00  0.00    +0.000 A 
ENDBRANCH   1  15
BRANCH   7  18
ATOM     18  C   UNL     1       3.288   6.421  18.289  0.00  0.00    +0.000 C 
BRANCH  18  19
ATOM     19  C   UNL     1       2.372   7.467  18.889  0.00  0.00    +0.000 A 
ATOM     20  C   UNL     1       1.974   8.591  18.151  0.00  0.00    +0.000 A 
ATOM     21  F   UNL     1       2.441   8.793  16.911  0.00  0.00    +0.000 F 
ATOM     22  C   UNL     1       1.097   9.545  18.663  0.00  0.00    +0.000 A 
ATOM     23  C   UNL     1       0.615   9.415  19.958  0.00  0.00    +0.000 A 
ATOM     24  C   UNL     1       1.043   8.347  20.741  0.00  0.00    +0.000 A 
ATOM     25  C   UNL     1       1.925   7.391  20.219  0.00  0.00    +0.000 A 
ATOM     26 CL   UNL     1       2.441   6.139  21.296  0.00  0.00    +0.000 Cl
ENDBRANCH  18  19
ENDBRANCH   7  18
TORSDOF 3
ENDMDL
MODEL 6
REMARK VINA RESULT:      -6.8      7.987     10.852
REMARK  Name = 
REMARK  4 active torsions:
REMARK  status: ('A' for Active; 'I' for Inactive)
REMARK    1  A    between atoms: C_1  and  C_2
REMARK    2  A    between atoms: C_8  and  C_9
REMARK    3  A    between atoms: C_15  and  C_16
REMARK    4  A    between atoms: C_16  and  C_17
REMARK                            x       y       z     vdW  Elec       q    Type
REMARK                         _______ _______ _______ _____ _____    ______ ____
ROOT
ATOM      1  C   UNL     1      -4.359  13.554  23.192  0.00  0.00    +0.000 C 
ATOM      2  O   UNL     1      -4.546  14.282  24.166  0.00  0.00    +0.000 OA
ATOM      3  N   UNL     1      -5.411  13.099  22.399  0.00  0.00    +0.000 N 
ATOM      4  C   UNL     1      -6.785  13.385  22.776  0.00  0.00    +0.000 C 
ATOM      5  C   UNL     1      -7.541  12.177  22.256  0.00  0.00    +0.000 C 
ATOM      6  C   UNL     1      -6.864  11.914  20.917  0.00  0.00    +0.000 C 
ATOM      7  C   UNL     1      -5.389  12.295  21.164  0.00  0.00    +0.000 C 
ENDROOT
BRANCH   1  15
ATOM      8  C   UNL     1      -0.498   9.209  22.777  0.00  0.00    +0.000 C 
ATOM      9  C   UNL     1      -0.230  10.621  22.430  0.00  0.00    +0.000 A 
ATOM     10  N   UNL     1       0.928  10.985  21.865  0.00  0.00    +0.000 NA
ATOM     11  O   UNL     1       0.812  12.350  21.623  0.00  0.00    +0.000 OA
ATOM     12  C   UNL     1      -0.412  12.791  22.027  0.00  0.00    +0.000 A 
ATOM     13  N   UNL     1      -0.853  14.059  21.910  0.00  0.00    +0.000 NA
ATOM     14  C   UNL     1      -2.135  14.211  22.338  0.00  0.00    +0.000 A 
ATOM     15  C   UNL     1      -2.955  13.211  22.863  0.00  0.00    +0.000 A 
ATOM     16  C   UNL     1      -2.397  11.949  23.071  0.00  0.00    +0.000 A 
ATOM     17  C   UNL     1      -1.105  11.722  22.574  0.00  0.00    +0.000 A 
ENDBRANCH   1  15
BRANCH   7  18
ATOM     18  C   UNL     1      -4.766  13.047  19.967  0.00  0.00    +0.000 C 
BRANCH  18  19
ATOM     19  C   UNL     1      -4.342  12.196  18.787  0.00  0.00    +0.000 A 
ATOM     20  C   UNL     1      -3.087  11.573  18.757  0.00  0.00    +0.000 A 
ATOM     21  F   UNL     1      -2.207  11.763  19.750  0.00  0.00    +0.000 F 
ATOM     22  C   UNL     1      -2.690  10.750  17.705  0.00  0.00    +0.000 A 
ATOM     23  C   UNL     1      -3.539  10.552  16.626  0.00  0.00    +0.000 A 
ATOM     24  C   UNL     1      -4.766  11.209  16.592  0.00  0.00    +0.000 A 
ATOM     25  C   UNL     1      -5.158  12.036  17.654  0.00  0.00    +0.000 A 
ATOM     26 CL   UNL     1      -6.674  12.852  17.485  0.00  0.00    +0.000 Cl
ENDBRANCH  18  19
ENDBRANCH   7  18
TORSDOF 3
ENDMDL
