MODEL 1
REMARK VINA RESULT:      -8.9      0.000      0.000
REMARK  Name = 
REMARK  5 active torsions:
REMARK  status: ('A' for Active; 'I' for Inactive)
REMARK    1  A    between atoms: C_2  and  C_3
REMARK    2  A    between atoms: C_3  and  C_4
REMARK    3  A    between atoms: N_15  and  C_16
REMARK    4  A    between atoms: C_22  and  O_23
REMARK    5  A    between atoms: O_23  and  C_24
REMARK                            x       y       z     vdW  Elec       q    Type
REMARK                         _______ _______ _______ _____ _____    ______ ____
ROOT
ATOM      1  O   UNL     1       3.107   9.197  17.437  0.00  0.00    +0.000 OA
ATOM      2  C   UNL     1       2.305   8.343  17.820  0.00  0.00    +0.000 C 
ATOM      3  N   UNL     1       2.554   6.973  17.883  0.00  0.00    +0.000 N 
ATOM      4  H   UNL     1       1.763   6.338  17.974  0.00  0.00    +0.000 HD
ENDROOT
BRANCH   3   5
ATOM      5  C   UNL     1       3.826   6.366  17.659  0.00  0.00    +0.000 A 
ATOM      6  C   UNL     1       4.993   7.152  17.640  0.00  0.00    +0.000 A 
ATOM      7  C   UNL     1       6.245   6.592  17.395  0.00  0.00    +0.000 A 
ATOM      8 CL   UNL     1       7.651   7.583  17.434  0.00  0.00    +0.000 Cl
ATOM      9  C   UNL     1       6.365   5.242  17.117  0.00  0.00    +0.000 A 
ATOM     10  C   UNL     1       5.226   4.442  17.128  0.00  0.00    +0.000 A 
ATOM     11  C   UNL     1       3.966   4.969  17.487  0.00  0.00    +0.000 A 
BRANCH  11  12
ATOM     12  O   UNL     1       2.861   4.135  17.645  0.00  0.00    +0.000 OA
BRANCH  12  13
ATOM     13  C   UNL     1       2.533   3.721  18.932  0.00  0.00    +0.000 A 
ATOM     14  C   UNL     1       3.470   3.162  19.814  0.00  0.00    +0.000 A 
ATOM     15  C   UNL     1       3.062   2.636  21.044  0.00  0.00    +0.000 A 
ATOM     16  C   UNL     1       1.732   2.740  21.438  0.00  0.00    +0.000 A 
ATOM     17  C   UNL     1       0.811   3.373  20.602  0.00  0.00    +0.000 A 
ATOM     18  C   UNL     1       1.209   3.863  19.352  0.00  0.00    +0.000 A 
ENDBRANCH  12  13
ENDBRANCH  11  12
ENDBRANCH   3   5
BRANCH   2  19
ATOM     19  C   UNL     1       0.962   8.817  18.323  0.00  0.00    +0.000 C 
BRANCH  19  20
ATOM     20  C   UNL     1       0.905   9.116  19.793  0.00  0.00    +0.000 A 
ATOM     21  N   UNL     1       1.608   8.327  20.553  0.00  0.00    +0.000 NA
ATOM     22  N   UNL     1       1.566   8.523  21.893  0.00  0.00    +0.000 N 
ATOM     23  C   UNL     1       0.782   9.436  22.550  0.00  0.00    +0.000 A 
ATOM     24  O   UNL     1       0.760   9.523  23.777  0.00  0.00    +0.000 OA
ATOM     25  C   UNL     1      -0.033  10.321  21.704  0.00  0.00    +0.000 A 
ATOM     26  C   UNL     1      -0.865  11.279  22.296  0.00  0.00    +0.000 A 
ATOM     27  C   UNL     1      -1.606  12.141  21.493  0.00  0.00    +0.000 A 
ATOM     28  C   UNL     1      -1.506  12.053  20.104  0.00  0.00    +0.000 A 
ATOM     29  C   UNL     1      -0.686  11.084  19.513  0.00  0.00    +0.000 A 
ATOM     30  C   UNL     1       0.046  10.203  20.319  0.00  0.00    +0.000 A 
ATOM     31  H   UNL     1       2.159   7.923  22.460  0.00  0.00    +0.000 HD
ENDBRANCH  19  20
ENDBRANCH   2  19
TORSDOF 5
ENDMDL
MODEL 2
REMARK VINA RESULT:      -8.8      1.406      1.523
REMARK  Name = 
REMARK  5 active torsions:
REMARK  status: ('A' for Active; 'I' for Inactive)
REMARK    1  A    between atoms: C_2  and  C_3
REMARK    2  A    between atoms: C_3  and  C_4
REMARK    3  A    between atoms: N_15  and  C_16
REMARK    4  A    between atoms: C_22  and  O_23
REMARK    5  A    between atoms: O_23  and  C_24
REMARK                            x       y       z     vdW  Elec       q    Type
REMARK                         _______ _______ _______ _____ _____    ______ ____
ROOT
ATOM      1  O   UNL     1       1.757   6.279  17.633  0.00  0.00    +0.000 OA
ATOM      2  C   UNL     1       2.424   7.301  17.802  0.00  0.00    +0.000 C 
ATOM      3  N   UNL     1       3.816   7.370  17.770  0.00  0.00    +0.000 N 
ATOM      4  H   UNL     1       4.272   8.193  18.160  0.00  0.00    +0.000 HD
ENDROOT
BRANCH   3   5
ATOM      5  C   UNL     1       4.675   6.297  17.386  0.00  0.00    +0.000 A 
ATOM      6  C   UNL     1       5.321   6.320  16.136  0.00  0.00    +0.000 A 
ATOM      7  C   UNL     1       6.142   5.274  15.720  0.00  0.00    +0.000 A 
ATOM      8 CL   UNL     1       6.953   5.370  14.206  0.00  0.00    +0.000 Cl
ATOM      9  C   UNL     1       6.309   4.156  16.519  0.00  0.00    +0.000 A 
ATOM     10  C   UNL     1       5.681   4.108  17.760  0.00  0.00    +0.000 A 
ATOM     11  C   UNL     1       4.938   5.206  18.247  0.00  0.00    +0.000 A 
BRANCH  11  12
ATOM     12  O   UNL     1       4.441   5.212  19.548  0.00  0.00    +0.000 OA
BRANCH  12  13
ATOM     13  C   UNL     1       3.387   4.355  19.849  0.00  0.00    +0.000 A 
ATOM     14  C   UNL     1       3.305   3.046  19.352  0.00  0.00    +0.000 A 
ATOM     15  C   UNL     1       2.159   2.273  19.571  0.00  0.00    +0.000 A 
ATOM     16  C   UNL     1       1.126   2.770  20.358  0.00  0.00    +0.000 A 
ATOM     17  C   UNL     1       1.239   4.039  20.928  0.00  0.00    +0.000 A 
ATOM     18  C   UNL     1       2.366   4.831  20.675  0.00  0.00    +0.000 A 
ENDBRANCH  12  13
ENDBRANCH  11  12
ENDBRANCH   3   5
BRANCH   2  19
ATOM     19  C   UNL     1       1.680   8.600  17.998  0.00  0.00    +0.000 C 
BRANCH  19  20
ATOM     20  C   UNL     1       1.414   8.969  19.429  0.00  0.00    +0.000 A 
ATOM     21  N   UNL     1       1.908   8.157  20.318  0.00  0.00    +0.000 NA
ATOM     22  N   UNL     1       1.670   8.418  21.626  0.00  0.00    +0.000 N 
ATOM     23  C   UNL     1       0.878   9.425  22.116  0.00  0.00    +0.000 A 
ATOM     24  O   UNL     1       0.667   9.569  23.319  0.00  0.00    +0.000 OA
ATOM     25  C   UNL     1       0.297  10.338  21.121  0.00  0.00    +0.000 A 
ATOM     26  C   UNL     1      -0.526  11.391  21.538  0.00  0.00    +0.000 A 
ATOM     27  C   UNL     1      -1.044  12.277  20.597  0.00  0.00    +0.000 A 
ATOM     28  C   UNL     1      -0.730  12.117  19.247  0.00  0.00    +0.000 A 
ATOM     29  C   UNL     1       0.081  11.054  18.830  0.00  0.00    +0.000 A 
ATOM     30  C   UNL     1       0.587  10.151  19.772  0.00  0.00    +0.000 A 
ATOM     31  H   UNL     1       2.104   7.795  22.302  0.00  0.00    +0.000 HD
ENDBRANCH  19  20
ENDBRANCH   2  19
TORSDOF 5
ENDMDL
MODEL 3
REMARK VINA RESULT:      -8.8      2.632      4.465
REMARK  Name = 
REMARK  5 active torsions:
REMARK  status: ('A' for Active; 'I' for Inactive)
REMARK    1  A    between atoms: C_2  and  C_3
REMARK    2  A    between atoms: C_3  and  C_4
REMARK    3  A    between atoms: N_15  and  C_16
REMARK    4  A    between atoms: C_22  and  O_23
REMARK    5  A    between atoms: O_23  and  C_24
REMARK                            x       y       z     vdW  Elec       q    Type
REMARK                         _______ _______ _______ _____ _____    ______ ____
ROOT
ATOM      1  O   UNL     1       1.505   6.758  17.780  0.00  0.00    +0.000 OA
ATOM      2  C   UNL     1       2.197   7.307  18.640  0.00  0.00    +0.000 C 
ATOM      3  N   UNL     1       2.910   6.650  19.641  0.00  0.00    +0.000 N 
ATOM      4  H   UNL     1       3.243   7.192  20.437  0.00  0.00    +0.000 HD
ENDROOT
BRANCH   3   5
ATOM      5  C   UNL     1       3.073   5.235  19.730  0.00  0.00    +0.000 A 
ATOM      6  C   UNL     1       2.371   4.502  20.704  0.00  0.00    +0.000 A 
ATOM      7  C   UNL     1       2.532   3.124  20.836  0.00  0.00    +0.000 A 
ATOM      8 CL   UNL     1       1.613   2.261  22.006  0.00  0.00    +0.000 Cl
ATOM      9  C   UNL     1       3.428   2.445  20.030  0.00  0.00    +0.000 A 
ATOM     10  C   UNL     1       4.136   3.147  19.058  0.00  0.00    +0.000 A 
ATOM     11  C   UNL     1       3.903   4.521  18.834  0.00  0.00    +0.000 A 
BRANCH  11  12
ATOM     12  O   UNL     1       4.500   5.183  17.764  0.00  0.00    +0.000 OA
BRANCH  12  13
ATOM     13  C   UNL     1       5.744   5.772  17.971  0.00  0.00    +0.000 A 
ATOM     14  C   UNL     1       6.666   5.293  18.913  0.00  0.00    +0.000 A 
ATOM     15  C   UNL     1       7.842   6.001  19.180  0.00  0.00    +0.000 A 
ATOM     16  C   UNL     1       8.145   7.145  18.450  0.00  0.00    +0.000 A 
ATOM     17  C   UNL     1       7.273   7.580  17.451  0.00  0.00    +0.000 A 
ATOM     18  C   UNL     1       6.074   6.896  17.211  0.00  0.00    +0.000 A 
ENDBRANCH  12  13
ENDBRANCH  11  12
ENDBRANCH   3   5
BRANCH   2  19
ATOM     19  C   UNL     1       2.337   8.809  18.572  0.00  0.00    +0.000 C 
BRANCH  19  20
ATOM     20  C   UNL     1       1.084   9.578  18.879  0.00  0.00    +0.000 A 
ATOM     21  N   UNL     1       0.502  10.131  17.855  0.00  0.00    +0.000 NA
ATOM     22  N   UNL     1      -0.613  10.869  18.074  0.00  0.00    +0.000 N 
ATOM     23  C   UNL     1      -1.157  11.165  19.298  0.00  0.00    +0.000 A 
ATOM     24  O   UNL     1      -2.146  11.886  19.422  0.00  0.00    +0.000 OA
ATOM     25  C   UNL     1      -0.497  10.562  20.465  0.00  0.00    +0.000 A 
ATOM     26  C   UNL     1      -0.987  10.815  21.752  0.00  0.00    +0.000 A 
ATOM     27  C   UNL     1      -0.384  10.212  22.852  0.00  0.00    +0.000 A 
ATOM     28  C   UNL     1       0.697   9.350  22.665  0.00  0.00    +0.000 A 
ATOM     29  C   UNL     1       1.196   9.110  21.379  0.00  0.00    +0.000 A 
ATOM     30  C   UNL     1       0.604   9.730  20.273  0.00  0.00    +0.000 A 
ATOM     31  H   UNL     1      -1.074  11.254  17.254  0.00  0.00    +0.000 HD
ENDBRANCH  19  20
ENDBRANCH   2  19
TORSDOF 5
ENDMDL
MODEL 4
REMARK VINA RESULT:      -8.8      2.108      2.748
REMARK  Name = 
REMARK  5 active torsions:
REMARK  status: ('A' for Active; 'I' for Inactive)
REMARK    1  A    between atoms: C_2  and  C_3
REMARK    2  A    between atoms: C_3  and  C_4
REMARK    3  A    between atoms: N_15  and  C_16
REMARK    4  A    between atoms: C_22  and  O_23
REMARK    5  A    between atoms: O_23  and  C_24
REMARK                            x       y       z     vdW  Elec       q    Type
REMARK                         _______ _______ _______ _____ _____    ______ ____
ROOT
ATOM      1  O   UNL     1       2.225   7.985  19.781  0.00  0.00    +0.000 OA
ATOM      2  C   UNL     1       2.035   8.341  18.617  0.00  0.00    +0.000 C 
ATOM      3  N   UNL     1       2.780   7.925  17.515  0.00  0.00    +0.000 N 
ATOM      4  H   UNL     1       2.706   8.456  16.649  0.00  0.00    +0.000 HD
ENDROOT
BRANCH   3   5
ATOM      5  C   UNL     1       3.778   6.906  17.545  0.00  0.00    +0.000 A 
ATOM      6  C   UNL     1       5.142   7.249  17.499  0.00  0.00    +0.000 A 
ATOM      7  C   UNL     1       6.139   6.276  17.497  0.00  0.00    +0.000 A 
ATOM      8 CL   UNL     1       7.795   6.743  17.495  0.00  0.00    +0.000 Cl
ATOM      9  C   UNL     1       5.805   4.933  17.495  0.00  0.00    +0.000 A 
ATOM     10  C   UNL     1       4.463   4.566  17.539  0.00  0.00    +0.000 A 
ATOM     11  C   UNL     1       3.443   5.536  17.657  0.00  0.00    +0.000 A 
BRANCH  11  12
ATOM     12  O   UNL     1       2.117   5.159  17.854  0.00  0.00    +0.000 OA
BRANCH  12  13
ATOM     13  C   UNL     1       1.820   4.364  18.957  0.00  0.00    +0.000 A 
ATOM     14  C   UNL     1       2.067   4.771  20.276  0.00  0.00    +0.000 A 
ATOM     15  C   UNL     1       1.880   3.883  21.341  0.00  0.00    +0.000 A 
ATOM     16  C   UNL     1       1.366   2.612  21.104  0.00  0.00    +0.000 A 
ATOM     17  C   UNL     1       1.037   2.231  19.802  0.00  0.00    +0.000 A 
ATOM     18  C   UNL     1       1.263   3.104  18.730  0.00  0.00    +0.000 A 
ENDBRANCH  12  13
ENDBRANCH  11  12
ENDBRANCH   3   5
BRANCH   2  19
ATOM     19  C   UNL     1       0.862   9.253  18.345  0.00  0.00    +0.000 C 
BRANCH  19  20
ATOM     20  C   UNL     1       1.199  10.714  18.272  0.00  0.00    +0.000 A 
ATOM     21  N   UNL     1       2.339  10.999  17.712  0.00  0.00    +0.000 NA
ATOM     22  N   UNL     1       2.715  12.299  17.651  0.00  0.00    +0.000 N 
ATOM     23  C   UNL     1       2.042  13.360  18.201  0.00  0.00    +0.000 A 
ATOM     24  O   UNL     1       2.472  14.511  18.147  0.00  0.00    +0.000 OA
ATOM     25  C   UNL     1       0.762  13.050  18.854  0.00  0.00    +0.000 A 
ATOM     26  C   UNL     1       0.012  14.075  19.443  0.00  0.00    +0.000 A 
ATOM     27  C   UNL     1      -1.217  13.785  20.027  0.00  0.00    +0.000 A 
ATOM     28  C   UNL     1      -1.700  12.476  20.011  0.00  0.00    +0.000 A 
ATOM     29  C   UNL     1      -0.943  11.448  19.436  0.00  0.00    +0.000 A 
ATOM     30  C   UNL     1       0.303  11.735  18.865  0.00  0.00    +0.000 A 
ATOM     31  H   UNL     1       3.588  12.500  17.169  0.00  0.00    +0.000 HD
ENDBRANCH  19  20
ENDBRANCH   2  19
TORSDOF 5
ENDMDL
MODEL 5
REMARK VINA RESULT:      -8.7      2.913      7.681
REMARK  Name = 
REMARK  5 active torsions:
REMARK  status: ('A' for Active; 'I' for Inactive)
REMARK    1  A    between atoms: C_2  and  C_3
REMARK    2  A    between atoms: C_3  and  C_4
REMARK    3  A    between atoms: N_15  and  C_16
REMARK    4  A    between atoms: C_22  and  O_23
REMARK    5  A    between atoms: O_23  and  C_24
REMARK                            x       y       z     vdW  Elec       q    Type
REMARK                         _______ _______ _______ _____ _____    ______ ____
ROOT
ATOM      1  O   UNL     1       0.792   9.674  21.860  0.00  0.00    +0.000 OA
ATOM      2  C   UNL     1       0.883   8.964  20.856  0.00  0.00    +0.000 C 
ATOM      3  N   UNL     1       0.805   9.415  19.540  0.00  0.00    +0.000 N 
ATOM      4  H   UNL     1       0.646   8.733  18.800  0.00  0.00    +0.000 HD
ENDROOT
BRANCH   3   5
ATOM      5  C   UNL     1       0.760  10.787  19.151  0.00  0.00    +0.000 A 
ATOM      6  C   UNL     1       1.952  11.492  18.900  0.00  0.00    +0.000 A 
ATOM      7  C   UNL     1       1.942  12.840  18.547  0.00  0.00    +0.000 A 
ATOM      8 CL   UNL     1       3.421  13.646  18.198  0.00  0.00    +0.000 Cl
ATOM      9  C   UNL     1       0.748  13.535  18.477  0.00  0.00    +0.000 A 
ATOM     10  C   UNL     1      -0.446  12.862  18.722  0.00  0.00    +0.000 A 
ATOM     11  C   UNL     1      -0.464  11.472  18.968  0.00  0.00    +0.000 A 
BRANCH  11  12
ATOM     12  O   UNL     1      -1.668  10.778  19.060  0.00  0.00    +0.000 OA
BRANCH  12  13
ATOM     13  C   UNL     1      -2.440  10.653  17.909  0.00  0.00    +0.000 A 
ATOM     14  C   UNL     1      -2.043   9.883  16.805  0.00  0.00    +0.000 A 
ATOM     15  C   UNL     1      -2.787   9.901  15.621  0.00  0.00    +0.000 A 
ATOM     16  C   UNL     1      -3.976  10.620  15.558  0.00  0.00    +0.000 A 
ATOM     17  C   UNL     1      -4.422  11.319  16.681  0.00  0.00    +0.000 A 
ATOM     18  C   UNL     1      -3.656  11.337  17.854  0.00  0.00    +0.000 A 
ENDBRANCH  12  13
ENDBRANCH  11  12
ENDBRANCH   3   5
BRANCH   2  19
ATOM     19  C   UNL     1       1.165   7.495  21.060  0.00  0.00    +0.000 C 
BRANCH  19  20
ATOM     20  C   UNL     1       1.976   6.848  19.974  0.00  0.00    +0.000 A 
ATOM     21  N   UNL     1       2.685   7.660  19.245  0.00  0.00    +0.000 NA
ATOM     22  N   UNL     1       3.408   7.138  18.225  0.00  0.00    +0.000 N 
ATOM     23  C   UNL     1       3.408   5.827  17.824  0.00  0.00    +0.000 A 
ATOM     24  O   UNL     1       4.054   5.435  16.854  0.00  0.00    +0.000 OA
ATOM     25  C   UNL     1       2.595   4.901  18.627  0.00  0.00    +0.000 A 
ATOM     26  C   UNL     1       2.537   3.546  18.284  0.00  0.00    +0.000 A 
ATOM     27  C   UNL     1       1.797   2.665  19.068  0.00  0.00    +0.000 A 
ATOM     28  C   UNL     1       1.128   3.137  20.198  0.00  0.00    +0.000 A 
ATOM     29  C   UNL     1       1.174   4.496  20.532  0.00  0.00    +0.000 A 
ATOM     30  C   UNL     1       1.901   5.387  19.733  0.00  0.00    +0.000 A 
ATOM     31  H   UNL     1       3.989   7.786  17.700  0.00  0.00    +0.000 HD
ENDBRANCH  19  20
ENDBRANCH   2  19
TORSDOF 5
ENDMDL
MODEL 6
REMARK VINA RESULT:      -8.7      2.972      7.852
REMARK  Name = 
REMARK  5 active torsions:
REMARK  status: ('A' for Active; 'I' for Inactive)
REMARK    1  A    between atoms: C_2  and  C_3
REMARK    2  A    between atoms: C_3  and  C_4
REMARK    3  A    between atoms: N_15  and  C_16
REMARK    4  A    between atoms: C_22  and  O_23
REMARK    5  A    between atoms: O_23  and  C_24
REMARK                            x       y       z     vdW  Elec       q    Type
REMARK                         _______ _______ _______ _____ _____    ______ ____
ROOT
ATOM      1  O   UNL     1       1.511   9.840  21.783  0.00  0.00    +0.000 OA
ATOM      2  C   UNL     1       1.090   9.163  20.844  0.00  0.00    +0.000 C 
ATOM      3  N   UNL     1       0.568   9.669  19.655  0.00  0.00    +0.000 N 
ATOM      4  H   UNL     1       0.028   9.046  19.056  0.00  0.00    +0.000 HD
ENDROOT
BRANCH   3   5
ATOM      5  C   UNL     1       0.581  11.046  19.281  0.00  0.00    +0.000 A 
ATOM      6  C   UNL     1       1.803  11.711  19.069  0.00  0.00    +0.000 A 
ATOM      7  C   UNL     1       1.850  13.062  18.732  0.00  0.00    +0.000 A 
ATOM      8 CL   UNL     1       3.365  13.819  18.429  0.00  0.00    +0.000 Cl
ATOM      9  C   UNL     1       0.683  13.800  18.640  0.00  0.00    +0.000 A 
ATOM     10  C   UNL     1      -0.540  13.167  18.846  0.00  0.00    +0.000 A 
ATOM     11  C   UNL     1      -0.613  11.775  19.075  0.00  0.00    +0.000 A 
BRANCH  11  12
ATOM     12  O   UNL     1      -1.843  11.124  19.129  0.00  0.00    +0.000 OA
BRANCH  12  13
ATOM     13  C   UNL     1      -2.552  10.968  17.942  0.00  0.00    +0.000 A 
ATOM     14  C   UNL     1      -3.788  11.589  17.706  0.00  0.00    +0.000 A 
ATOM     15  C   UNL     1      -4.525  11.291  16.555  0.00  0.00    +0.000 A 
ATOM     16  C   UNL     1      -3.996  10.437  15.592  0.00  0.00    +0.000 A 
ATOM     17  C   UNL     1      -2.729   9.883  15.781  0.00  0.00    +0.000 A 
ATOM     18  C   UNL     1      -2.007  10.147  16.952  0.00  0.00    +0.000 A 
ENDBRANCH  12  13
ENDBRANCH  11  12
ENDBRANCH   3   5
BRANCH   2  19
ATOM     19  C   UNL     1       1.204   7.661  20.956  0.00  0.00    +0.000 C 
BRANCH  19  20
ATOM     20  C   UNL     1       2.084   7.013  19.926  0.00  0.00    +0.000 A 
ATOM     21  N   UNL     1       2.472   7.786  18.954  0.00  0.00    +0.000 NA
ATOM     22  N   UNL     1       3.237   7.248  17.975  0.00  0.00    +0.000 N 
ATOM     23  C   UNL     1       3.586   5.927  17.857  0.00  0.00    +0.000 A 
ATOM     24  O   UNL     1       4.244   5.501  16.909  0.00  0.00    +0.000 OA
ATOM     25  C   UNL     1       3.136   5.037  18.938  0.00  0.00    +0.000 A 
ATOM     26  C   UNL     1       3.446   3.673  18.894  0.00  0.00    +0.000 A 
ATOM     27  C   UNL     1       3.052   2.840  19.937  0.00  0.00    +0.000 A 
ATOM     28  C   UNL     1       2.362   3.373  21.027  0.00  0.00    +0.000 A 
ATOM     29  C   UNL     1       2.038   4.735  21.063  0.00  0.00    +0.000 A 
ATOM     30  C   UNL     1       2.416   5.570  20.005  0.00  0.00    +0.000 A 
ATOM     31  H   UNL     1       3.566   7.883  17.251  0.00  0.00    +0.000 HD
ENDBRANCH  19  20
ENDBRANCH   2  19
TORSDOF 5
ENDMDL
MODEL 7
REMARK VINA RESULT:      -8.6      2.982      7.796
REMARK  Name = 
REMARK  5 active torsions:
REMARK  status: ('A' for Active; 'I' for Inactive)
REMARK    1  A    between atoms: C_2  and  C_3
REMARK    2  A    between atoms: C_3  and  C_4
REMARK    3  A    between atoms: N_15  and  C_16
REMARK    4  A    between atoms: C_22  and  O_23
REMARK    5  A    between atoms: O_23  and  C_24
REMARK                            x       y       z     vdW  Elec       q    Type
REMARK                         _______ _______ _______ _____ _____    ______ ____
ROOT
ATOM      1  O   UNL     1       1.974   8.272  19.605  0.00  0.00    +0.000 OA
ATOM      2  C   UNL     1       1.832   8.443  18.393  0.00  0.00    +0.000 C 
ATOM      3  N   UNL     1       1.400   9.622  17.790  0.00  0.00    +0.000 N 
ATOM      4  H   UNL     1       1.082   9.587  16.823  0.00  0.00    +0.000 HD
ENDROOT
BRANCH   3   5
ATOM      5  C   UNL     1       1.203  10.861  18.472  0.00  0.00    +0.000 A 
ATOM      6  C   UNL     1       2.213  11.840  18.466  0.00  0.00    +0.000 A 
ATOM      7  C   UNL     1       2.063  13.046  19.147  0.00  0.00    +0.000 A 
ATOM      8 CL   UNL     1       3.302  14.237  19.068  0.00  0.00    +0.000 Cl
ATOM      9  C   UNL     1       0.921  13.293  19.888  0.00  0.00    +0.000 A 
ATOM     10  C   UNL     1      -0.094  12.340  19.911  0.00  0.00    +0.000 A 
ATOM     11  C   UNL     1      -0.008  11.162  19.137  0.00  0.00    +0.000 A 
BRANCH  11  12
ATOM     12  O   UNL     1      -1.088  10.288  19.044  0.00  0.00    +0.000 OA
BRANCH  12  13
ATOM     13  C   UNL     1      -2.064  10.553  18.089  0.00  0.00    +0.000 A 
ATOM     14  C   UNL     1      -3.136  11.428  18.317  0.00  0.00    +0.000 A 
ATOM     15  C   UNL     1      -4.164  11.554  17.377  0.00  0.00    +0.000 A 
ATOM     16  C   UNL     1      -4.087  10.873  16.167  0.00  0.00    +0.000 A 
ATOM     17  C   UNL     1      -2.980  10.066  15.897  0.00  0.00    +0.000 A 
ATOM     18  C   UNL     1      -1.970   9.905  16.855  0.00  0.00    +0.000 A 
ENDBRANCH  12  13
ENDBRANCH  11  12
ENDBRANCH   3   5
BRANCH   2  19
ATOM     19  C   UNL     1       2.213   7.305  17.476  0.00  0.00    +0.000 C 
BRANCH  19  20
ATOM     20  C   UNL     1       3.359   6.461  17.955  0.00  0.00    +0.000 A 
ATOM     21  N   UNL     1       4.545   6.892  17.635  0.00  0.00    +0.000 NA
ATOM     22  N   UNL     1       5.617   6.152  18.008  0.00  0.00    +0.000 N 
ATOM     23  C   UNL     1       5.577   4.931  18.631  0.00  0.00    +0.000 A 
ATOM     24  O   UNL     1       6.595   4.293  18.895  0.00  0.00    +0.000 OA
ATOM     25  C   UNL     1       4.242   4.423  18.981  0.00  0.00    +0.000 A 
ATOM     26  C   UNL     1       4.112   3.183  19.617  0.00  0.00    +0.000 A 
ATOM     27  C   UNL     1       2.850   2.721  19.981  0.00  0.00    +0.000 A 
ATOM     28  C   UNL     1       1.725   3.504  19.721  0.00  0.00    +0.000 A 
ATOM     29  C   UNL     1       1.854   4.737  19.071  0.00  0.00    +0.000 A 
ATOM     30  C   UNL     1       3.120   5.194  18.687  0.00  0.00    +0.000 A 
ATOM     31  H   UNL     1       6.533   6.532  17.785  0.00  0.00    +0.000 HD
ENDBRANCH  19  20
ENDBRANCH   2  19
TORSDOF 5
ENDMDL
MODEL 8
REMARK VINA RESULT:      -8.6      3.031      8.048
REMARK  Name = 
REMARK  5 active torsions:
REMARK  status: ('A' for Active; 'I' for Inactive)
REMARK    1  A    between atoms: C_2  and  C_3
REMARK    2  A    between atoms: C_3  and  C_4
REMARK    3  A    between atoms: N_15  and  C_16
REMARK    4  A    between atoms: C_22  and  O_23
REMARK    5  A    between atoms: O_23  and  C_24
REMARK                            x       y       z     vdW  Elec       q    Type
REMARK                         _______ _______ _______ _____ _____    ______ ____
ROOT
ATOM      1  O   UNL     1       1.954   9.333  17.225  0.00  0.00    +0.000 OA
ATOM      2  C   UNL     1       1.735   9.111  18.417  0.00  0.00    +0.000 C 
ATOM      3  N   UNL     1       1.358  10.066  19.359  0.00  0.00    +0.000 N 
ATOM      4  H   UNL     1       1.441   9.834  20.348  0.00  0.00    +0.000 HD
ENDROOT
BRANCH   3   5
ATOM      5  C   UNL     1       1.021  11.419  19.057  0.00  0.00    +0.000 A 
ATOM      6  C   UNL     1       2.031  12.352  18.761  0.00  0.00    +0.000 A 
ATOM      7  C   UNL     1       1.735  13.686  18.491  0.00  0.00    +0.000 A 
ATOM      8 CL   UNL     1       2.999  14.780  18.081  0.00  0.00    +0.000 Cl
ATOM      9  C   UNL     1       0.429  14.139  18.551  0.00  0.00    +0.000 A 
ATOM     10  C   UNL     1      -0.590  13.236  18.843  0.00  0.00    +0.000 A 
ATOM     11  C   UNL     1      -0.323  11.859  19.007  0.00  0.00    +0.000 A 
BRANCH  11  12
ATOM     12  O   UNL     1      -1.361  10.941  19.147  0.00  0.00    +0.000 OA
BRANCH  12  13
ATOM     13  C   UNL     1      -2.217  10.754  18.066  0.00  0.00    +0.000 A 
ATOM     14  C   UNL     1      -1.877   9.972  16.952  0.00  0.00    +0.000 A 
ATOM     15  C   UNL     1      -2.715   9.927  15.833  0.00  0.00    +0.000 A 
ATOM     16  C   UNL     1      -3.936  10.594  15.851  0.00  0.00    +0.000 A 
ATOM     17  C   UNL     1      -4.319  11.303  16.990  0.00  0.00    +0.000 A 
ATOM     18  C   UNL     1      -3.463  11.384  18.096  0.00  0.00    +0.000 A 
ENDBRANCH  12  13
ENDBRANCH  11  12
ENDBRANCH   3   5
BRANCH   2  19
ATOM     19  C   UNL     1       1.818   7.679  18.890  0.00  0.00    +0.000 C 
BRANCH  19  20
ATOM     20  C   UNL     1       2.876   6.850  18.221  0.00  0.00    +0.000 A 
ATOM     21  N   UNL     1       3.894   7.513  17.753  0.00  0.00    +0.000 NA
ATOM     22  N   UNL     1       4.864   6.823  17.105  0.00  0.00    +0.000 N 
ATOM     23  C   UNL     1       4.844   5.483  16.816  0.00  0.00    +0.000 A 
ATOM     24  O   UNL     1       5.741   4.934  16.177  0.00  0.00    +0.000 OA
ATOM     25  C   UNL     1       3.690   4.725  17.321  0.00  0.00    +0.000 A 
ATOM     26  C   UNL     1       3.591   3.352  17.068  0.00  0.00    +0.000 A 
ATOM     27  C   UNL     1       2.517   2.630  17.580  0.00  0.00    +0.000 A 
ATOM     28  C   UNL     1       1.553   3.277  18.353  0.00  0.00    +0.000 A 
ATOM     29  C   UNL     1       1.644   4.654  18.594  0.00  0.00    +0.000 A 
ATOM     30  C   UNL     1       2.713   5.385  18.063  0.00  0.00    +0.000 A 
ATOM     31  H   UNL     1       5.669   7.357  16.789  0.00  0.00    +0.000 HD
ENDBRANCH  19  20
ENDBRANCH   2  19
TORSDOF 5
ENDMDL
MODEL 9
REMARK VINA RESULT:      -8.6      2.095      2.557
REMARK  Name = 
REMARK  5 active torsions:
REMARK  status: ('A' for Active; 'I' for Inactive)
REMARK    1  A    between atoms: C_2  and  C_3
REMARK    2  A    between atoms: C_3  and  C_4
REMARK    3  A    between atoms: N_15  and  C_16
REMARK    4  A    between atoms: C_22  and  O_23
REMARK    5  A    between atoms: O_23  and  C_24
REMARK                            x       y       z     vdW  Elec       q    Type
REMARK                         _______ _______ _______ _____ _____    ______ ____
ROOT
ATOM      1  O   UNL     1       2.437   7.754  19.554  0.00  0.00    +0.000 OA
ATOM      2  C   UNL     1       2.454   8.073  18.364  0.00  0.00    +0.000 C 
ATOM      3  N   UNL     1       3.367   7.612  17.418  0.00  0.00    +0.000 N 
ATOM      4  H   UNL     1       3.450   8.115  16.536  0.00  0.00    +0.000 HD
ENDROOT
BRANCH   3   5
ATOM      5  C   UNL     1       4.328   6.582  17.648  0.00  0.00    +0.000 A 
ATOM      6  C   UNL     1       5.658   6.913  17.966  0.00  0.00    +0.000 A 
ATOM      7  C   UNL     1       6.625   5.930  18.167  0.00  0.00    +0.000 A 
ATOM      8 CL   UNL     1       8.227   6.380  18.607  0.00  0.00    +0.000 Cl
ATOM      9  C   UNL     1       6.306   4.593  18.014  0.00  0.00    +0.000 A 
ATOM     10  C   UNL     1       4.997   4.239  17.698  0.00  0.00    +0.000 A 
ATOM     11  C   UNL     1       3.979   5.212  17.603  0.00  0.00    +0.000 A 
BRANCH  11  12
ATOM     12  O   UNL     1       2.646   4.840  17.439  0.00  0.00    +0.000 OA
BRANCH  12  13
ATOM     13  C   UNL     1       2.027   4.152  18.478  0.00  0.00    +0.000 A 
ATOM     14  C   UNL     1       1.869   4.694  19.762  0.00  0.00    +0.000 A 
ATOM     15  C   UNL     1       1.365   3.912  20.807  0.00  0.00    +0.000 A 
ATOM     16  C   UNL     1       0.938   2.612  20.559  0.00  0.00    +0.000 A 
ATOM     17  C   UNL     1       1.013   2.095  19.265  0.00  0.00    +0.000 A 
ATOM     18  C   UNL     1       1.556   2.862  18.226  0.00  0.00    +0.000 A 
ENDBRANCH  12  13
ENDBRANCH  11  12
ENDBRANCH   3   5
BRANCH   2  19
ATOM     19  C   UNL     1       1.361   8.990  17.869  0.00  0.00    +0.000 C 
BRANCH  19  20
ATOM     20  C   UNL     1       1.531  10.436  18.238  0.00  0.00    +0.000 A 
ATOM     21  N   UNL     1       2.345  11.115  17.483  0.00  0.00    +0.000 NA
ATOM     22  N   UNL     1       2.568  12.416  17.789  0.00  0.00    +0.000 N 
ATOM     23  C   UNL     1       2.075  13.083  18.882  0.00  0.00    +0.000 A 
ATOM     24  O   UNL     1       2.362  14.255  19.122  0.00  0.00    +0.000 OA
ATOM     25  C   UNL     1       1.169  12.322  19.755  0.00  0.00    +0.000 A 
ATOM     26  C   UNL     1       0.625  12.927  20.893  0.00  0.00    +0.000 A 
ATOM     27  C   UNL     1      -0.262  12.217  21.697  0.00  0.00    +0.000 A 
ATOM     28  C   UNL     1      -0.612  10.910  21.356  0.00  0.00    +0.000 A 
ATOM     29  C   UNL     1      -0.055  10.300  20.225  0.00  0.00    +0.000 A 
ATOM     30  C   UNL     1       0.852  11.006  19.427  0.00  0.00    +0.000 A 
ATOM     31  H   UNL     1       3.172  12.936  17.158  0.00  0.00    +0.000 HD
ENDBRANCH  19  20
ENDBRANCH   2  19
TORSDOF 5
ENDMDL
