MODEL 1
REMARK VINA RESULT:      -9.1      0.000      0.000
REMARK  Name = 
REMARK  4 active torsions:
REMARK  status: ('A' for Active; 'I' for Inactive)
REMARK    1  A    between atoms: C_8  and  C_9
REMARK    2  A    between atoms: N_11  and  C_12
REMARK    3  A    between atoms: C_17  and  C_18
REMARK    4  A    between atoms: C_18  and  N_19
REMARK                            x       y       z     vdW  Elec       q    Type
REMARK                         _______ _______ _______ _____ _____    ______ ____
ROOT
ATOM      1  C   UNL     1       2.516   6.803  18.730  0.00  0.00    +0.000 C 
ATOM      2  O   UNL     1       2.852   6.464  17.586  0.00  0.00    +0.000 OA
ATOM      3  N   UNL     1       2.250   5.900  19.761  0.00  0.00    +0.000 N 
ATOM      4  H   UNL     1       1.642   6.245  20.481  0.00  0.00    +0.000 HD
ENDROOT
BRANCH   1  12
ATOM      5  O   UNL     1      -1.747  11.845  17.602  0.00  0.00    +0.000 OA
ATOM      6  C   UNL     1      -1.030  11.217  18.360  0.00  0.00    +0.000 C 
ATOM      7  N   UNL     1      -1.352  10.831  19.608  0.00  0.00    +0.000 N 
ATOM      8  C   UNL     1      -0.218  10.589  20.326  0.00  0.00    +0.000 C 
ATOM      9  O   UNL     1      -0.211  10.707  21.547  0.00  0.00    +0.000 OA
ATOM     10  C   UNL     1       1.068  10.209  19.215  0.00  0.00    +0.000 C 
ATOM     11  C   UNL     1       1.174   8.738  19.984  0.00  0.00    +0.000 C 
ATOM     12  C   UNL     1       2.298   8.296  19.079  0.00  0.00    +0.000 C 
ATOM     13  C   UNL     1       1.519   9.106  18.067  0.00  0.00    +0.000 C 
ATOM     14  N   UNL     1       0.274  10.893  18.100  0.00  0.00    +0.000 N 
ATOM     15  H   UNL     1      -2.187  11.174  20.048  0.00  0.00    +0.000 HD
ATOM     16  H   UNL     1       0.684  11.290  17.264  0.00  0.00    +0.000 HD
ENDBRANCH   1  12
BRANCH   3  17
ATOM     17  C   UNL     1       2.242   4.503  19.565  0.00  0.00    +0.000 A 
ATOM     18  C   UNL     1       0.980   3.928  19.329  0.00  0.00    +0.000 A 
ATOM     19  C   UNL     1       0.852   2.576  19.029  0.00  0.00    +0.000 A 
ATOM     20  C   UNL     1       1.985   1.766  19.005  0.00  0.00    +0.000 A 
ATOM     21  C   UNL     1       3.230   2.314  19.297  0.00  0.00    +0.000 A 
ATOM     22  C   UNL     1       3.386   3.686  19.587  0.00  0.00    +0.000 A 
BRANCH  22  23
ATOM     23  C   UNL     1       4.779   4.197  19.820  0.00  0.00    +0.000 C 
BRANCH  23  24
ATOM     24  N   UNL     1       5.606   4.580  18.696  0.00  0.00    +0.000 N 
ATOM     25  C   UNL     1       6.700   5.523  18.989  0.00  0.00    +0.000 C 
ATOM     26  C   UNL     1       7.860   5.022  18.139  0.00  0.00    +0.000 C 
ATOM     27  C   UNL     1       7.033   4.748  16.924  0.00  0.00    +0.000 A 
ATOM     28  C   UNL     1       7.337   5.029  15.608  0.00  0.00    +0.000 A 
ATOM     29  C   UNL     1       6.334   4.823  14.672  0.00  0.00    +0.000 A 
ATOM     30  C   UNL     1       5.117   4.227  15.054  0.00  0.00    +0.000 A 
ATOM     31  C   UNL     1       4.830   3.946  16.401  0.00  0.00    +0.000 A 
ATOM     32  C   UNL     1       5.748   4.331  17.350  0.00  0.00    +0.000 A 
ENDBRANCH  23  24
ENDBRANCH  22  23
ENDBRANCH   3  17
TORSDOF 4
ENDMDL
MODEL 2
REMARK VINA RESULT:      -8.5      1.047      1.165
REMARK  Name = 
REMARK  4 active torsions:
REMARK  status: ('A' for Active; 'I' for Inactive)
REMARK    1  A    between atoms: C_8  and  C_9
REMARK    2  A    between atoms: N_11  and  C_12
REMARK    3  A    between atoms: C_17  and  C_18
REMARK    4  A    between atoms: C_18  and  N_19
REMARK                            x       y       z     vdW  Elec       q    Type
REMARK                         _______ _______ _______ _____ _____    ______ ____
ROOT
ATOM      1  C   UNL     1       2.365   6.884  19.596  0.00  0.00    +0.000 C 
ATOM      2  O   UNL     1       2.536   6.812  18.371  0.00  0.00    +0.000 OA
ATOM      3  N   UNL     1       2.233   5.770  20.428  0.00  0.00    +0.000 N 
ATOM      4  H   UNL     1       1.735   5.936  21.283  0.00  0.00    +0.000 HD
ENDROOT
BRANCH   1  12
ATOM      5  O   UNL     1      -1.845  12.076  20.019  0.00  0.00    +0.000 OA
ATOM      6  C   UNL     1      -1.084  11.286  20.550  0.00  0.00    +0.000 C 
ATOM      7  N   UNL     1      -1.312  10.627  21.700  0.00  0.00    +0.000 N 
ATOM      8  C   UNL     1      -0.129  10.219  22.243  0.00  0.00    +0.000 C 
ATOM      9  O   UNL     1      -0.018  10.054  23.454  0.00  0.00    +0.000 OA
ATOM     10  C   UNL     1       1.051  10.096  20.968  0.00  0.00    +0.000 C 
ATOM     11  C   UNL     1       1.182   8.488  21.370  0.00  0.00    +0.000 C 
ATOM     12  C   UNL     1       2.216   8.258  20.294  0.00  0.00    +0.000 C 
ATOM     13  C   UNL     1       1.376   9.283  19.564  0.00  0.00    +0.000 C 
ATOM     14  N   UNL     1       0.185  11.022  20.111  0.00  0.00    +0.000 N 
ATOM     15  H   UNL     1      -2.099  10.864  22.277  0.00  0.00    +0.000 HD
ATOM     16  H   UNL     1       0.535  11.598  19.356  0.00  0.00    +0.000 HD
ENDBRANCH   1  12
BRANCH   3  17
ATOM     17  C   UNL     1       2.182   4.451  19.930  0.00  0.00    +0.000 A 
ATOM     18  C   UNL     1       0.892   3.936  19.701  0.00  0.00    +0.000 A 
ATOM     19  C   UNL     1       0.711   2.683  19.125  0.00  0.00    +0.000 A 
ATOM     20  C   UNL     1       1.823   1.904  18.808  0.00  0.00    +0.000 A 
ATOM     21  C   UNL     1       3.100   2.380  19.088  0.00  0.00    +0.000 A 
ATOM     22  C   UNL     1       3.307   3.656  19.656  0.00  0.00    +0.000 A 
BRANCH  22  23
ATOM     23  C   UNL     1       4.726   4.108  19.855  0.00  0.00    +0.000 C 
BRANCH  23  24
ATOM     24  N   UNL     1       5.525   4.504  18.716  0.00  0.00    +0.000 N 
ATOM     25  C   UNL     1       6.741   5.279  19.015  0.00  0.00    +0.000 C 
ATOM     26  C   UNL     1       7.779   4.735  18.043  0.00  0.00    +0.000 C 
ATOM     27  C   UNL     1       6.853   4.681  16.870  0.00  0.00    +0.000 A 
ATOM     28  C   UNL     1       7.111   5.055  15.567  0.00  0.00    +0.000 A 
ATOM     29  C   UNL     1       6.037   5.059  14.689  0.00  0.00    +0.000 A 
ATOM     30  C   UNL     1       4.781   4.573  15.100  0.00  0.00    +0.000 A 
ATOM     31  C   UNL     1       4.543   4.194  16.433  0.00  0.00    +0.000 A 
ATOM     32  C   UNL     1       5.556   4.375  17.346  0.00  0.00    +0.000 A 
ENDBRANCH  23  24
ENDBRANCH  22  23
ENDBRANCH   3  17
TORSDOF 4
ENDMDL
MODEL 3
REMARK VINA RESULT:      -8.4      1.786      4.708
REMARK  Name = 
REMARK  4 active torsions:
REMARK  status: ('A' for Active; 'I' for Inactive)
REMARK    1  A    between atoms: C_8  and  C_9
REMARK    2  A    between atoms: N_11  and  C_12
REMARK    3  A    between atoms: C_17  and  C_18
REMARK    4  A    between atoms: C_18  and  N_19
REMARK                            x       y       z     vdW  Elec       q    Type
REMARK                         _______ _______ _______ _____ _____    ______ ____
ROOT
ATOM      1  C   UNL     1       3.108   7.314  18.295  0.00  0.00    +0.000 C 
ATOM      2  O   UNL     1       3.319   6.716  19.359  0.00  0.00    +0.000 OA
ATOM      3  N   UNL     1       3.856   7.117  17.132  0.00  0.00    +0.000 N 
ATOM      4  H   UNL     1       3.855   7.889  16.490  0.00  0.00    +0.000 HD
ENDROOT
BRANCH   1  12
ATOM      5  O   UNL     1       0.166  12.064  21.989  0.00  0.00    +0.000 OA
ATOM      6  C   UNL     1       0.638  11.689  20.930  0.00  0.00    +0.000 C 
ATOM      7  N   UNL     1       1.468  12.398  20.144  0.00  0.00    +0.000 N 
ATOM      8  C   UNL     1       1.423  11.917  18.869  0.00  0.00    +0.000 C 
ATOM      9  O   UNL     1       1.676  12.645  17.914  0.00  0.00    +0.000 OA
ATOM     10  C   UNL     1       0.900  10.257  18.923  0.00  0.00    +0.000 C 
ATOM     11  C   UNL     1       2.352   9.872  18.211  0.00  0.00    +0.000 C 
ATOM     12  C   UNL     1       2.009   8.402  18.204  0.00  0.00    +0.000 C 
ATOM     13  C   UNL     1       1.333   8.769  19.505  0.00  0.00    +0.000 C 
ATOM     14  N   UNL     1       0.308  10.515  20.310  0.00  0.00    +0.000 N 
ATOM     15  H   UNL     1       1.642  13.369  20.332  0.00  0.00    +0.000 HD
ATOM     16  H   UNL     1      -0.448   9.979  20.719  0.00  0.00    +0.000 HD
ENDBRANCH   1  12
BRANCH   3  17
ATOM     17  C   UNL     1       4.994   6.284  17.092  0.00  0.00    +0.000 A 
ATOM     18  C   UNL     1       6.229   6.930  17.287  0.00  0.00    +0.000 A 
ATOM     19  C   UNL     1       7.414   6.206  17.363  0.00  0.00    +0.000 A 
ATOM     20  C   UNL     1       7.386   4.822  17.199  0.00  0.00    +0.000 A 
ATOM     21  C   UNL     1       6.178   4.182  16.944  0.00  0.00    +0.000 A 
ATOM     22  C   UNL     1       4.961   4.895  16.881  0.00  0.00    +0.000 A 
BRANCH  22  23
ATOM     23  C   UNL     1       3.700   4.106  16.671  0.00  0.00    +0.000 C 
BRANCH  23  24
ATOM     24  N   UNL     1       2.842   3.802  17.796  0.00  0.00    +0.000 N 
ATOM     25  C   UNL     1       1.461   4.307  17.713  0.00  0.00    +0.000 C 
ATOM     26  C   UNL     1       0.617   3.182  18.296  0.00  0.00    +0.000 C 
ATOM     27  C   UNL     1       1.542   2.892  19.435  0.00  0.00    +0.000 A 
ATOM     28  C   UNL     1       1.214   2.636  20.750  0.00  0.00    +0.000 A 
ATOM     29  C   UNL     1       2.264   2.552  21.655  0.00  0.00    +0.000 A 
ATOM     30  C   UNL     1       3.596   2.596  21.204  0.00  0.00    +0.000 A 
ATOM     31  C   UNL     1       3.906   2.854  19.856  0.00  0.00    +0.000 A 
ATOM     32  C   UNL     1       2.867   3.131  18.998  0.00  0.00    +0.000 A 
ENDBRANCH  23  24
ENDBRANCH  22  23
ENDBRANCH   3  17
TORSDOF 4
ENDMDL
MODEL 4
REMARK VINA RESULT:      -8.3      1.558      2.317
REMARK  Name = 
REMARK  4 active torsions:
REMARK  status: ('A' for Active; 'I' for Inactive)
REMARK    1  A    between atoms: C_8  and  C_9
REMARK    2  A    between atoms: N_11  and  C_12
REMARK    3  A    between atoms: C_17  and  C_18
REMARK    4  A    between atoms: C_18  and  N_19
REMARK                            x       y       z     vdW  Elec       q    Type
REMARK                         _______ _______ _______ _____ _____    ______ ____
ROOT
ATOM      1  C   UNL     1       2.102   6.444  19.413  0.00  0.00    +0.000 C 
ATOM      2  O   UNL     1       1.775   6.409  18.218  0.00  0.00    +0.000 OA
ATOM      3  N   UNL     1       2.371   5.306  20.177  0.00  0.00    +0.000 N 
ATOM      4  H   UNL     1       2.246   5.420  21.166  0.00  0.00    +0.000 HD
ENDROOT
BRANCH   1  12
ATOM      5  O   UNL     1      -1.455  12.026  20.434  0.00  0.00    +0.000 OA
ATOM      6  C   UNL     1      -0.742  11.135  20.860  0.00  0.00    +0.000 C 
ATOM      7  N   UNL     1      -0.938  10.447  21.999  0.00  0.00    +0.000 N 
ATOM      8  C   UNL     1       0.236   9.890  22.412  0.00  0.00    +0.000 C 
ATOM      9  O   UNL     1       0.436   9.654  23.599  0.00  0.00    +0.000 OA
ATOM     10  C   UNL     1       1.277   9.705  21.028  0.00  0.00    +0.000 C 
ATOM     11  C   UNL     1       1.265   8.074  21.352  0.00  0.00    +0.000 C 
ATOM     12  C   UNL     1       2.168   7.790  20.175  0.00  0.00    +0.000 C 
ATOM     13  C   UNL     1       1.385   8.932  19.569  0.00  0.00    +0.000 C 
ATOM     14  N   UNL     1       0.446  10.760  20.294  0.00  0.00    +0.000 N 
ATOM     15  H   UNL     1      -1.639  10.738  22.656  0.00  0.00    +0.000 HD
ATOM     16  H   UNL     1       0.789  11.332  19.532  0.00  0.00    +0.000 HD
ENDBRANCH   1  12
BRANCH   3  17
ATOM     17  C   UNL     1       2.198   3.998  19.680  0.00  0.00    +0.000 A 
ATOM     18  C   UNL     1       0.865   3.567  19.549  0.00  0.00    +0.000 A 
ATOM     19  C   UNL     1       0.561   2.333  18.983  0.00  0.00    +0.000 A 
ATOM     20  C   UNL     1       1.593   1.488  18.580  0.00  0.00    +0.000 A 
ATOM     21  C   UNL     1       2.915   1.880  18.762  0.00  0.00    +0.000 A 
ATOM     22  C   UNL     1       3.247   3.134  19.318  0.00  0.00    +0.000 A 
BRANCH  22  23
ATOM     23  C   UNL     1       4.702   3.495  19.409  0.00  0.00    +0.000 C 
BRANCH  23  24
ATOM     24  N   UNL     1       5.247   4.523  18.550  0.00  0.00    +0.000 N 
ATOM     25  C   UNL     1       4.756   4.535  17.161  0.00  0.00    +0.000 C 
ATOM     26  C   UNL     1       4.606   6.014  16.832  0.00  0.00    +0.000 C 
ATOM     27  C   UNL     1       5.891   6.430  17.475  0.00  0.00    +0.000 A 
ATOM     28  C   UNL     1       6.831   7.319  16.996  0.00  0.00    +0.000 A 
ATOM     29  C   UNL     1       8.020   7.419  17.705  0.00  0.00    +0.000 A 
ATOM     30  C   UNL     1       8.181   6.734  18.924  0.00  0.00    +0.000 A 
ATOM     31  C   UNL     1       7.206   5.836  19.394  0.00  0.00    +0.000 A 
ATOM     32  C   UNL     1       6.116   5.591  18.593  0.00  0.00    +0.000 A 
ENDBRANCH  23  24
ENDBRANCH  22  23
ENDBRANCH   3  17
TORSDOF 4
ENDMDL
MODEL 5
REMARK VINA RESULT:      -8.3      1.789      4.691
REMARK  Name = 
REMARK  4 active torsions:
REMARK  status: ('A' for Active; 'I' for Inactive)
REMARK    1  A    between atoms: C_8  and  C_9
REMARK    2  A    between atoms: N_11  and  C_12
REMARK    3  A    between atoms: C_17  and  C_18
REMARK    4  A    between atoms: C_18  and  N_19
REMARK                            x       y       z     vdW  Elec       q    Type
REMARK                         _______ _______ _______ _____ _____    ______ ____
ROOT
ATOM      1  C   UNL     1       3.119   7.582  17.664  0.00  0.00    +0.000 C 
ATOM      2  O   UNL     1       3.406   8.217  16.640  0.00  0.00    +0.000 OA
ATOM      3  N   UNL     1       3.892   6.535  18.171  0.00  0.00    +0.000 N 
ATOM      4  H   UNL     1       3.393   5.876  18.740  0.00  0.00    +0.000 HD
ENDROOT
BRANCH   1  12
ATOM      5  O   UNL     1       0.944   9.685  23.640  0.00  0.00    +0.000 OA
ATOM      6  C   UNL     1       0.866   9.692  22.424  0.00  0.00    +0.000 C 
ATOM      7  N   UNL     1       0.710  10.783  21.653  0.00  0.00    +0.000 N 
ATOM      8  C   UNL     1       0.194  10.425  20.442  0.00  0.00    +0.000 C 
ATOM      9  O   UNL     1      -0.473  11.217  19.785  0.00  0.00    +0.000 OA
ATOM     10  C   UNL     1       0.589   8.755  20.145  0.00  0.00    +0.000 C 
ATOM     11  C   UNL     1       1.401   9.283  18.793  0.00  0.00    +0.000 C 
ATOM     12  C   UNL     1       1.807   7.874  18.433  0.00  0.00    +0.000 C 
ATOM     13  C   UNL     1       1.876   7.735  19.937  0.00  0.00    +0.000 C 
ATOM     14  N   UNL     1       0.814   8.567  21.648  0.00  0.00    +0.000 N 
ATOM     15  H   UNL     1       0.505  11.675  22.066  0.00  0.00    +0.000 HD
ATOM     16  H   UNL     1       0.740   7.681  22.132  0.00  0.00    +0.000 HD
ENDBRANCH   1  12
BRANCH   3  17
ATOM     17  C   UNL     1       5.028   6.036  17.501  0.00  0.00    +0.000 A 
ATOM     18  C   UNL     1       6.118   6.921  17.408  0.00  0.00    +0.000 A 
ATOM     19  C   UNL     1       7.328   6.515  16.854  0.00  0.00    +0.000 A 
ATOM     20  C   UNL     1       7.451   5.225  16.341  0.00  0.00    +0.000 A 
ATOM     21  C   UNL     1       6.360   4.364  16.374  0.00  0.00    +0.000 A 
ATOM     22  C   UNL     1       5.129   4.748  16.947  0.00  0.00    +0.000 A 
BRANCH  22  23
ATOM     23  C   UNL     1       4.031   3.724  16.996  0.00  0.00    +0.000 C 
BRANCH  23  24
ATOM     24  N   UNL     1       3.622   3.164  18.267  0.00  0.00    +0.000 N 
ATOM     25  C   UNL     1       4.257   1.891  18.649  0.00  0.00    +0.000 C 
ATOM     26  C   UNL     1       4.502   2.031  20.145  0.00  0.00    +0.000 C 
ATOM     27  C   UNL     1       3.174   2.651  20.444  0.00  0.00    +0.000 A 
ATOM     28  C   UNL     1       2.327   2.377  21.497  0.00  0.00    +0.000 A 
ATOM     29  C   UNL     1       1.074   2.974  21.469  0.00  0.00    +0.000 A 
ATOM     30  C   UNL     1       0.757   3.916  20.471  0.00  0.00    +0.000 A 
ATOM     31  C   UNL     1       1.640   4.182  19.409  0.00  0.00    +0.000 A 
ATOM     32  C   UNL     1       2.798   3.445  19.333  0.00  0.00    +0.000 A 
ENDBRANCH  23  24
ENDBRANCH  22  23
ENDBRANCH   3  17
TORSDOF 4
ENDMDL
MODEL 6
REMARK VINA RESULT:      -8.2      1.722      4.586
REMARK  Name = 
REMARK  4 active torsions:
REMARK  status: ('A' for Active; 'I' for Inactive)
REMARK    1  A    between atoms: C_8  and  C_9
REMARK    2  A    between atoms: N_11  and  C_12
REMARK    3  A    between atoms: C_17  and  C_18
REMARK    4  A    between atoms: C_18  and  N_19
REMARK                            x       y       z     vdW  Elec       q    Type
REMARK                         _______ _______ _______ _____ _____    ______ ____
ROOT
ATOM      1  C   UNL     1       3.150   7.103  18.513  0.00  0.00    +0.000 C 
ATOM      2  O   UNL     1       3.672   6.676  19.552  0.00  0.00    +0.000 OA
ATOM      3  N   UNL     1       3.659   6.867  17.235  0.00  0.00    +0.000 N 
ATOM      4  H   UNL     1       3.399   7.546  16.542  0.00  0.00    +0.000 HD
ENDROOT
BRANCH   1  12
ATOM      5  O   UNL     1      -0.045  11.292  22.650  0.00  0.00    +0.000 OA
ATOM      6  C   UNL     1       0.358  11.009  21.535  0.00  0.00    +0.000 C 
ATOM      7  N   UNL     1       0.980  11.849  20.688  0.00  0.00    +0.000 N 
ATOM      8  C   UNL     1       0.868  11.386  19.410  0.00  0.00    +0.000 C 
ATOM      9  O   UNL     1       0.901  12.158  18.458  0.00  0.00    +0.000 OA
ATOM     10  C   UNL     1       0.608   9.665  19.467  0.00  0.00    +0.000 C 
ATOM     11  C   UNL     1       2.015   9.516  18.592  0.00  0.00    +0.000 C 
ATOM     12  C   UNL     1       1.897   8.012  18.575  0.00  0.00    +0.000 C 
ATOM     13  C   UNL     1       1.321   8.252  19.952  0.00  0.00    +0.000 C 
ATOM     14  N   UNL     1       0.141   9.808  20.917  0.00  0.00    +0.000 N 
ATOM     15  H   UNL     1       1.027  12.832  20.887  0.00  0.00    +0.000 HD
ATOM     16  H   UNL     1      -0.476   9.157  21.388  0.00  0.00    +0.000 HD
ENDBRANCH   1  12
BRANCH   3  17
ATOM     17  C   UNL     1       4.881   6.198  17.014  0.00  0.00    +0.000 A 
ATOM     18  C   UNL     1       6.020   7.020  16.939  0.00  0.00    +0.000 A 
ATOM     19  C   UNL     1       7.294   6.474  16.818  0.00  0.00    +0.000 A 
ATOM     20  C   UNL     1       7.443   5.091  16.724  0.00  0.00    +0.000 A 
ATOM     21  C   UNL     1       6.317   4.275  16.735  0.00  0.00    +0.000 A 
ATOM     22  C   UNL     1       5.017   4.806  16.875  0.00  0.00    +0.000 A 
BRANCH  22  23
ATOM     23  C   UNL     1       3.871   3.838  16.946  0.00  0.00    +0.000 C 
BRANCH  23  24
ATOM     24  N   UNL     1       3.510   3.237  18.212  0.00  0.00    +0.000 N 
ATOM     25  C   UNL     1       4.180   1.966  18.539  0.00  0.00    +0.000 C 
ATOM     26  C   UNL     1       4.466   2.070  20.031  0.00  0.00    +0.000 C 
ATOM     27  C   UNL     1       3.137   2.657  20.386  0.00  0.00    +0.000 A 
ATOM     28  C   UNL     1       2.327   2.338  21.456  0.00  0.00    +0.000 A 
ATOM     29  C   UNL     1       1.064   2.912  21.482  0.00  0.00    +0.000 A 
ATOM     30  C   UNL     1       0.700   3.874  20.521  0.00  0.00    +0.000 A 
ATOM     31  C   UNL     1       1.545   4.186  19.441  0.00  0.00    +0.000 A 
ATOM     32  C   UNL     1       2.714   3.473  19.310  0.00  0.00    +0.000 A 
ENDBRANCH  23  24
ENDBRANCH  22  23
ENDBRANCH   3  17
TORSDOF 4
ENDMDL
MODEL 7
REMARK VINA RESULT:      -8.2      1.668      2.512
REMARK  Name = 
REMARK  4 active torsions:
REMARK  status: ('A' for Active; 'I' for Inactive)
REMARK    1  A    between atoms: C_8  and  C_9
REMARK    2  A    between atoms: N_11  and  C_12
REMARK    3  A    between atoms: C_17  and  C_18
REMARK    4  A    between atoms: C_18  and  N_19
REMARK                            x       y       z     vdW  Elec       q    Type
REMARK                         _______ _______ _______ _____ _____    ______ ____
ROOT
ATOM      1  C   UNL     1       2.349   6.859  18.710  0.00  0.00    +0.000 C 
ATOM      2  O   UNL     1       3.117   6.868  19.682  0.00  0.00    +0.000 OA
ATOM      3  N   UNL     1       1.730   5.707  18.221  0.00  0.00    +0.000 N 
ATOM      4  H   UNL     1       1.462   5.746  17.254  0.00  0.00    +0.000 HD
ENDROOT
BRANCH   1  12
ATOM      5  O   UNL     1      -1.314  12.460  18.973  0.00  0.00    +0.000 OA
ATOM      6  C   UNL     1      -0.261  11.896  18.732  0.00  0.00    +0.000 C 
ATOM      7  N   UNL     1       0.962  12.325  19.093  0.00  0.00    +0.000 N 
ATOM      8  C   UNL     1       1.908  11.756  18.293  0.00  0.00    +0.000 C 
ATOM      9  O   UNL     1       2.977  12.320  18.087  0.00  0.00    +0.000 OA
ATOM     10  C   UNL     1       1.267  10.270  17.651  0.00  0.00    +0.000 C 
ATOM     11  C   UNL     1       2.533   9.503  18.408  0.00  0.00    +0.000 C 
ATOM     12  C   UNL     1       2.073   8.155  17.909  0.00  0.00    +0.000 C 
ATOM     13  C   UNL     1       0.712   8.780  18.111  0.00  0.00    +0.000 C 
ATOM     14  N   UNL     1      -0.145  10.777  17.953  0.00  0.00    +0.000 N 
ATOM     15  H   UNL     1       1.086  13.244  19.479  0.00  0.00    +0.000 HD
ATOM     16  H   UNL     1      -0.981  10.466  17.474  0.00  0.00    +0.000 HD
ENDBRANCH   1  12
BRANCH   3  17
ATOM     17  C   UNL     1       2.002   4.421  18.733  0.00  0.00    +0.000 A 
ATOM     18  C   UNL     1       1.321   4.079  19.915  0.00  0.00    +0.000 A 
ATOM     19  C   UNL     1       1.433   2.807  20.467  0.00  0.00    +0.000 A 
ATOM     20  C   UNL     1       2.269   1.868  19.866  0.00  0.00    +0.000 A 
ATOM     21  C   UNL     1       2.994   2.217  18.732  0.00  0.00    +0.000 A 
ATOM     22  C   UNL     1       2.882   3.496  18.145  0.00  0.00    +0.000 A 
BRANCH  22  23
ATOM     23  C   UNL     1       3.652   3.753  16.881  0.00  0.00    +0.000 C 
BRANCH  23  24
ATOM     24  N   UNL     1       4.730   4.718  16.876  0.00  0.00    +0.000 N 
ATOM     25  C   UNL     1       5.098   5.272  15.561  0.00  0.00    +0.000 C 
ATOM     26  C   UNL     1       5.382   6.741  15.842  0.00  0.00    +0.000 C 
ATOM     27  C   UNL     1       6.142   6.495  17.106  0.00  0.00    +0.000 A 
ATOM     28  C   UNL     1       7.312   7.095  17.524  0.00  0.00    +0.000 A 
ATOM     29  C   UNL     1       7.910   6.581  18.666  0.00  0.00    +0.000 A 
ATOM     30  C   UNL     1       7.263   5.583  19.420  0.00  0.00    +0.000 A 
ATOM     31  C   UNL     1       6.068   4.990  18.976  0.00  0.00    +0.000 A 
ATOM     32  C   UNL     1       5.580   5.364  17.745  0.00  0.00    +0.000 A 
ENDBRANCH  23  24
ENDBRANCH  22  23
ENDBRANCH   3  17
TORSDOF 4
ENDMDL
MODEL 8
REMARK VINA RESULT:      -8.1      1.759      4.799
REMARK  Name = 
REMARK  4 active torsions:
REMARK  status: ('A' for Active; 'I' for Inactive)
REMARK    1  A    between atoms: C_8  and  C_9
REMARK    2  A    between atoms: N_11  and  C_12
REMARK    3  A    between atoms: C_17  and  C_18
REMARK    4  A    between atoms: C_18  and  N_19
REMARK                            x       y       z     vdW  Elec       q    Type
REMARK                         _______ _______ _______ _____ _____    ______ ____
ROOT
ATOM      1  C   UNL     1       3.368   7.463  17.612  0.00  0.00    +0.000 C 
ATOM      2  O   UNL     1       3.775   7.893  16.523  0.00  0.00    +0.000 OA
ATOM      3  N   UNL     1       4.027   6.480  18.354  0.00  0.00    +0.000 N 
ATOM      4  H   UNL     1       3.442   5.958  18.981  0.00  0.00    +0.000 HD
ENDROOT
BRANCH   1  12
ATOM      5  O   UNL     1       0.736   9.825  23.300  0.00  0.00    +0.000 OA
ATOM      6  C   UNL     1       0.831   9.857  22.086  0.00  0.00    +0.000 C 
ATOM      7  N   UNL     1       0.960  10.967  21.337  0.00  0.00    +0.000 N 
ATOM      8  C   UNL     1       0.569  10.710  20.056  0.00  0.00    +0.000 C 
ATOM      9  O   UNL     1       0.135  11.607  19.340  0.00  0.00    +0.000 OA
ATOM     10  C   UNL     1       0.733   9.002  19.761  0.00  0.00    +0.000 C 
ATOM     11  C   UNL     1       1.800   9.406  18.551  0.00  0.00    +0.000 C 
ATOM     12  C   UNL     1       2.023   7.955  18.203  0.00  0.00    +0.000 C 
ATOM     13  C   UNL     1       1.858   7.790  19.696  0.00  0.00    +0.000 C 
ATOM     14  N   UNL     1       0.712   8.764  21.272  0.00  0.00    +0.000 N 
ATOM     15  H   UNL     1       0.843  11.876  21.748  0.00  0.00    +0.000 HD
ATOM     16  H   UNL     1       0.430   7.896  21.712  0.00  0.00    +0.000 HD
ENDBRANCH   1  12
BRANCH   3  17
ATOM     17  C   UNL     1       5.175   5.812  17.880  0.00  0.00    +0.000 A 
ATOM     18  C   UNL     1       6.399   6.463  18.114  0.00  0.00    +0.000 A 
ATOM     19  C   UNL     1       7.608   5.862  17.778  0.00  0.00    +0.000 A 
ATOM     20  C   UNL     1       7.608   4.614  17.158  0.00  0.00    +0.000 A 
ATOM     21  C   UNL     1       6.399   3.990  16.867  0.00  0.00    +0.000 A 
ATOM     22  C   UNL     1       5.161   4.573  17.215  0.00  0.00    +0.000 A 
BRANCH  22  23
ATOM     23  C   UNL     1       3.914   3.790  16.921  0.00  0.00    +0.000 C 
BRANCH  23  24
ATOM     24  N   UNL     1       2.905   3.627  17.945  0.00  0.00    +0.000 N 
ATOM     25  C   UNL     1       1.592   4.235  17.664  0.00  0.00    +0.000 C 
ATOM     26  C   UNL     1       0.590   3.219  18.197  0.00  0.00    +0.000 C 
ATOM     27  C   UNL     1       1.344   2.930  19.455  0.00  0.00    +0.000 A 
ATOM     28  C   UNL     1       0.841   2.785  20.732  0.00  0.00    +0.000 A 
ATOM     29  C   UNL     1       1.763   2.677  21.763  0.00  0.00    +0.000 A 
ATOM     30  C   UNL     1       3.139   2.586  21.480  0.00  0.00    +0.000 A 
ATOM     31  C   UNL     1       3.628   2.733  20.169  0.00  0.00    +0.000 A 
ATOM     32  C   UNL     1       2.727   3.035  19.175  0.00  0.00    +0.000 A 
ENDBRANCH  23  24
ENDBRANCH  22  23
ENDBRANCH   3  17
TORSDOF 4
ENDMDL
MODEL 9
REMARK VINA RESULT:      -8.1      1.371      2.224
REMARK  Name = 
REMARK  4 active torsions:
REMARK  status: ('A' for Active; 'I' for Inactive)
REMARK    1  A    between atoms: C_8  and  C_9
REMARK    2  A    between atoms: N_11  and  C_12
REMARK    3  A    between atoms: C_17  and  C_18
REMARK    4  A    between atoms: C_18  and  N_19
REMARK                            x       y       z     vdW  Elec       q    Type
REMARK                         _______ _______ _______ _____ _____    ______ ____
ROOT
ATOM      1  C   UNL     1       2.160   6.687  18.636  0.00  0.00    +0.000 C 
ATOM      2  O   UNL     1       1.454   6.052  17.841  0.00  0.00    +0.000 OA
ATOM      3  N   UNL     1       2.908   6.094  19.655  0.00  0.00    +0.000 N 
ATOM      4  H   UNL     1       3.113   6.692  20.435  0.00  0.00    +0.000 HD
ENDROOT
BRANCH   1  12
ATOM      5  O   UNL     1      -1.885  12.001  18.125  0.00  0.00    +0.000 OA
ATOM      6  C   UNL     1      -0.920  11.451  18.626  0.00  0.00    +0.000 C 
ATOM      7  N   UNL     1      -0.618  11.436  19.937  0.00  0.00    +0.000 N 
ATOM      8  C   UNL     1       0.710  11.170  20.103  0.00  0.00    +0.000 C 
ATOM      9  O   UNL     1       1.310  11.570  21.095  0.00  0.00    +0.000 OA
ATOM     10  C   UNL     1       1.282  10.314  18.699  0.00  0.00    +0.000 C 
ATOM     11  C   UNL     1       1.679   9.072  19.731  0.00  0.00    +0.000 C 
ATOM     12  C   UNL     1       2.206   8.234  18.591  0.00  0.00    +0.000 C 
ATOM     13  C   UNL     1       1.073   8.908  17.851  0.00  0.00    +0.000 C 
ATOM     14  N   UNL     1       0.080  10.846  17.915  0.00  0.00    +0.000 N 
ATOM     15  H   UNL     1      -1.121  12.017  20.583  0.00  0.00    +0.000 HD
ATOM     16  H   UNL     1       0.054  10.954  16.909  0.00  0.00    +0.000 HD
ENDBRANCH   1  12
BRANCH   3  17
ATOM     17  C   UNL     1       2.849   4.713  19.937  0.00  0.00    +0.000 A 
ATOM     18  C   UNL     1       2.361   4.371  21.211  0.00  0.00    +0.000 A 
ATOM     19  C   UNL     1       2.167   3.042  21.574  0.00  0.00    +0.000 A 
ATOM     20  C   UNL     1       2.502   2.028  20.678  0.00  0.00    +0.000 A 
ATOM     21  C   UNL     1       3.043   2.356  19.439  0.00  0.00    +0.000 A 
ATOM     22  C   UNL     1       3.232   3.697  19.043  0.00  0.00    +0.000 A 
BRANCH  22  23
ATOM     23  C   UNL     1       3.756   3.950  17.658  0.00  0.00    +0.000 C 
BRANCH  23  24
ATOM     24  N   UNL     1       4.808   4.921  17.450  0.00  0.00    +0.000 N 
ATOM     25  C   UNL     1       4.938   5.451  16.081  0.00  0.00    +0.000 C 
ATOM     26  C   UNL     1       5.251   6.927  16.282  0.00  0.00    +0.000 C 
ATOM     27  C   UNL     1       6.220   6.713  17.400  0.00  0.00    +0.000 A 
ATOM     28  C   UNL     1       7.438   7.329  17.599  0.00  0.00    +0.000 A 
ATOM     29  C   UNL     1       8.228   6.843  18.631  0.00  0.00    +0.000 A 
ATOM     30  C   UNL     1       7.731   5.856  19.503  0.00  0.00    +0.000 A 
ATOM     31  C   UNL     1       6.483   5.245  19.283  0.00  0.00    +0.000 A 
ATOM     32  C   UNL     1       5.788   5.590  18.148  0.00  0.00    +0.000 A 
ENDBRANCH  23  24
ENDBRANCH  22  23
ENDBRANCH   3  17
TORSDOF 4
ENDMDL
