MODEL 1
REMARK VINA RESULT:      -9.0      0.000      0.000
REMARK  Name = 
REMARK  6 active torsions:
REMARK  status: ('A' for Active; 'I' for Inactive)
REMARK    1  A    between atoms: C_2  and  C_11
REMARK    2  A    between atoms: N_3  and  C_4
REMARK    3  A    between atoms: C_4  and  C_5
REMARK    4  A    between atoms: C_15  and  O_16
REMARK    5  A    between atoms: O_16  and  C_17
REMARK    6  A    between atoms: C_23  and  C_24
REMARK                            x       y       z     vdW  Elec       q    Type
REMARK                         _______ _______ _______ _____ _____    ______ ____
ROOT
ATOM      1  C   UNL     1       1.136   8.921  20.317  0.00  0.00    +0.000 A 
ATOM      2  C   UNL     1       0.923   8.491  21.637  0.00  0.00    +0.000 A 
ATOM      3  C   UNL     1       0.153   9.252  22.512  0.00  0.00    +0.000 A 
ATOM      4  C   UNL     1      -0.410  10.448  22.075  0.00  0.00    +0.000 A 
ATOM      5  C   UNL     1      -0.173  10.895  20.772  0.00  0.00    +0.000 A 
ATOM      6  C   UNL     1       0.564  10.124  19.871  0.00  0.00    +0.000 A 
ENDROOT
BRANCH   1   8
ATOM      7  O   UNL     1       2.099   8.309  18.260  0.00  0.00    +0.000 OA
ATOM      8  C   UNL     1       1.983   8.055  19.452  0.00  0.00    +0.000 C 
ATOM      9  N   UNL     1       2.546   6.954  20.058  0.00  0.00    +0.000 N 
ATOM     10  H   UNL     1       2.323   6.732  21.016  0.00  0.00    +0.000 HD
BRANCH   9  11
ATOM     11  C   UNL     1       3.266   5.961  19.297  0.00  0.00    +0.000 C 
BRANCH  11  12
ATOM     12  C   UNL     1       2.482   4.681  19.192  0.00  0.00    +0.000 A 
ATOM     13  C   UNL     1       1.522   4.345  20.156  0.00  0.00    +0.000 A 
ATOM     14  C   UNL     1       0.775   3.172  20.030  0.00  0.00    +0.000 A 
ATOM     15  C   UNL     1       0.984   2.325  18.941  0.00  0.00    +0.000 A 
ATOM     16  C   UNL     1       1.952   2.638  17.990  0.00  0.00    +0.000 A 
ATOM     17  C   UNL     1       2.706   3.805  18.120  0.00  0.00    +0.000 A 
ENDBRANCH  11  12
ENDBRANCH   9  11
ENDBRANCH   1   8
BRANCH   5  18
ATOM     18  O   UNL     1      -0.747  12.103  20.318  0.00  0.00    +0.000 OA
BRANCH  18  19
ATOM     19  C   UNL     1      -2.020  12.052  19.765  0.00  0.00    +0.000 A 
ATOM     20  C   UNL     1      -2.980  12.705  20.684  0.00  0.00    +0.000 A 
ATOM     21  C   UNL     1      -4.254  12.772  20.273  0.00  0.00    +0.000 A 
ATOM     22  C   UNL     1      -4.605  12.217  19.022  0.00  0.00    +0.000 A 
ATOM     23  N   UNL     1      -5.744  12.138  18.373  0.00  0.00    +0.000 NA
ATOM     24  N   UNL     1      -5.498  11.505  17.174  0.00  0.00    +0.000 NA
ATOM     25  C   UNL     1      -4.210  11.213  17.120  0.00  0.00    +0.000 A 
ATOM     26  N   UNL     1      -3.602  11.630  18.273  0.00  0.00    +0.000 N 
ATOM     27  N   UNL     1      -2.287  11.519  18.612  0.00  0.00    +0.000 NA
BRANCH  25  28
ATOM     28  C   UNL     1      -3.448  10.565  16.044  0.00  0.00    +0.000 C 
ATOM     29  F   UNL     1      -2.858   9.408  16.448  0.00  0.00    +0.000 F 
ATOM     30  F   UNL     1      -4.232  10.239  14.980  0.00  0.00    +0.000 F 
ATOM     31  F   UNL     1      -2.447  11.352  15.568  0.00  0.00    +0.000 F 
ENDBRANCH  25  28
ENDBRANCH  18  19
ENDBRANCH   5  18
TORSDOF 6
ENDMDL
MODEL 2
REMARK VINA RESULT:      -8.7      4.743      9.733
REMARK  Name = 
REMARK  6 active torsions:
REMARK  status: ('A' for Active; 'I' for Inactive)
REMARK    1  A    between atoms: C_2  and  C_11
REMARK    2  A    between atoms: N_3  and  C_4
REMARK    3  A    between atoms: C_4  and  C_5
REMARK    4  A    between atoms: C_15  and  O_16
REMARK    5  A    between atoms: O_16  and  C_17
REMARK    6  A    between atoms: C_23  and  C_24
REMARK                            x       y       z     vdW  Elec       q    Type
REMARK                         _______ _______ _______ _____ _____    ______ ____
ROOT
ATOM      1  C   UNL     1       1.383   8.738  20.554  0.00  0.00    +0.000 A 
ATOM      2  C   UNL     1       1.228   9.484  19.375  0.00  0.00    +0.000 A 
ATOM      3  C   UNL     1       1.613   8.952  18.147  0.00  0.00    +0.000 A 
ATOM      4  C   UNL     1       2.157   7.672  18.090  0.00  0.00    +0.000 A 
ATOM      5  C   UNL     1       2.342   6.940  19.265  0.00  0.00    +0.000 A 
ATOM      6  C   UNL     1       1.925   7.443  20.499  0.00  0.00    +0.000 A 
ENDROOT
BRANCH   1   8
ATOM      7  O   UNL     1       1.746   9.476  22.759  0.00  0.00    +0.000 OA
ATOM      8  C   UNL     1       0.959   9.387  21.825  0.00  0.00    +0.000 C 
ATOM      9  N   UNL     1      -0.353   9.800  21.889  0.00  0.00    +0.000 N 
ATOM     10  H   UNL     1      -0.987   9.598  21.131  0.00  0.00    +0.000 HD
BRANCH   9  11
ATOM     11  C   UNL     1      -0.925  10.309  23.114  0.00  0.00    +0.000 C 
BRANCH  11  12
ATOM     12  C   UNL     1      -1.456  11.703  22.929  0.00  0.00    +0.000 A 
ATOM     13  C   UNL     1      -2.761  12.034  23.323  0.00  0.00    +0.000 A 
ATOM     14  C   UNL     1      -3.231  13.341  23.180  0.00  0.00    +0.000 A 
ATOM     15  C   UNL     1      -2.404  14.326  22.640  0.00  0.00    +0.000 A 
ATOM     16  C   UNL     1      -1.115  14.003  22.225  0.00  0.00    +0.000 A 
ATOM     17  C   UNL     1      -0.646  12.695  22.357  0.00  0.00    +0.000 A 
ENDBRANCH  11  12
ENDBRANCH   9  11
ENDBRANCH   1   8
BRANCH   5  18
ATOM     18  O   UNL     1       2.886   5.637  19.215  0.00  0.00    +0.000 OA
BRANCH  18  19
ATOM     19  C   UNL     1       3.914   5.395  18.312  0.00  0.00    +0.000 A 
ATOM     20  C   UNL     1       3.556   4.239  17.460  0.00  0.00    +0.000 A 
ATOM     21  C   UNL     1       4.434   3.901  16.505  0.00  0.00    +0.000 A 
ATOM     22  C   UNL     1       5.631   4.641  16.377  0.00  0.00    +0.000 A 
ATOM     23  N   UNL     1       6.651   4.545  15.555  0.00  0.00    +0.000 NA
ATOM     24  N   UNL     1       7.538   5.550  15.873  0.00  0.00    +0.000 NA
ATOM     25  C   UNL     1       7.036   6.238  16.885  0.00  0.00    +0.000 A 
ATOM     26  N   UNL     1       5.836   5.693  17.251  0.00  0.00    +0.000 N 
ATOM     27  N   UNL     1       5.000   6.104  18.245  0.00  0.00    +0.000 NA
BRANCH  25  28
ATOM     28  C   UNL     1       7.582   7.418  17.569  0.00  0.00    +0.000 C 
ATOM     29  F   UNL     1       8.140   7.110  18.771  0.00  0.00    +0.000 F 
ATOM     30  F   UNL     1       8.559   8.029  16.844  0.00  0.00    +0.000 F 
ATOM     31  F   UNL     1       6.633   8.358  17.823  0.00  0.00    +0.000 F 
ENDBRANCH  25  28
ENDBRANCH  18  19
ENDBRANCH   5  18
TORSDOF 6
ENDMDL
MODEL 3
REMARK VINA RESULT:      -8.7      1.728      2.762
REMARK  Name = 
REMARK  6 active torsions:
REMARK  status: ('A' for Active; 'I' for Inactive)
REMARK    1  A    between atoms: C_2  and  C_11
REMARK    2  A    between atoms: N_3  and  C_4
REMARK    3  A    between atoms: C_4  and  C_5
REMARK    4  A    between atoms: C_15  and  O_16
REMARK    5  A    between atoms: O_16  and  C_17
REMARK    6  A    between atoms: C_23  and  C_24
REMARK                            x       y       z     vdW  Elec       q    Type
REMARK                         _______ _______ _______ _____ _____    ______ ____
ROOT
ATOM      1  C   UNL     1       1.534   8.718  19.444  0.00  0.00    +0.000 A 
ATOM      2  C   UNL     1       1.317   8.077  20.673  0.00  0.00    +0.000 A 
ATOM      3  C   UNL     1       0.529   8.675  21.653  0.00  0.00    +0.000 A 
ATOM      4  C   UNL     1      -0.048   9.919  21.410  0.00  0.00    +0.000 A 
ATOM      5  C   UNL     1       0.192  10.574  20.199  0.00  0.00    +0.000 A 
ATOM      6  C   UNL     1       0.948   9.970  19.192  0.00  0.00    +0.000 A 
ENDROOT
BRANCH   1   8
ATOM      7  O   UNL     1       2.661   8.546  17.386  0.00  0.00    +0.000 OA
ATOM      8  C   UNL     1       2.401   8.016  18.458  0.00  0.00    +0.000 C 
ATOM      9  N   UNL     1       2.813   6.749  18.805  0.00  0.00    +0.000 N 
ATOM     10  H   UNL     1       2.474   6.317  19.651  0.00  0.00    +0.000 HD
BRANCH   9  11
ATOM     11  C   UNL     1       3.533   5.910  17.876  0.00  0.00    +0.000 C 
BRANCH  11  12
ATOM     12  C   UNL     1       5.019   6.036  18.067  0.00  0.00    +0.000 A 
ATOM     13  C   UNL     1       5.668   5.377  19.121  0.00  0.00    +0.000 A 
ATOM     14  C   UNL     1       7.052   5.472  19.267  0.00  0.00    +0.000 A 
ATOM     15  C   UNL     1       7.800   6.228  18.365  0.00  0.00    +0.000 A 
ATOM     16  C   UNL     1       7.163   6.906  17.328  0.00  0.00    +0.000 A 
ATOM     17  C   UNL     1       5.778   6.821  17.186  0.00  0.00    +0.000 A 
ENDBRANCH  11  12
ENDBRANCH   9  11
ENDBRANCH   1   8
BRANCH   5  18
ATOM     18  O   UNL     1      -0.396  11.833  19.942  0.00  0.00    +0.000 OA
BRANCH  18  19
ATOM     19  C   UNL     1      -1.707  11.857  19.483  0.00  0.00    +0.000 A 
ATOM     20  C   UNL     1      -2.561  12.547  20.476  0.00  0.00    +0.000 A 
ATOM     21  C   UNL     1      -3.855  12.688  20.160  0.00  0.00    +0.000 A 
ATOM     22  C   UNL     1      -4.326  12.170  18.932  0.00  0.00    +0.000 A 
ATOM     23  N   UNL     1      -5.512  12.161  18.367  0.00  0.00    +0.000 NA
ATOM     24  N   UNL     1      -5.388  11.533  17.147  0.00  0.00    +0.000 NA
ATOM     25  C   UNL     1      -4.124  11.173  16.996  0.00  0.00    +0.000 A 
ATOM     26  N   UNL     1      -3.413  11.541  18.105  0.00  0.00    +0.000 N 
ATOM     27  N   UNL     1      -2.085  11.356  18.346  0.00  0.00    +0.000 NA
BRANCH  25  28
ATOM     28  C   UNL     1      -3.479  10.501  15.861  0.00  0.00    +0.000 C 
ATOM     29  F   UNL     1      -4.348  10.240  14.848  0.00  0.00    +0.000 F 
ATOM     30  F   UNL     1      -2.479  11.248  15.318  0.00  0.00    +0.000 F 
ATOM     31  F   UNL     1      -2.933   9.304  16.206  0.00  0.00    +0.000 F 
ENDBRANCH  25  28
ENDBRANCH  18  19
ENDBRANCH   5  18
TORSDOF 6
ENDMDL
MODEL 4
REMARK VINA RESULT:      -8.5      5.124      9.889
REMARK  Name = 
REMARK  6 active torsions:
REMARK  status: ('A' for Active; 'I' for Inactive)
REMARK    1  A    between atoms: C_2  and  C_11
REMARK    2  A    between atoms: N_3  and  C_4
REMARK    3  A    between atoms: C_4  and  C_5
REMARK    4  A    between atoms: C_15  and  O_16
REMARK    5  A    between atoms: O_16  and  C_17
REMARK    6  A    between atoms: C_23  and  C_24
REMARK                            x       y       z     vdW  Elec       q    Type
REMARK                         _______ _______ _______ _____ _____    ______ ____
ROOT
ATOM      1  C   UNL     1       2.508   6.139  19.112  0.00  0.00    +0.000 A 
ATOM      2  C   UNL     1       2.122   5.617  20.357  0.00  0.00    +0.000 A 
ATOM      3  C   UNL     1       2.424   4.301  20.696  0.00  0.00    +0.000 A 
ATOM      4  C   UNL     1       3.114   3.496  19.792  0.00  0.00    +0.000 A 
ATOM      5  C   UNL     1       3.471   4.003  18.540  0.00  0.00    +0.000 A 
ATOM      6  C   UNL     1       3.209   5.332  18.201  0.00  0.00    +0.000 A 
ENDROOT
BRANCH   1   8
ATOM      7  O   UNL     1       2.452   8.063  17.759  0.00  0.00    +0.000 OA
ATOM      8  C   UNL     1       2.133   7.550  18.825  0.00  0.00    +0.000 C 
ATOM      9  N   UNL     1       1.486   8.226  19.835  0.00  0.00    +0.000 N 
ATOM     10  H   UNL     1       1.350   7.788  20.734  0.00  0.00    +0.000 HD
BRANCH   9  11
ATOM     11  C   UNL     1       1.201   9.638  19.735  0.00  0.00    +0.000 C 
BRANCH  11  12
ATOM     12  C   UNL     1       0.413  10.120  20.922  0.00  0.00    +0.000 A 
ATOM     13  C   UNL     1      -0.215  11.373  20.908  0.00  0.00    +0.000 A 
ATOM     14  C   UNL     1      -0.973  11.795  22.001  0.00  0.00    +0.000 A 
ATOM     15  C   UNL     1      -1.107  10.972  23.119  0.00  0.00    +0.000 A 
ATOM     16  C   UNL     1      -0.467   9.734  23.153  0.00  0.00    +0.000 A 
ATOM     17  C   UNL     1       0.299   9.315  22.065  0.00  0.00    +0.000 A 
ENDBRANCH  11  12
ENDBRANCH   9  11
ENDBRANCH   1   8
BRANCH   5  18
ATOM     18  O   UNL     1       4.177   3.196  17.621  0.00  0.00    +0.000 OA
BRANCH  18  19
ATOM     19  C   UNL     1       5.124   3.810  16.810  0.00  0.00    +0.000 A 
ATOM     20  C   UNL     1       6.052   4.599  17.651  0.00  0.00    +0.000 A 
ATOM     21  C   UNL     1       7.053   5.224  17.017  0.00  0.00    +0.000 A 
ATOM     22  C   UNL     1       7.157   5.111  15.612  0.00  0.00    +0.000 A 
ATOM     23  N   UNL     1       8.012   5.598  14.742  0.00  0.00    +0.000 NA
ATOM     24  N   UNL     1       7.643   5.143  13.496  0.00  0.00    +0.000 NA
ATOM     25  C   UNL     1       6.568   4.386  13.635  0.00  0.00    +0.000 A 
ATOM     26  N   UNL     1       6.212   4.345  14.956  0.00  0.00    +0.000 N 
ATOM     27  N   UNL     1       5.167   3.677  15.519  0.00  0.00    +0.000 NA
BRANCH  25  28
ATOM     28  C   UNL     1       5.811   3.649  12.614  0.00  0.00    +0.000 C 
ATOM     29  F   UNL     1       4.467   3.821  12.739  0.00  0.00    +0.000 F 
ATOM     30  F   UNL     1       6.127   4.045  11.351  0.00  0.00    +0.000 F 
ATOM     31  F   UNL     1       6.027   2.308  12.673  0.00  0.00    +0.000 F 
ENDBRANCH  25  28
ENDBRANCH  18  19
ENDBRANCH   5  18
TORSDOF 6
ENDMDL
MODEL 5
REMARK VINA RESULT:      -8.5      4.500      9.728
REMARK  Name = 
REMARK  6 active torsions:
REMARK  status: ('A' for Active; 'I' for Inactive)
REMARK    1  A    between atoms: C_2  and  C_11
REMARK    2  A    between atoms: N_3  and  C_4
REMARK    3  A    between atoms: C_4  and  C_5
REMARK    4  A    between atoms: C_15  and  O_16
REMARK    5  A    between atoms: O_16  and  C_17
REMARK    6  A    between atoms: C_23  and  C_24
REMARK                            x       y       z     vdW  Elec       q    Type
REMARK                         _______ _______ _______ _____ _____    ______ ____
ROOT
ATOM      1  C   UNL     1       1.319   8.922  20.449  0.00  0.00    +0.000 A 
ATOM      2  C   UNL     1       1.189   9.634  19.246  0.00  0.00    +0.000 A 
ATOM      3  C   UNL     1       1.587   9.062  18.041  0.00  0.00    +0.000 A 
ATOM      4  C   UNL     1       2.118   7.775  18.029  0.00  0.00    +0.000 A 
ATOM      5  C   UNL     1       2.278   7.077  19.229  0.00  0.00    +0.000 A 
ATOM      6  C   UNL     1       1.848   7.621  20.441  0.00  0.00    +0.000 A 
ENDROOT
BRANCH   1   8
ATOM      7  O   UNL     1       1.590   9.578  22.693  0.00  0.00    +0.000 OA
ATOM      8  C   UNL     1       0.882   9.613  21.694  0.00  0.00    +0.000 C 
ATOM      9  N   UNL     1      -0.357  10.211  21.655  0.00  0.00    +0.000 N 
ATOM     10  H   UNL     1      -0.945  10.110  20.841  0.00  0.00    +0.000 HD
BRANCH   9  11
ATOM     11  C   UNL     1      -0.955  10.784  22.838  0.00  0.00    +0.000 C 
BRANCH  11  12
ATOM     12  C   UNL     1      -1.991  11.814  22.481  0.00  0.00    +0.000 A 
ATOM     13  C   UNL     1      -2.019  12.394  21.205  0.00  0.00    +0.000 A 
ATOM     14  C   UNL     1      -3.008  13.322  20.873  0.00  0.00    +0.000 A 
ATOM     15  C   UNL     1      -3.974  13.681  21.814  0.00  0.00    +0.000 A 
ATOM     16  C   UNL     1      -3.941  13.127  23.092  0.00  0.00    +0.000 A 
ATOM     17  C   UNL     1      -2.948  12.207  23.429  0.00  0.00    +0.000 A 
ENDBRANCH  11  12
ENDBRANCH   9  11
ENDBRANCH   1   8
BRANCH   5  18
ATOM     18  O   UNL     1       2.809   5.768  19.226  0.00  0.00    +0.000 OA
BRANCH  18  19
ATOM     19  C   UNL     1       3.838   5.485  18.336  0.00  0.00    +0.000 A 
ATOM     20  C   UNL     1       3.462   4.317  17.508  0.00  0.00    +0.000 A 
ATOM     21  C   UNL     1       4.339   3.941  16.567  0.00  0.00    +0.000 A 
ATOM     22  C   UNL     1       5.552   4.653  16.430  0.00  0.00    +0.000 A 
ATOM     23  N   UNL     1       6.575   4.518  15.617  0.00  0.00    +0.000 NA
ATOM     24  N   UNL     1       7.480   5.512  15.918  0.00  0.00    +0.000 NA
ATOM     25  C   UNL     1       6.985   6.232  16.911  0.00  0.00    +0.000 A 
ATOM     26  N   UNL     1       5.772   5.720  17.281  0.00  0.00    +0.000 N 
ATOM     27  N   UNL     1       4.938   6.170  18.260  0.00  0.00    +0.000 NA
BRANCH  25  28
ATOM     28  C   UNL     1       7.551   7.416  17.572  0.00  0.00    +0.000 C 
ATOM     29  F   UNL     1       6.620   8.382  17.794  0.00  0.00    +0.000 F 
ATOM     30  F   UNL     1       8.087   7.122  18.788  0.00  0.00    +0.000 F 
ATOM     31  F   UNL     1       8.535   8.001  16.839  0.00  0.00    +0.000 F 
ENDBRANCH  25  28
ENDBRANCH  18  19
ENDBRANCH   5  18
TORSDOF 6
ENDMDL
MODEL 6
REMARK VINA RESULT:      -8.4      0.978      1.285
REMARK  Name = 
REMARK  6 active torsions:
REMARK  status: ('A' for Active; 'I' for Inactive)
REMARK    1  A    between atoms: C_2  and  C_11
REMARK    2  A    between atoms: N_3  and  C_4
REMARK    3  A    between atoms: C_4  and  C_5
REMARK    4  A    between atoms: C_15  and  O_16
REMARK    5  A    between atoms: O_16  and  C_17
REMARK    6  A    between atoms: C_23  and  C_24
REMARK                            x       y       z     vdW  Elec       q    Type
REMARK                         _______ _______ _______ _____ _____    ______ ____
ROOT
ATOM      1  C   UNL     1       1.403   8.905  19.567  0.00  0.00    +0.000 A 
ATOM      2  C   UNL     1       1.325   8.252  20.808  0.00  0.00    +0.000 A 
ATOM      3  C   UNL     1       0.624   8.824  21.865  0.00  0.00    +0.000 A 
ATOM      4  C   UNL     1      -0.004  10.055  21.691  0.00  0.00    +0.000 A 
ATOM      5  C   UNL     1       0.098  10.723  20.468  0.00  0.00    +0.000 A 
ATOM      6  C   UNL     1       0.765  10.143  19.386  0.00  0.00    +0.000 A 
ENDROOT
BRANCH   1   8
ATOM      7  O   UNL     1       2.337   8.780  17.412  0.00  0.00    +0.000 OA
ATOM      8  C   UNL     1       2.184   8.230  18.495  0.00  0.00    +0.000 C 
ATOM      9  N   UNL     1       2.643   6.964  18.782  0.00  0.00    +0.000 N 
ATOM     10  H   UNL     1       2.389   6.516  19.649  0.00  0.00    +0.000 HD
BRANCH   9  11
ATOM     11  C   UNL     1       3.285   6.150  17.777  0.00  0.00    +0.000 C 
BRANCH  11  12
ATOM     12  C   UNL     1       3.246   4.693  18.149  0.00  0.00    +0.000 A 
ATOM     13  C   UNL     1       4.095   4.181  19.140  0.00  0.00    +0.000 A 
ATOM     14  C   UNL     1       4.024   2.834  19.502  0.00  0.00    +0.000 A 
ATOM     15  C   UNL     1       3.109   1.989  18.876  0.00  0.00    +0.000 A 
ATOM     16  C   UNL     1       2.277   2.483  17.873  0.00  0.00    +0.000 A 
ATOM     17  C   UNL     1       2.353   3.826  17.502  0.00  0.00    +0.000 A 
ENDBRANCH  11  12
ENDBRANCH   9  11
ENDBRANCH   1   8
BRANCH   5  18
ATOM     18  O   UNL     1      -0.542  11.968  20.280  0.00  0.00    +0.000 OA
BRANCH  18  19
ATOM     19  C   UNL     1      -1.835  11.964  19.771  0.00  0.00    +0.000 A 
ATOM     20  C   UNL     1      -2.742  12.632  20.731  0.00  0.00    +0.000 A 
ATOM     21  C   UNL     1      -4.027  12.745  20.366  0.00  0.00    +0.000 A 
ATOM     22  C   UNL     1      -4.438  12.220  19.120  0.00  0.00    +0.000 A 
ATOM     23  N   UNL     1      -5.600  12.186  18.510  0.00  0.00    +0.000 NA
ATOM     24  N   UNL     1      -5.415  11.564  17.295  0.00  0.00    +0.000 NA
ATOM     25  C   UNL     1      -4.139  11.232  17.192  0.00  0.00    +0.000 A 
ATOM     26  N   UNL     1      -3.479  11.614  18.328  0.00  0.00    +0.000 N 
ATOM     27  N   UNL     1      -2.158  11.457  18.620  0.00  0.00    +0.000 NA
BRANCH  25  28
ATOM     28  C   UNL     1      -3.435  10.578  16.081  0.00  0.00    +0.000 C 
ATOM     29  F   UNL     1      -4.261  10.295  15.037  0.00  0.00    +0.000 F 
ATOM     30  F   UNL     1      -2.437  11.351  15.575  0.00  0.00    +0.000 F 
ATOM     31  F   UNL     1      -2.872   9.396  16.446  0.00  0.00    +0.000 F 
ENDBRANCH  25  28
ENDBRANCH  18  19
ENDBRANCH   5  18
TORSDOF 6
ENDMDL
MODEL 7
REMARK VINA RESULT:      -8.4      5.013      9.783
REMARK  Name = 
REMARK  6 active torsions:
REMARK  status: ('A' for Active; 'I' for Inactive)
REMARK    1  A    between atoms: C_2  and  C_11
REMARK    2  A    between atoms: N_3  and  C_4
REMARK    3  A    between atoms: C_4  and  C_5
REMARK    4  A    between atoms: C_15  and  O_16
REMARK    5  A    between atoms: O_16  and  C_17
REMARK    6  A    between atoms: C_23  and  C_24
REMARK                            x       y       z     vdW  Elec       q    Type
REMARK                         _______ _______ _______ _____ _____    ______ ____
ROOT
ATOM      1  C   UNL     1       2.243   6.356  19.284  0.00  0.00    +0.000 A 
ATOM      2  C   UNL     1       1.900   5.842  20.544  0.00  0.00    +0.000 A 
ATOM      3  C   UNL     1       2.225   4.531  20.884  0.00  0.00    +0.000 A 
ATOM      4  C   UNL     1       2.895   3.726  19.967  0.00  0.00    +0.000 A 
ATOM      5  C   UNL     1       3.209   4.225  18.700  0.00  0.00    +0.000 A 
ATOM      6  C   UNL     1       2.925   5.549  18.358  0.00  0.00    +0.000 A 
ENDROOT
BRANCH   1   8
ATOM      7  O   UNL     1       2.001   8.224  17.873  0.00  0.00    +0.000 OA
ATOM      8  C   UNL     1       1.846   7.762  18.996  0.00  0.00    +0.000 C 
ATOM      9  N   UNL     1       1.374   8.491  20.064  0.00  0.00    +0.000 N 
ATOM     10  H   UNL     1       1.375   8.094  20.992  0.00  0.00    +0.000 HD
BRANCH   9  11
ATOM     11  C   UNL     1       1.094   9.903  19.948  0.00  0.00    +0.000 C 
BRANCH  11  12
ATOM     12  C   UNL     1       0.164  10.366  21.036  0.00  0.00    +0.000 A 
ATOM     13  C   UNL     1       0.092   9.685  22.259  0.00  0.00    +0.000 A 
ATOM     14  C   UNL     1      -0.749  10.145  23.274  0.00  0.00    +0.000 A 
ATOM     15  C   UNL     1      -1.527  11.286  23.075  0.00  0.00    +0.000 A 
ATOM     16  C   UNL     1      -1.479  11.956  21.855  0.00  0.00    +0.000 A 
ATOM     17  C   UNL     1      -0.648  11.492  20.835  0.00  0.00    +0.000 A 
ENDBRANCH  11  12
ENDBRANCH   9  11
ENDBRANCH   1   8
BRANCH   5  18
ATOM     18  O   UNL     1       3.896   3.417  17.766  0.00  0.00    +0.000 OA
BRANCH  18  19
ATOM     19  C   UNL     1       4.912   4.004  17.022  0.00  0.00    +0.000 A 
ATOM     20  C   UNL     1       5.778   4.802  17.919  0.00  0.00    +0.000 A 
ATOM     21  C   UNL     1       6.835   5.403  17.356  0.00  0.00    +0.000 A 
ATOM     22  C   UNL     1       7.051   5.257  15.967  0.00  0.00    +0.000 A 
ATOM     23  N   UNL     1       7.980   5.716  15.160  0.00  0.00    +0.000 NA
ATOM     24  N   UNL     1       7.709   5.237  13.897  0.00  0.00    +0.000 NA
ATOM     25  C   UNL     1       6.617   4.494  13.965  0.00  0.00    +0.000 A 
ATOM     26  N   UNL     1       6.154   4.486  15.252  0.00  0.00    +0.000 N 
ATOM     27  N   UNL     1       5.059   3.841  15.743  0.00  0.00    +0.000 NA
BRANCH  25  28
ATOM     28  C   UNL     1       5.937   3.741  12.902  0.00  0.00    +0.000 C 
ATOM     29  F   UNL     1       6.066   2.396  13.053  0.00  0.00    +0.000 F 
ATOM     30  F   UNL     1       4.600   3.991  12.866  0.00  0.00    +0.000 F 
ATOM     31  F   UNL     1       6.425   4.031  11.666  0.00  0.00    +0.000 F 
ENDBRANCH  25  28
ENDBRANCH  18  19
ENDBRANCH   5  18
TORSDOF 6
ENDMDL
MODEL 8
REMARK VINA RESULT:      -8.4      3.646      5.409
REMARK  Name = 
REMARK  6 active torsions:
REMARK  status: ('A' for Active; 'I' for Inactive)
REMARK    1  A    between atoms: C_2  and  C_11
REMARK    2  A    between atoms: N_3  and  C_4
REMARK    3  A    between atoms: C_4  and  C_5
REMARK    4  A    between atoms: C_15  and  O_16
REMARK    5  A    between atoms: O_16  and  C_17
REMARK    6  A    between atoms: C_23  and  C_24
REMARK                            x       y       z     vdW  Elec       q    Type
REMARK                         _______ _______ _______ _____ _____    ______ ____
ROOT
ATOM      1  C   UNL     1      -1.998  10.548  17.696  0.00  0.00    +0.000 A 
ATOM      2  C   UNL     1      -2.031   9.907  16.447  0.00  0.00    +0.000 A 
ATOM      3  C   UNL     1      -3.127  10.060  15.603  0.00  0.00    +0.000 A 
ATOM      4  C   UNL     1      -4.200  10.853  16.002  0.00  0.00    +0.000 A 
ATOM      5  C   UNL     1      -4.185  11.466  17.258  0.00  0.00    +0.000 A 
ATOM      6  C   UNL     1      -3.075  11.355  18.099  0.00  0.00    +0.000 A 
ENDROOT
BRANCH   1   8
ATOM      7  O   UNL     1      -0.861  10.472  19.755  0.00  0.00    +0.000 OA
ATOM      8  C   UNL     1      -0.794  10.320  18.541  0.00  0.00    +0.000 C 
ATOM      9  N   UNL     1       0.368  10.006  17.873  0.00  0.00    +0.000 N 
ATOM     10  H   UNL     1       0.391  10.006  16.865  0.00  0.00    +0.000 HD
BRANCH   9  11
ATOM     11  C   UNL     1       1.632   9.905  18.565  0.00  0.00    +0.000 C 
BRANCH  11  12
ATOM     12  C   UNL     1       1.985   8.471  18.850  0.00  0.00    +0.000 A 
ATOM     13  C   UNL     1       1.698   7.894  20.095  0.00  0.00    +0.000 A 
ATOM     14  C   UNL     1       1.998   6.552  20.337  0.00  0.00    +0.000 A 
ATOM     15  C   UNL     1       2.589   5.777  19.339  0.00  0.00    +0.000 A 
ATOM     16  C   UNL     1       2.899   6.348  18.106  0.00  0.00    +0.000 A 
ATOM     17  C   UNL     1       2.610   7.692  17.866  0.00  0.00    +0.000 A 
ENDBRANCH  11  12
ENDBRANCH   9  11
ENDBRANCH   1   8
BRANCH   5  18
ATOM     18  O   UNL     1      -5.265  12.279  17.667  0.00  0.00    +0.000 OA
BRANCH  18  19
ATOM     19  C   UNL     1      -5.953  11.916  18.818  0.00  0.00    +0.000 A 
ATOM     20  C   UNL     1      -6.609  10.607  18.604  0.00  0.00    +0.000 A 
ATOM     21  C   UNL     1      -7.285  10.097  19.643  0.00  0.00    +0.000 A 
ATOM     22  C   UNL     1      -7.345  10.826  20.852  0.00  0.00    +0.000 A 
ATOM     23  N   UNL     1      -7.917  10.583  22.009  0.00  0.00    +0.000 NA
ATOM     24  N   UNL     1      -7.629  11.639  22.846  0.00  0.00    +0.000 NA
ATOM     25  C   UNL     1      -6.885  12.504  22.177  0.00  0.00    +0.000 A 
ATOM     26  N   UNL     1      -6.688  12.042  20.904  0.00  0.00    +0.000 N 
ATOM     27  N   UNL     1      -5.980  12.632  19.901  0.00  0.00    +0.000 NA
BRANCH  25  28
ATOM     28  C   UNL     1      -6.298  13.772  22.631  0.00  0.00    +0.000 C 
ATOM     29  F   UNL     1      -4.941  13.779  22.538  0.00  0.00    +0.000 F 
ATOM     30  F   UNL     1      -6.733  14.833  21.899  0.00  0.00    +0.000 F 
ATOM     31  F   UNL     1      -6.589  14.044  23.931  0.00  0.00    +0.000 F 
ENDBRANCH  25  28
ENDBRANCH  18  19
ENDBRANCH   5  18
TORSDOF 6
ENDMDL
MODEL 9
REMARK VINA RESULT:      -8.3      5.033      9.697
REMARK  Name = 
REMARK  6 active torsions:
REMARK  status: ('A' for Active; 'I' for Inactive)
REMARK    1  A    between atoms: C_2  and  C_11
REMARK    2  A    between atoms: N_3  and  C_4
REMARK    3  A    between atoms: C_4  and  C_5
REMARK    4  A    between atoms: C_15  and  O_16
REMARK    5  A    between atoms: O_16  and  C_17
REMARK    6  A    between atoms: C_23  and  C_24
REMARK                            x       y       z     vdW  Elec       q    Type
REMARK                         _______ _______ _______ _____ _____    ______ ____
ROOT
ATOM      1  C   UNL     1       2.380   6.567  19.166  0.00  0.00    +0.000 A 
ATOM      2  C   UNL     1       1.820   6.086  20.360  0.00  0.00    +0.000 A 
ATOM      3  C   UNL     1       1.994   4.757  20.737  0.00  0.00    +0.000 A 
ATOM      4  C   UNL     1       2.728   3.899  19.922  0.00  0.00    +0.000 A 
ATOM      5  C   UNL     1       3.259   4.366  18.717  0.00  0.00    +0.000 A 
ATOM      6  C   UNL     1       3.126   5.706  18.344  0.00  0.00    +0.000 A 
ENDROOT
BRANCH   1   8
ATOM      7  O   UNL     1       2.709   8.509  17.879  0.00  0.00    +0.000 OA
ATOM      8  C   UNL     1       2.134   7.996  18.831  0.00  0.00    +0.000 C 
ATOM      9  N   UNL     1       1.298   8.685  19.682  0.00  0.00    +0.000 N 
ATOM     10  H   UNL     1       0.943   8.242  20.516  0.00  0.00    +0.000 HD
BRANCH   9  11
ATOM     11  C   UNL     1       1.097  10.109  19.550  0.00  0.00    +0.000 C 
BRANCH  11  12
ATOM     12  C   UNL     1      -0.250  10.417  18.955  0.00  0.00    +0.000 A 
ATOM     13  C   UNL     1      -1.109  11.344  19.561  0.00  0.00    +0.000 A 
ATOM     14  C   UNL     1      -2.341  11.648  18.980  0.00  0.00    +0.000 A 
ATOM     15  C   UNL     1      -2.727  11.026  17.793  0.00  0.00    +0.000 A 
ATOM     16  C   UNL     1      -1.891  10.086  17.195  0.00  0.00    +0.000 A 
ATOM     17  C   UNL     1      -0.663   9.773  17.780  0.00  0.00    +0.000 A 
ENDBRANCH  11  12
ENDBRANCH   9  11
ENDBRANCH   1   8
BRANCH   5  18
ATOM     18  O   UNL     1       4.011   3.504  17.888  0.00  0.00    +0.000 OA
BRANCH  18  19
ATOM     19  C   UNL     1       5.007   4.067  17.099  0.00  0.00    +0.000 A 
ATOM     20  C   UNL     1       5.911   4.871  17.950  0.00  0.00    +0.000 A 
ATOM     21  C   UNL     1       6.954   5.451  17.340  0.00  0.00    +0.000 A 
ATOM     22  C   UNL     1       7.120   5.278  15.947  0.00  0.00    +0.000 A 
ATOM     23  N   UNL     1       8.024   5.713  15.099  0.00  0.00    +0.000 NA
ATOM     24  N   UNL     1       7.704   5.215  13.856  0.00  0.00    +0.000 NA
ATOM     25  C   UNL     1       6.608   4.485  13.975  0.00  0.00    +0.000 A 
ATOM     26  N   UNL     1       6.190   4.505  15.278  0.00  0.00    +0.000 N 
ATOM     27  N   UNL     1       5.106   3.881  15.818  0.00  0.00    +0.000 NA
BRANCH  25  28
ATOM     28  C   UNL     1       5.883   3.722  12.950  0.00  0.00    +0.000 C 
ATOM     29  F   UNL     1       5.971   2.378  13.143  0.00  0.00    +0.000 F 
ATOM     30  F   UNL     1       4.554   4.015  12.931  0.00  0.00    +0.000 F 
ATOM     31  F   UNL     1       6.356   3.954  11.697  0.00  0.00    +0.000 F 
ENDBRANCH  25  28
ENDBRANCH  18  19
ENDBRANCH   5  18
TORSDOF 6
ENDMDL
