MODEL 1
REMARK VINA RESULT:      -8.1      0.000      0.000
REMARK  Name = 
REMARK  5 active torsions:
REMARK  status: ('A' for Active; 'I' for Inactive)
REMARK    1  A    between atoms: C_1  and  C_2
REMARK    2  A    between atoms: C_8  and  C_9
REMARK    3  A    between atoms: C_9  and  C_10
REMARK    4  A    between atoms: C_13  and  C_14
REMARK    5  A    between atoms: C_17  and  C_18
REMARK                            x       y       z     vdW  Elec       q    Type
REMARK                         _______ _______ _______ _____ _____    ______ ____
ROOT
ATOM      1  C   UNL     1       2.540   7.291  18.197  0.00  0.00    +0.000 A 
ATOM      2  N   UNL     1       2.798   8.123  17.176  0.00  0.00    +0.000 NA
ATOM      3  O   UNL     1       2.249   9.341  17.616  0.00  0.00    +0.000 OA
ATOM      4  C   UNL     1       1.666   9.082  18.824  0.00  0.00    +0.000 A 
ATOM      5  N   UNL     1       1.778   7.834  19.196  0.00  0.00    +0.000 NA
ENDROOT
BRANCH   4   6
ATOM      6  C   UNL     1       1.159  10.222  19.629  0.00  0.00    +0.000 C 
ATOM      7  C   UNL     1       0.025   9.789  20.546  0.00  0.00    +0.000 C 
ATOM      8  C   UNL     1      -0.912  10.970  20.494  0.00  0.00    +0.000 C 
ATOM      9  C   UNL     1      -0.762  11.434  19.056  0.00  0.00    +0.000 C 
ATOM     10  O   UNL     1       0.614  11.211  18.722  0.00  0.00    +0.000 OA
BRANCH   9  11
ATOM     11  C   UNL     1      -1.760  10.746  18.087  0.00  0.00    +0.000 C 
ATOM     12  O   UNL     1      -1.410   9.834  17.335  0.00  0.00    +0.000 OA
ATOM     13  N   UNL     1      -3.080  11.143  18.166  0.00  0.00    +0.000 N 
ATOM     14  C   UNL     1      -3.625  12.242  18.937  0.00  0.00    +0.000 C 
ATOM     15  C   UNL     1      -5.066  11.820  19.166  0.00  0.00    +0.000 C 
ATOM     16  C   UNL     1      -5.432  11.089  17.879  0.00  0.00    +0.000 C 
ATOM     17  C   UNL     1      -4.116  10.493  17.383  0.00  0.00    +0.000 C 
ENDBRANCH   9  11
ENDBRANCH   4   6
BRANCH   1  18
ATOM     18  C   UNL     1       3.280   5.964  18.463  0.00  0.00    +0.000 C 
ATOM     19  C   UNL     1       4.146   5.578  17.249  0.00  0.00    +0.000 C 
ATOM     20  C   UNL     1       4.807   5.989  18.519  0.00  0.00    +0.000 C 
BRANCH  18  28
ATOM     21  C   UNL     1       1.206   4.140  17.141  0.00  0.00    +0.000 C 
ATOM     22  C   UNL     1       1.535   4.047  18.611  0.00  0.00    +0.000 A 
ATOM     23  C   UNL     1       0.833   3.092  19.376  0.00  0.00    +0.000 A 
ATOM     24  C   UNL     1       1.111   2.924  20.729  0.00  0.00    +0.000 A 
ATOM     25  C   UNL     1       2.096   3.699  21.316  0.00  0.00    +0.000 A 
ATOM     26  F   UNL     1       2.375   3.537  22.615  0.00  0.00    +0.000 F 
ATOM     27  C   UNL     1       2.799   4.647  20.579  0.00  0.00    +0.000 A 
ATOM     28  C   UNL     1       2.533   4.864  19.212  0.00  0.00    +0.000 A 
ENDBRANCH  18  28
ENDBRANCH   1  18
TORSDOF 4
ENDMDL
MODEL 2
REMARK VINA RESULT:      -8.1      2.760      4.435
REMARK  Name = 
REMARK  5 active torsions:
REMARK  status: ('A' for Active; 'I' for Inactive)
REMARK    1  A    between atoms: C_1  and  C_2
REMARK    2  A    between atoms: C_8  and  C_9
REMARK    3  A    between atoms: C_9  and  C_10
REMARK    4  A    between atoms: C_13  and  C_14
REMARK    5  A    between atoms: C_17  and  C_18
REMARK                            x       y       z     vdW  Elec       q    Type
REMARK                         _______ _______ _______ _____ _____    ______ ____
ROOT
ATOM      1  C   UNL     1       2.945   6.379  18.567  0.00  0.00    +0.000 A 
ATOM      2  N   UNL     1       2.383   6.620  19.761  0.00  0.00    +0.000 NA
ATOM      3  O   UNL     1       1.845   7.911  19.601  0.00  0.00    +0.000 OA
ATOM      4  C   UNL     1       2.205   8.321  18.348  0.00  0.00    +0.000 A 
ATOM      5  N   UNL     1       2.916   7.437  17.699  0.00  0.00    +0.000 NA
ENDROOT
BRANCH   4   6
ATOM      6  C   UNL     1       1.623   9.579  17.816  0.00  0.00    +0.000 C 
ATOM      7  C   UNL     1       2.396  10.794  18.307  0.00  0.00    +0.000 C 
ATOM      8  C   UNL     1       1.302  11.805  18.549  0.00  0.00    +0.000 C 
ATOM      9  C   UNL     1       0.166  10.933  19.054  0.00  0.00    +0.000 C 
ATOM     10  O   UNL     1       0.272   9.704  18.325  0.00  0.00    +0.000 OA
BRANCH   9  11
ATOM     11  C   UNL     1       0.179  10.748  20.595  0.00  0.00    +0.000 C 
ATOM     12  O   UNL     1       1.093  10.152  21.170  0.00  0.00    +0.000 OA
ATOM     13  N   UNL     1      -0.837  11.357  21.304  0.00  0.00    +0.000 N 
ATOM     14  C   UNL     1      -2.010  12.020  20.770  0.00  0.00    +0.000 C 
ATOM     15  C   UNL     1      -2.380  13.002  21.868  0.00  0.00    +0.000 C 
ATOM     16  C   UNL     1      -2.024  12.255  23.149  0.00  0.00    +0.000 C 
ATOM     17  C   UNL     1      -0.866  11.340  22.755  0.00  0.00    +0.000 C 
ENDBRANCH   9  11
ENDBRANCH   4   6
BRANCH   1  18
ATOM     18  C   UNL     1       3.291   4.979  18.022  0.00  0.00    +0.000 C 
ATOM     19  C   UNL     1       2.849   3.889  19.016  0.00  0.00    +0.000 C 
ATOM     20  C   UNL     1       2.141   4.020  17.713  0.00  0.00    +0.000 C 
BRANCH  18  28
ATOM     21  C   UNL     1       6.024   5.338  19.356  0.00  0.00    +0.000 C 
ATOM     22  C   UNL     1       5.884   5.017  17.888  0.00  0.00    +0.000 A 
ATOM     23  C   UNL     1       7.069   4.904  17.130  0.00  0.00    +0.000 A 
ATOM     24  C   UNL     1       7.018   4.573  15.780  0.00  0.00    +0.000 A 
ATOM     25  C   UNL     1       5.789   4.343  15.188  0.00  0.00    +0.000 A 
ATOM     26  F   UNL     1       5.733   4.015  13.891  0.00  0.00    +0.000 F 
ATOM     27  C   UNL     1       4.609   4.449  15.917  0.00  0.00    +0.000 A 
ATOM     28  C   UNL     1       4.614   4.804  17.282  0.00  0.00    +0.000 A 
ENDBRANCH  18  28
ENDBRANCH   1  18
TORSDOF 4
ENDMDL
MODEL 3
REMARK VINA RESULT:      -8.0      3.123      8.510
REMARK  Name = 
REMARK  5 active torsions:
REMARK  status: ('A' for Active; 'I' for Inactive)
REMARK    1  A    between atoms: C_1  and  C_2
REMARK    2  A    between atoms: C_8  and  C_9
REMARK    3  A    between atoms: C_9  and  C_10
REMARK    4  A    between atoms: C_13  and  C_14
REMARK    5  A    between atoms: C_17  and  C_18
REMARK                            x       y       z     vdW  Elec       q    Type
REMARK                         _______ _______ _______ _____ _____    ______ ____
ROOT
ATOM      1  C   UNL     1       1.612   8.179  19.999  0.00  0.00    +0.000 A 
ATOM      2  N   UNL     1       2.191   8.272  18.792  0.00  0.00    +0.000 NA
ATOM      3  O   UNL     1       2.487   6.931  18.482  0.00  0.00    +0.000 OA
ATOM      4  C   UNL     1       2.110   6.196  19.570  0.00  0.00    +0.000 A 
ATOM      5  N   UNL     1       1.614   6.921  20.538  0.00  0.00    +0.000 NA
ENDROOT
BRANCH   4   6
ATOM      6  C   UNL     1       2.127   4.715  19.468  0.00  0.00    +0.000 C 
ATOM      7  C   UNL     1       2.964   4.096  20.578  0.00  0.00    +0.000 C 
ATOM      8  C   UNL     1       3.649   2.950  19.875  0.00  0.00    +0.000 C 
ATOM      9  C   UNL     1       3.891   3.524  18.490  0.00  0.00    +0.000 C 
ATOM     10  O   UNL     1       2.756   4.353  18.213  0.00  0.00    +0.000 OA
BRANCH   9  11
ATOM     11  C   UNL     1       5.250   4.263  18.365  0.00  0.00    +0.000 C 
ATOM     12  O   UNL     1       5.902   4.595  19.358  0.00  0.00    +0.000 OA
ATOM     13  N   UNL     1       5.740   4.457  17.089  0.00  0.00    +0.000 N 
ATOM     14  C   UNL     1       5.062   4.194  15.835  0.00  0.00    +0.000 C 
ATOM     15  C   UNL     1       6.208   3.960  14.867  0.00  0.00    +0.000 C 
ATOM     16  C   UNL     1       7.288   4.920  15.355  0.00  0.00    +0.000 C 
ATOM     17  C   UNL     1       7.049   5.040  16.859  0.00  0.00    +0.000 C 
ENDBRANCH   9  11
ENDBRANCH   4   6
BRANCH   1  18
ATOM     18  C   UNL     1       0.703   9.255  20.627  0.00  0.00    +0.000 C 
ATOM     19  C   UNL     1      -0.109   8.660  21.793  0.00  0.00    +0.000 C 
ATOM     20  C   UNL     1       0.959   9.657  22.080  0.00  0.00    +0.000 C 
BRANCH  18  28
ATOM     21  C   UNL     1       1.544  12.192  20.415  0.00  0.00    +0.000 C 
ATOM     22  C   UNL     1       0.384  11.631  19.630  0.00  0.00    +0.000 A 
ATOM     23  C   UNL     1      -0.328  12.519  18.795  0.00  0.00    +0.000 A 
ATOM     24  C   UNL     1      -1.385  12.064  18.014  0.00  0.00    +0.000 A 
ATOM     25  C   UNL     1      -1.725  10.723  18.055  0.00  0.00    +0.000 A 
ATOM     26  F   UNL     1      -2.736  10.276  17.298  0.00  0.00    +0.000 F 
ATOM     27  C   UNL     1      -1.037   9.832  18.871  0.00  0.00    +0.000 A 
ATOM     28  C   UNL     1       0.026  10.255  19.695  0.00  0.00    +0.000 A 
ENDBRANCH  18  28
ENDBRANCH   1  18
TORSDOF 4
ENDMDL
MODEL 4
REMARK VINA RESULT:      -8.0      3.306      8.484
REMARK  Name = 
REMARK  5 active torsions:
REMARK  status: ('A' for Active; 'I' for Inactive)
REMARK    1  A    between atoms: C_1  and  C_2
REMARK    2  A    between atoms: C_8  and  C_9
REMARK    3  A    between atoms: C_9  and  C_10
REMARK    4  A    between atoms: C_13  and  C_14
REMARK    5  A    between atoms: C_17  and  C_18
REMARK                            x       y       z     vdW  Elec       q    Type
REMARK                         _______ _______ _______ _____ _____    ______ ____
ROOT
ATOM      1  C   UNL     1       1.647   8.226  20.168  0.00  0.00    +0.000 A 
ATOM      2  N   UNL     1       2.083   8.323  18.903  0.00  0.00    +0.000 NA
ATOM      3  O   UNL     1       2.300   6.980  18.542  0.00  0.00    +0.000 OA
ATOM      4  C   UNL     1       2.031   6.237  19.657  0.00  0.00    +0.000 A 
ATOM      5  N   UNL     1       1.674   6.960  20.686  0.00  0.00    +0.000 NA
ENDROOT
BRANCH   4   6
ATOM      6  C   UNL     1       1.992   4.758  19.535  0.00  0.00    +0.000 C 
ATOM      7  C   UNL     1       2.791   4.092  20.645  0.00  0.00    +0.000 C 
ATOM      8  C   UNL     1       3.440   2.931  19.934  0.00  0.00    +0.000 C 
ATOM      9  C   UNL     1       3.720   3.513  18.560  0.00  0.00    +0.000 C 
ATOM     10  O   UNL     1       2.621   4.390  18.283  0.00  0.00    +0.000 OA
BRANCH   9  11
ATOM     11  C   UNL     1       5.108   4.201  18.461  0.00  0.00    +0.000 C 
ATOM     12  O   UNL     1       5.763   4.490  19.466  0.00  0.00    +0.000 OA
ATOM     13  N   UNL     1       5.617   4.397  17.193  0.00  0.00    +0.000 N 
ATOM     14  C   UNL     1       4.942   4.183  15.929  0.00  0.00    +0.000 C 
ATOM     15  C   UNL     1       6.088   3.922  14.967  0.00  0.00    +0.000 C 
ATOM     16  C   UNL     1       7.199   4.830  15.482  0.00  0.00    +0.000 C 
ATOM     17  C   UNL     1       6.950   4.933  16.985  0.00  0.00    +0.000 C 
ENDBRANCH   9  11
ENDBRANCH   4   6
BRANCH   1  18
ATOM     18  C   UNL     1       0.850   9.317  20.912  0.00  0.00    +0.000 C 
ATOM     19  C   UNL     1      -0.359   8.699  21.640  0.00  0.00    +0.000 C 
ATOM     20  C   UNL     1       0.775   9.241  22.438  0.00  0.00    +0.000 C 
BRANCH  18  28
ATOM     21  C   UNL     1      -1.201   9.850  18.703  0.00  0.00    +0.000 C 
ATOM     22  C   UNL     1      -0.237  10.910  19.174  0.00  0.00    +0.000 A 
ATOM     23  C   UNL     1      -0.295  12.171  18.543  0.00  0.00    +0.000 A 
ATOM     24  C   UNL     1       0.538  13.208  18.951  0.00  0.00    +0.000 A 
ATOM     25  C   UNL     1       1.419  12.992  19.996  0.00  0.00    +0.000 A 
ATOM     26  F   UNL     1       2.218  13.988  20.401  0.00  0.00    +0.000 F 
ATOM     27  C   UNL     1       1.493  11.757  20.631  0.00  0.00    +0.000 A 
ATOM     28  C   UNL     1       0.683  10.673  20.234  0.00  0.00    +0.000 A 
ENDBRANCH  18  28
ENDBRANCH   1  18
TORSDOF 4
ENDMDL
MODEL 5
REMARK VINA RESULT:      -8.0      2.201      3.256
REMARK  Name = 
REMARK  5 active torsions:
REMARK  status: ('A' for Active; 'I' for Inactive)
REMARK    1  A    between atoms: C_1  and  C_2
REMARK    2  A    between atoms: C_8  and  C_9
REMARK    3  A    between atoms: C_9  and  C_10
REMARK    4  A    between atoms: C_13  and  C_14
REMARK    5  A    between atoms: C_17  and  C_18
REMARK                            x       y       z     vdW  Elec       q    Type
REMARK                         _______ _______ _______ _____ _____    ______ ____
ROOT
ATOM      1  C   UNL     1       1.839   6.632  20.004  0.00  0.00    +0.000 A 
ATOM      2  N   UNL     1       2.158   7.637  19.174  0.00  0.00    +0.000 NA
ATOM      3  O   UNL     1       1.838   8.781  19.929  0.00  0.00    +0.000 OA
ATOM      4  C   UNL     1       1.301   8.327  21.100  0.00  0.00    +0.000 A 
ATOM      5  N   UNL     1       1.239   7.023  21.170  0.00  0.00    +0.000 NA
ENDROOT
BRANCH   4   6
ATOM      6  C   UNL     1       1.035   9.304  22.187  0.00  0.00    +0.000 C 
ATOM      7  C   UNL     1      -0.370   9.136  22.747  0.00  0.00    +0.000 C 
ATOM      8  C   UNL     1      -0.797  10.561  22.999  0.00  0.00    +0.000 C 
ATOM      9  C   UNL     1      -0.142  11.300  21.846  0.00  0.00    +0.000 C 
ATOM     10  O   UNL     1       1.109  10.638  21.626  0.00  0.00    +0.000 OA
BRANCH   9  11
ATOM     11  C   UNL     1      -1.040  11.376  20.583  0.00  0.00    +0.000 C 
ATOM     12  O   UNL     1      -0.787  10.725  19.566  0.00  0.00    +0.000 OA
ATOM     13  N   UNL     1      -2.186  12.140  20.677  0.00  0.00    +0.000 N 
ATOM     14  C   UNL     1      -2.576  13.014  21.766  0.00  0.00    +0.000 C 
ATOM     15  C   UNL     1      -4.090  13.050  21.653  0.00  0.00    +0.000 C 
ATOM     16  C   UNL     1      -4.336  12.987  20.149  0.00  0.00    +0.000 C 
ATOM     17  C   UNL     1      -3.152  12.197  19.595  0.00  0.00    +0.000 C 
ENDBRANCH   9  11
ENDBRANCH   4   6
BRANCH   1  18
ATOM     18  C   UNL     1       2.375   5.190  19.891  0.00  0.00    +0.000 C 
ATOM     19  C   UNL     1       2.302   4.480  21.256  0.00  0.00    +0.000 C 
ATOM     20  C   UNL     1       1.404   4.038  20.153  0.00  0.00    +0.000 C 
BRANCH  18  28
ATOM     21  C   UNL     1       2.206   3.785  17.176  0.00  0.00    +0.000 C 
ATOM     22  C   UNL     1       3.518   4.248  17.759  0.00  0.00    +0.000 A 
ATOM     23  C   UNL     1       4.688   3.993  17.013  0.00  0.00    +0.000 A 
ATOM     24  C   UNL     1       5.929   4.424  17.470  0.00  0.00    +0.000 A 
ATOM     25  C   UNL     1       6.002   5.120  18.664  0.00  0.00    +0.000 A 
ATOM     26  F   UNL     1       7.192   5.546  19.107  0.00  0.00    +0.000 F 
ATOM     27  C   UNL     1       4.861   5.381  19.415  0.00  0.00    +0.000 A 
ATOM     28  C   UNL     1       3.587   4.943  18.999  0.00  0.00    +0.000 A 
ENDBRANCH  18  28
ENDBRANCH   1  18
TORSDOF 4
ENDMDL
MODEL 6
REMARK VINA RESULT:      -7.9      2.696      4.107
REMARK  Name = 
REMARK  5 active torsions:
REMARK  status: ('A' for Active; 'I' for Inactive)
REMARK    1  A    between atoms: C_1  and  C_2
REMARK    2  A    between atoms: C_8  and  C_9
REMARK    3  A    between atoms: C_9  and  C_10
REMARK    4  A    between atoms: C_13  and  C_14
REMARK    5  A    between atoms: C_17  and  C_18
REMARK                            x       y       z     vdW  Elec       q    Type
REMARK                         _______ _______ _______ _____ _____    ______ ____
ROOT
ATOM      1  C   UNL     1       2.580   6.549  18.758  0.00  0.00    +0.000 A 
ATOM      2  N   UNL     1       2.343   7.677  18.072  0.00  0.00    +0.000 NA
ATOM      3  O   UNL     1       1.823   8.540  19.055  0.00  0.00    +0.000 OA
ATOM      4  C   UNL     1       1.747   7.807  20.205  0.00  0.00    +0.000 A 
ATOM      5  N   UNL     1       2.154   6.573  20.059  0.00  0.00    +0.000 NA
ENDROOT
BRANCH   4   6
ATOM      6  C   UNL     1       1.407   8.502  21.472  0.00  0.00    +0.000 C 
ATOM      7  C   UNL     1      -0.072   8.359  21.800  0.00  0.00    +0.000 C 
ATOM      8  C   UNL     1      -0.417   9.713  22.368  0.00  0.00    +0.000 C 
ATOM      9  C   UNL     1       0.451  10.640  21.536  0.00  0.00    +0.000 C 
ATOM     10  O   UNL     1       1.665   9.917  21.295  0.00  0.00    +0.000 OA
BRANCH   9  11
ATOM     11  C   UNL     1      -0.250  11.132  20.242  0.00  0.00    +0.000 C 
ATOM     12  O   UNL     1      -1.129  10.468  19.687  0.00  0.00    +0.000 OA
ATOM     13  N   UNL     1       0.095  12.389  19.785  0.00  0.00    +0.000 N 
ATOM     14  C   UNL     1       1.153  13.246  20.280  0.00  0.00    +0.000 C 
ATOM     15  C   UNL     1       0.671  14.637  19.906  0.00  0.00    +0.000 C 
ATOM     16  C   UNL     1      -0.041  14.422  18.575  0.00  0.00    +0.000 C 
ATOM     17  C   UNL     1      -0.574  12.993  18.647  0.00  0.00    +0.000 C 
ENDBRANCH   9  11
ENDBRANCH   4   6
BRANCH   1  18
ATOM     18  C   UNL     1       3.540   5.429  18.310  0.00  0.00    +0.000 C 
ATOM     19  C   UNL     1       3.111   4.079  18.917  0.00  0.00    +0.000 C 
ATOM     20  C   UNL     1       2.976   4.298  17.450  0.00  0.00    +0.000 C 
BRANCH  18  28
ATOM     21  C   UNL     1       4.847   6.631  15.817  0.00  0.00    +0.000 C 
ATOM     22  C   UNL     1       5.645   6.267  17.044  0.00  0.00    +0.000 A 
ATOM     23  C   UNL     1       7.039   6.482  17.002  0.00  0.00    +0.000 A 
ATOM     24  C   UNL     1       7.833   6.205  18.109  0.00  0.00    +0.000 A 
ATOM     25  C   UNL     1       7.238   5.726  19.263  0.00  0.00    +0.000 A 
ATOM     26  F   UNL     1       7.994   5.465  20.336  0.00  0.00    +0.000 F 
ATOM     27  C   UNL     1       5.865   5.506  19.325  0.00  0.00    +0.000 A 
ATOM     28  C   UNL     1       5.028   5.752  18.218  0.00  0.00    +0.000 A 
ENDBRANCH  18  28
ENDBRANCH   1  18
TORSDOF 4
ENDMDL
MODEL 7
REMARK VINA RESULT:      -7.9      2.504      2.959
REMARK  Name = 
REMARK  5 active torsions:
REMARK  status: ('A' for Active; 'I' for Inactive)
REMARK    1  A    between atoms: C_1  and  C_2
REMARK    2  A    between atoms: C_8  and  C_9
REMARK    3  A    between atoms: C_9  and  C_10
REMARK    4  A    between atoms: C_13  and  C_14
REMARK    5  A    between atoms: C_17  and  C_18
REMARK                            x       y       z     vdW  Elec       q    Type
REMARK                         _______ _______ _______ _____ _____    ______ ____
ROOT
ATOM      1  C   UNL     1       2.682   6.887  18.781  0.00  0.00    +0.000 A 
ATOM      2  N   UNL     1       2.402   8.030  18.136  0.00  0.00    +0.000 NA
ATOM      3  O   UNL     1       1.786   8.810  19.133  0.00  0.00    +0.000 OA
ATOM      4  C   UNL     1       1.709   8.018  20.244  0.00  0.00    +0.000 A 
ATOM      5  N   UNL     1       2.201   6.821  20.061  0.00  0.00    +0.000 NA
ENDROOT
BRANCH   4   6
ATOM      6  C   UNL     1       1.271   8.628  21.524  0.00  0.00    +0.000 C 
ATOM      7  C   UNL     1      -0.224   8.445  21.739  0.00  0.00    +0.000 C 
ATOM      8  C   UNL     1      -0.631   9.757  22.364  0.00  0.00    +0.000 C 
ATOM      9  C   UNL     1       0.276  10.745  21.654  0.00  0.00    +0.000 C 
ATOM     10  O   UNL     1       1.516  10.055  21.454  0.00  0.00    +0.000 OA
BRANCH   9  11
ATOM     11  C   UNL     1      -0.342  11.308  20.346  0.00  0.00    +0.000 C 
ATOM     12  O   UNL     1      -1.145  10.656  19.674  0.00  0.00    +0.000 OA
ATOM     13  N   UNL     1      -0.020  12.609  20.014  0.00  0.00    +0.000 N 
ATOM     14  C   UNL     1       0.957  13.466  20.655  0.00  0.00    +0.000 C 
ATOM     15  C   UNL     1       0.444  14.862  20.347  0.00  0.00    +0.000 C 
ATOM     16  C   UNL     1      -0.151  14.723  18.950  0.00  0.00    +0.000 C 
ATOM     17  C   UNL     1      -0.623  13.273  18.872  0.00  0.00    +0.000 C 
ENDBRANCH   9  11
ENDBRANCH   4   6
BRANCH   1  18
ATOM     18  C   UNL     1       3.732   5.853  18.326  0.00  0.00    +0.000 C 
ATOM     19  C   UNL     1       4.346   6.266  16.975  0.00  0.00    +0.000 C 
ATOM     20  C   UNL     1       5.186   6.307  18.204  0.00  0.00    +0.000 C 
BRANCH  18  28
ATOM     21  C   UNL     1       1.211   4.440  17.314  0.00  0.00    +0.000 C 
ATOM     22  C   UNL     1       2.247   3.730  18.150  0.00  0.00    +0.000 A 
ATOM     23  C   UNL     1       2.008   2.377  18.474  0.00  0.00    +0.000 A 
ATOM     24  C   UNL     1       2.937   1.649  19.210  0.00  0.00    +0.000 A 
ATOM     25  C   UNL     1       4.110   2.264  19.611  0.00  0.00    +0.000 A 
ATOM     26  F   UNL     1       5.013   1.567  20.312  0.00  0.00    +0.000 F 
ATOM     27  C   UNL     1       4.365   3.597  19.303  0.00  0.00    +0.000 A 
ATOM     28  C   UNL     1       3.440   4.376  18.579  0.00  0.00    +0.000 A 
ENDBRANCH  18  28
ENDBRANCH   1  18
TORSDOF 4
ENDMDL
MODEL 8
REMARK VINA RESULT:      -7.8      2.104      3.537
REMARK  Name = 
REMARK  5 active torsions:
REMARK  status: ('A' for Active; 'I' for Inactive)
REMARK    1  A    between atoms: C_1  and  C_2
REMARK    2  A    between atoms: C_8  and  C_9
REMARK    3  A    between atoms: C_9  and  C_10
REMARK    4  A    between atoms: C_13  and  C_14
REMARK    5  A    between atoms: C_17  and  C_18
REMARK                            x       y       z     vdW  Elec       q    Type
REMARK                         _______ _______ _______ _____ _____    ______ ____
ROOT
ATOM      1  C   UNL     1       2.528   6.779  18.643  0.00  0.00    +0.000 A 
ATOM      2  N   UNL     1       2.314   7.890  17.922  0.00  0.00    +0.000 NA
ATOM      3  O   UNL     1       1.841   8.803  18.883  0.00  0.00    +0.000 OA
ATOM      4  C   UNL     1       1.765   8.112  20.059  0.00  0.00    +0.000 A 
ATOM      5  N   UNL     1       2.130   6.862  19.950  0.00  0.00    +0.000 NA
ENDROOT
BRANCH   4   6
ATOM      6  C   UNL     1       1.472   8.861  21.307  0.00  0.00    +0.000 C 
ATOM      7  C   UNL     1       0.128   8.453  21.893  0.00  0.00    +0.000 C 
ATOM      8  C   UNL     1      -0.421   9.762  22.404  0.00  0.00    +0.000 C 
ATOM      9  C   UNL     1       0.085  10.748  21.366  0.00  0.00    +0.000 C 
ATOM     10  O   UNL     1       1.379  10.270  20.979  0.00  0.00    +0.000 OA
BRANCH   9  11
ATOM     11  C   UNL     1      -0.893  10.935  20.176  0.00  0.00    +0.000 C 
ATOM     12  O   UNL     1      -0.792  10.270  19.142  0.00  0.00    +0.000 OA
ATOM     13  N   UNL     1      -1.937  11.820  20.359  0.00  0.00    +0.000 N 
ATOM     14  C   UNL     1      -2.144  12.720  21.476  0.00  0.00    +0.000 C 
ATOM     15  C   UNL     1      -3.649  12.924  21.479  0.00  0.00    +0.000 C 
ATOM     16  C   UNL     1      -4.015  12.902  19.999  0.00  0.00    +0.000 C 
ATOM     17  C   UNL     1      -2.971  11.993  19.355  0.00  0.00    +0.000 C 
ENDBRANCH   9  11
ENDBRANCH   4   6
BRANCH   1  18
ATOM     18  C   UNL     1       3.444   5.614  18.217  0.00  0.00    +0.000 C 
ATOM     19  C   UNL     1       2.913   4.280  18.776  0.00  0.00    +0.000 C 
ATOM     20  C   UNL     1       2.858   4.531  17.309  0.00  0.00    +0.000 C 
BRANCH  18  28
ATOM     21  C   UNL     1       4.937   6.741  15.793  0.00  0.00    +0.000 C 
ATOM     22  C   UNL     1       5.652   6.333  17.057  0.00  0.00    +0.000 A 
ATOM     23  C   UNL     1       7.057   6.470  17.084  0.00  0.00    +0.000 A 
ATOM     24  C   UNL     1       7.779   6.149  18.228  0.00  0.00    +0.000 A 
ATOM     25  C   UNL     1       7.101   5.703  19.350  0.00  0.00    +0.000 A 
ATOM     26  F   UNL     1       7.789   5.401  20.458  0.00  0.00    +0.000 F 
ATOM     27  C   UNL     1       5.717   5.561  19.344  0.00  0.00    +0.000 A 
ATOM     28  C   UNL     1       4.950   5.854  18.198  0.00  0.00    +0.000 A 
ENDBRANCH  18  28
ENDBRANCH   1  18
TORSDOF 4
ENDMDL
MODEL 9
REMARK VINA RESULT:      -7.8      2.013      2.368
REMARK  Name = 
REMARK  5 active torsions:
REMARK  status: ('A' for Active; 'I' for Inactive)
REMARK    1  A    between atoms: C_1  and  C_2
REMARK    2  A    between atoms: C_8  and  C_9
REMARK    3  A    between atoms: C_9  and  C_10
REMARK    4  A    between atoms: C_13  and  C_14
REMARK    5  A    between atoms: C_17  and  C_18
REMARK                            x       y       z     vdW  Elec       q    Type
REMARK                         _______ _______ _______ _____ _____    ______ ____
ROOT
ATOM      1  C   UNL     1       2.648   7.016  18.810  0.00  0.00    +0.000 A 
ATOM      2  N   UNL     1       2.379   8.188  18.216  0.00  0.00    +0.000 NA
ATOM      3  O   UNL     1       1.792   8.938  19.252  0.00  0.00    +0.000 OA
ATOM      4  C   UNL     1       1.717   8.104  20.332  0.00  0.00    +0.000 A 
ATOM      5  N   UNL     1       2.185   6.907  20.094  0.00  0.00    +0.000 NA
ENDROOT
BRANCH   4   6
ATOM      6  C   UNL     1       1.309   8.670  21.642  0.00  0.00    +0.000 C 
ATOM      7  C   UNL     1      -0.124   8.289  21.985  0.00  0.00    +0.000 C 
ATOM      8  C   UNL     1      -0.652   9.544  22.636  0.00  0.00    +0.000 C 
ATOM      9  C   UNL     1       0.047  10.634  21.846  0.00  0.00    +0.000 C 
ATOM     10  O   UNL     1       1.349  10.116  21.544  0.00  0.00    +0.000 OA
BRANCH   9  11
ATOM     11  C   UNL     1      -0.750  11.086  20.593  0.00  0.00    +0.000 C 
ATOM     12  O   UNL     1      -0.495  10.649  19.469  0.00  0.00    +0.000 OA
ATOM     13  N   UNL     1      -1.817  11.936  20.807  0.00  0.00    +0.000 N 
ATOM     14  C   UNL     1      -2.190  12.589  22.046  0.00  0.00    +0.000 C 
ATOM     15  C   UNL     1      -3.681  12.821  21.877  0.00  0.00    +0.000 C 
ATOM     16  C   UNL     1      -3.830  13.116  20.388  0.00  0.00    +0.000 C 
ATOM     17  C   UNL     1      -2.697  12.338  19.724  0.00  0.00    +0.000 C 
ENDBRANCH   9  11
ENDBRANCH   4   6
BRANCH   1  18
ATOM     18  C   UNL     1       3.672   5.982  18.299  0.00  0.00    +0.000 C 
ATOM     19  C   UNL     1       4.225   6.406  16.926  0.00  0.00    +0.000 C 
ATOM     20  C   UNL     1       5.121   6.433  18.115  0.00  0.00    +0.000 C 
BRANCH  18  28
ATOM     21  C   UNL     1       1.150   4.562  17.300  0.00  0.00    +0.000 C 
ATOM     22  C   UNL     1       2.194   3.855  18.129  0.00  0.00    +0.000 A 
ATOM     23  C   UNL     1       1.961   2.501  18.453  0.00  0.00    +0.000 A 
ATOM     24  C   UNL     1       2.897   1.775  19.181  0.00  0.00    +0.000 A 
ATOM     25  C   UNL     1       4.070   2.393  19.577  0.00  0.00    +0.000 A 
ATOM     26  F   UNL     1       4.980   1.698  20.271  0.00  0.00    +0.000 F 
ATOM     27  C   UNL     1       4.319   3.727  19.269  0.00  0.00    +0.000 A 
ATOM     28  C   UNL     1       3.387   4.505  18.552  0.00  0.00    +0.000 A 
ENDBRANCH  18  28
ENDBRANCH   1  18
TORSDOF 4
ENDMDL
