MODEL 1
REMARK VINA RESULT:      -8.9      0.000      0.000
REMARK  Name = 
REMARK  4 active torsions:
REMARK  status: ('A' for Active; 'I' for Inactive)
REMARK    1  A    between atoms: C_1  and  C_2
REMARK    2  A    between atoms: C_4  and  O_5
REMARK    3  A    between atoms: C_8  and  N_9
REMARK    4  A    between atoms: C_10  and  C_12
REMARK                            x       y       z     vdW  Elec       q    Type
REMARK                         _______ _______ _______ _____ _____    ______ ____
ROOT
ATOM      1  N   UNL     1       2.099   7.994  19.299  0.00  0.00    +0.000 N 
ATOM      2  C   UNL     1       2.671   7.934  18.043  0.00  0.00    +0.000 C 
ATOM      3  O   UNL     1       2.375   8.603  17.064  0.00  0.00    +0.000 OA
ATOM      4  H   UNL     1       2.255   7.187  19.892  0.00  0.00    +0.000 HD
ENDROOT
BRANCH   2   5
ATOM      5  C   UNL     1       3.714   6.838  17.870  0.00  0.00    +0.000 A 
ATOM      6  N   UNL     1       4.957   7.223  17.773  0.00  0.00    +0.000 NA
ATOM      7  N   UNL     1       5.918   6.252  17.756  0.00  0.00    +0.000 N 
ATOM      8  C   UNL     1       5.708   4.903  17.942  0.00  0.00    +0.000 A 
ATOM      9  O   UNL     1       6.632   4.103  18.031  0.00  0.00    +0.000 OA
ATOM     10  C   UNL     1       4.304   4.465  18.007  0.00  0.00    +0.000 A 
ATOM     11  C   UNL     1       3.988   3.110  18.163  0.00  0.00    +0.000 A 
ATOM     12  C   UNL     1       2.653   2.705  18.193  0.00  0.00    +0.000 A 
ATOM     13  C   UNL     1       1.640   3.646  18.030  0.00  0.00    +0.000 A 
ATOM     14  C   UNL     1       1.958   4.997  17.869  0.00  0.00    +0.000 A 
ATOM     15  C   UNL     1       3.295   5.417  17.899  0.00  0.00    +0.000 A 
ATOM     16  H   UNL     1       6.884   6.564  17.744  0.00  0.00    +0.000 HD
ENDBRANCH   2   5
BRANCH   1  23
ATOM     17  C   UNL     1      -2.812  13.320  22.329  0.00  0.00    +0.000 C 
ATOM     18  C   UNL     1      -1.853  12.203  22.044  0.00  0.00    +0.000 A 
ATOM     19  C   UNL     1      -1.296  11.470  23.079  0.00  0.00    +0.000 A 
ATOM     20  C   UNL     1      -0.414  10.453  22.747  0.00  0.00    +0.000 A 
ATOM     21  C   UNL     1      -0.098  10.185  21.406  0.00  0.00    +0.000 A 
ATOM     22  C   UNL     1       0.811   9.179  21.026  0.00  0.00    +0.000 A 
ATOM     23  C   UNL     1       1.144   8.959  19.689  0.00  0.00    +0.000 A 
ATOM     24  C   UNL     1       0.509   9.723  18.714  0.00  0.00    +0.000 A 
ATOM     25  C   UNL     1      -0.403  10.722  19.092  0.00  0.00    +0.000 A 
ATOM     26  C   UNL     1      -0.713  10.977  20.425  0.00  0.00    +0.000 A 
ATOM     27  N   UNL     1      -1.576  11.963  20.736  0.00  0.00    +0.000 NA
BRANCH  20  28
ATOM     28  O   UNL     1       0.166   9.704  23.737  0.00  0.00    +0.000 OA
ATOM     29  H   UNL     1       0.888  10.208  24.145  0.00  0.00    +0.000 HD
ENDBRANCH  20  28
ENDBRANCH   1  23
TORSDOF 3
ENDMDL
MODEL 2
REMARK VINA RESULT:      -8.9      1.898      2.601
REMARK  Name = 
REMARK  4 active torsions:
REMARK  status: ('A' for Active; 'I' for Inactive)
REMARK    1  A    between atoms: C_1  and  C_2
REMARK    2  A    between atoms: C_4  and  O_5
REMARK    3  A    between atoms: C_8  and  N_9
REMARK    4  A    between atoms: C_10  and  C_12
REMARK                            x       y       z     vdW  Elec       q    Type
REMARK                         _______ _______ _______ _____ _____    ______ ____
ROOT
ATOM      1  N   UNL     1       1.816   8.626  17.889  0.00  0.00    +0.000 N 
ATOM      2  C   UNL     1       2.343   7.591  18.637  0.00  0.00    +0.000 C 
ATOM      3  O   UNL     1       2.180   7.386  19.831  0.00  0.00    +0.000 OA
ATOM      4  H   UNL     1       2.279   8.810  17.007  0.00  0.00    +0.000 HD
ENDROOT
BRANCH   2   5
ATOM      5  C   UNL     1       3.302   6.681  17.880  0.00  0.00    +0.000 A 
ATOM      6  N   UNL     1       4.388   7.234  17.415  0.00  0.00    +0.000 NA
ATOM      7  N   UNL     1       5.324   6.410  16.855  0.00  0.00    +0.000 N 
ATOM      8  C   UNL     1       5.279   5.034  16.832  0.00  0.00    +0.000 A 
ATOM      9  O   UNL     1       6.211   4.356  16.416  0.00  0.00    +0.000 OA
ATOM     10  C   UNL     1       4.035   4.414  17.317  0.00  0.00    +0.000 A 
ATOM     11  C   UNL     1       3.882   3.022  17.304  0.00  0.00    +0.000 A 
ATOM     12  C   UNL     1       2.686   2.449  17.738  0.00  0.00    +0.000 A 
ATOM     13  C   UNL     1       1.635   3.266  18.148  0.00  0.00    +0.000 A 
ATOM     14  C   UNL     1       1.789   4.654  18.154  0.00  0.00    +0.000 A 
ATOM     15  C   UNL     1       3.009   5.233  17.777  0.00  0.00    +0.000 A 
ATOM     16  H   UNL     1       6.191   6.842  16.553  0.00  0.00    +0.000 HD
ENDBRANCH   2   5
BRANCH   1  23
ATOM     17  C   UNL     1      -4.076  13.261  20.223  0.00  0.00    +0.000 C 
ATOM     18  C   UNL     1      -3.148  12.294  19.552  0.00  0.00    +0.000 A 
ATOM     19  C   UNL     1      -3.590  11.504  18.503  0.00  0.00    +0.000 A 
ATOM     20  C   UNL     1      -2.682  10.628  17.929  0.00  0.00    +0.000 A 
ATOM     21  C   UNL     1      -1.364  10.547  18.402  0.00  0.00    +0.000 A 
ATOM     22  C   UNL     1      -0.417   9.654  17.864  0.00  0.00    +0.000 A 
ATOM     23  C   UNL     1       0.876   9.559  18.379  0.00  0.00    +0.000 A 
ATOM     24  C   UNL     1       1.242  10.417  19.413  0.00  0.00    +0.000 A 
ATOM     25  C   UNL     1       0.300  11.312  19.945  0.00  0.00    +0.000 A 
ATOM     26  C   UNL     1      -1.005  11.388  19.466  0.00  0.00    +0.000 A 
ATOM     27  N   UNL     1      -1.877  12.247  20.027  0.00  0.00    +0.000 NA
BRANCH  20  28
ATOM     28  O   UNL     1      -3.076   9.823  16.892  0.00  0.00    +0.000 OA
ATOM     29  H   UNL     1      -3.222   8.922  17.219  0.00  0.00    +0.000 HD
ENDBRANCH  20  28
ENDBRANCH   1  23
TORSDOF 3
ENDMDL
MODEL 3
REMARK VINA RESULT:      -8.9      1.006      1.010
REMARK  Name = 
REMARK  4 active torsions:
REMARK  status: ('A' for Active; 'I' for Inactive)
REMARK    1  A    between atoms: C_1  and  C_2
REMARK    2  A    between atoms: C_4  and  O_5
REMARK    3  A    between atoms: C_8  and  N_9
REMARK    4  A    between atoms: C_10  and  C_12
REMARK                            x       y       z     vdW  Elec       q    Type
REMARK                         _______ _______ _______ _____ _____    ______ ____
ROOT
ATOM      1  N   UNL     1       1.809   8.531  18.503  0.00  0.00    +0.000 N 
ATOM      2  C   UNL     1       2.240   7.351  19.077  0.00  0.00    +0.000 C 
ATOM      3  O   UNL     1       1.980   6.937  20.197  0.00  0.00    +0.000 OA
ATOM      4  H   UNL     1       2.345   8.852  17.704  0.00  0.00    +0.000 HD
ENDROOT
BRANCH   2   5
ATOM      5  C   UNL     1       3.220   6.550  18.230  0.00  0.00    +0.000 A 
ATOM      6  N   UNL     1       4.284   7.180  17.814  0.00  0.00    +0.000 NA
ATOM      7  N   UNL     1       5.241   6.445  17.172  0.00  0.00    +0.000 N 
ATOM      8  C   UNL     1       5.240   5.077  17.016  0.00  0.00    +0.000 A 
ATOM      9  O   UNL     1       6.190   4.473  16.531  0.00  0.00    +0.000 OA
ATOM     10  C   UNL     1       4.020   4.373  17.446  0.00  0.00    +0.000 A 
ATOM     11  C   UNL     1       3.912   2.985  17.299  0.00  0.00    +0.000 A 
ATOM     12  C   UNL     1       2.739   2.334  17.683  0.00  0.00    +0.000 A 
ATOM     13  C   UNL     1       1.666   3.073  18.175  0.00  0.00    +0.000 A 
ATOM     14  C   UNL     1       1.775   4.458  18.316  0.00  0.00    +0.000 A 
ATOM     15  C   UNL     1       2.973   5.110  17.989  0.00  0.00    +0.000 A 
ATOM     16  H   UNL     1       6.092   6.933  16.908  0.00  0.00    +0.000 HD
ENDBRANCH   2   5
BRANCH   1  23
ATOM     17  C   UNL     1      -2.894  13.321  22.577  0.00  0.00    +0.000 C 
ATOM     18  C   UNL     1      -1.924  12.292  22.078  0.00  0.00    +0.000 A 
ATOM     19  C   UNL     1      -1.172  11.542  22.968  0.00  0.00    +0.000 A 
ATOM     20  C   UNL     1      -0.291  10.610  22.442  0.00  0.00    +0.000 A 
ATOM     21  C   UNL     1      -0.168  10.440  21.054  0.00  0.00    +0.000 A 
ATOM     22  C   UNL     1       0.732   9.523  20.478  0.00  0.00    +0.000 A 
ATOM     23  C   UNL     1       0.869   9.403  19.094  0.00  0.00    +0.000 A 
ATOM     24  C   UNL     1       0.046  10.174  18.277  0.00  0.00    +0.000 A 
ATOM     25  C   UNL     1      -0.855  11.084  18.852  0.00  0.00    +0.000 A 
ATOM     26  C   UNL     1      -0.973  11.242  20.230  0.00  0.00    +0.000 A 
ATOM     27  N   UNL     1      -1.836  12.145  20.731  0.00  0.00    +0.000 NA
BRANCH  20  28
ATOM     28  O   UNL     1       0.478   9.848  23.283  0.00  0.00    +0.000 OA
ATOM     29  H   UNL     1       0.039   8.999  23.444  0.00  0.00    +0.000 HD
ENDBRANCH  20  28
ENDBRANCH   1  23
TORSDOF 3
ENDMDL
MODEL 4
REMARK VINA RESULT:      -8.8      1.404      1.876
REMARK  Name = 
REMARK  4 active torsions:
REMARK  status: ('A' for Active; 'I' for Inactive)
REMARK    1  A    between atoms: C_1  and  C_2
REMARK    2  A    between atoms: C_4  and  O_5
REMARK    3  A    between atoms: C_8  and  N_9
REMARK    4  A    between atoms: C_10  and  C_12
REMARK                            x       y       z     vdW  Elec       q    Type
REMARK                         _______ _______ _______ _____ _____    ______ ____
ROOT
ATOM      1  N   UNL     1       2.159   7.752  19.775  0.00  0.00    +0.000 N 
ATOM      2  C   UNL     1       2.294   7.798  18.401  0.00  0.00    +0.000 C 
ATOM      3  O   UNL     1       1.666   8.499  17.621  0.00  0.00    +0.000 OA
ATOM      4  H   UNL     1       2.535   6.926  20.226  0.00  0.00    +0.000 HD
ENDROOT
BRANCH   2   5
ATOM      5  C   UNL     1       3.271   6.783  17.822  0.00  0.00    +0.000 A 
ATOM      6  N   UNL     1       4.430   7.242  17.438  0.00  0.00    +0.000 NA
ATOM      7  N   UNL     1       5.370   6.330  17.045  0.00  0.00    +0.000 N 
ATOM      8  C   UNL     1       5.248   4.960  17.120  0.00  0.00    +0.000 A 
ATOM      9  O   UNL     1       6.177   4.205  16.859  0.00  0.00    +0.000 OA
ATOM     10  C   UNL     1       3.926   4.445  17.512  0.00  0.00    +0.000 A 
ATOM     11  C   UNL     1       3.694   3.065  17.585  0.00  0.00    +0.000 A 
ATOM     12  C   UNL     1       2.428   2.589  17.929  0.00  0.00    +0.000 A 
ATOM     13  C   UNL     1       1.389   3.488  18.160  0.00  0.00    +0.000 A 
ATOM     14  C   UNL     1       1.622   4.864  18.080  0.00  0.00    +0.000 A 
ATOM     15  C   UNL     1       2.906   5.348  17.795  0.00  0.00    +0.000 A 
ATOM     16  H   UNL     1       6.288   6.693  16.808  0.00  0.00    +0.000 HD
ENDBRANCH   2   5
BRANCH   1  23
ATOM     17  C   UNL     1      -2.834  12.815  23.105  0.00  0.00    +0.000 C 
ATOM     18  C   UNL     1      -1.934  12.015  22.212  0.00  0.00    +0.000 A 
ATOM     19  C   UNL     1      -1.891  12.261  20.849  0.00  0.00    +0.000 A 
ATOM     20  C   UNL     1      -1.041  11.482  20.080  0.00  0.00    +0.000 A 
ATOM     21  C   UNL     1      -0.255  10.479  20.668  0.00  0.00    +0.000 A 
ATOM     22  C   UNL     1       0.603   9.650  19.920  0.00  0.00    +0.000 A 
ATOM     23  C   UNL     1       1.341   8.629  20.521  0.00  0.00    +0.000 A 
ATOM     24  C   UNL     1       1.261   8.478  21.902  0.00  0.00    +0.000 A 
ATOM     25  C   UNL     1       0.410   9.309  22.649  0.00  0.00    +0.000 A 
ATOM     26  C   UNL     1      -0.362  10.304  22.056  0.00  0.00    +0.000 A 
ATOM     27  N   UNL     1      -1.180  11.059  22.813  0.00  0.00    +0.000 NA
BRANCH  20  28
ATOM     28  O   UNL     1      -0.969  11.686  18.726  0.00  0.00    +0.000 OA
ATOM     29  H   UNL     1      -1.700  11.222  18.290  0.00  0.00    +0.000 HD
ENDBRANCH  20  28
ENDBRANCH   1  23
TORSDOF 3
ENDMDL
MODEL 5
REMARK VINA RESULT:      -8.8      2.335      2.975
REMARK  Name = 
REMARK  4 active torsions:
REMARK  status: ('A' for Active; 'I' for Inactive)
REMARK    1  A    between atoms: C_1  and  C_2
REMARK    2  A    between atoms: C_4  and  O_5
REMARK    3  A    between atoms: C_8  and  N_9
REMARK    4  A    between atoms: C_10  and  C_12
REMARK                            x       y       z     vdW  Elec       q    Type
REMARK                         _______ _______ _______ _____ _____    ______ ____
ROOT
ATOM      1  N   UNL     1       2.380   8.635  17.582  0.00  0.00    +0.000 N 
ATOM      2  C   UNL     1       2.684   7.543  18.371  0.00  0.00    +0.000 C 
ATOM      3  O   UNL     1       2.524   7.437  19.577  0.00  0.00    +0.000 OA
ATOM      4  H   UNL     1       2.838   8.666  16.678  0.00  0.00    +0.000 HD
ENDROOT
BRANCH   2   5
ATOM      5  C   UNL     1       3.379   6.403  17.639  0.00  0.00    +0.000 A 
ATOM      6  N   UNL     1       4.462   6.706  16.977  0.00  0.00    +0.000 NA
ATOM      7  N   UNL     1       5.175   5.676  16.431  0.00  0.00    +0.000 N 
ATOM      8  C   UNL     1       4.920   4.334  16.604  0.00  0.00    +0.000 A 
ATOM      9  O   UNL     1       5.671   3.465  16.179  0.00  0.00    +0.000 OA
ATOM     10  C   UNL     1       3.675   3.994  17.312  0.00  0.00    +0.000 A 
ATOM     11  C   UNL     1       3.312   2.656  17.510  0.00  0.00    +0.000 A 
ATOM     12  C   UNL     1       2.115   2.347  18.157  0.00  0.00    +0.000 A 
ATOM     13  C   UNL     1       1.267   3.372  18.570  0.00  0.00    +0.000 A 
ATOM     14  C   UNL     1       1.629   4.706  18.367  0.00  0.00    +0.000 A 
ATOM     15  C   UNL     1       2.858   5.022  17.772  0.00  0.00    +0.000 A 
ATOM     16  H   UNL     1       6.048   5.918  15.972  0.00  0.00    +0.000 HD
ENDBRANCH   2   5
BRANCH   1  23
ATOM     17  C   UNL     1      -0.775  15.517  19.669  0.00  0.00    +0.000 C 
ATOM     18  C   UNL     1       0.088  14.368  19.241  0.00  0.00    +0.000 A 
ATOM     19  C   UNL     1       1.395  14.581  18.833  0.00  0.00    +0.000 A 
ATOM     20  C   UNL     1       2.138  13.477  18.447  0.00  0.00    +0.000 A 
ATOM     21  C   UNL     1       1.578  12.191  18.467  0.00  0.00    +0.000 A 
ATOM     22  C   UNL     1       2.290  11.046  18.059  0.00  0.00    +0.000 A 
ATOM     23  C   UNL     1       1.698   9.782  18.045  0.00  0.00    +0.000 A 
ATOM     24  C   UNL     1       0.389   9.658  18.504  0.00  0.00    +0.000 A 
ATOM     25  C   UNL     1      -0.318  10.799  18.917  0.00  0.00    +0.000 A 
ATOM     26  C   UNL     1       0.248  12.070  18.897  0.00  0.00    +0.000 A 
ATOM     27  N   UNL     1      -0.480  13.136  19.281  0.00  0.00    +0.000 NA
BRANCH  20  28
ATOM     28  O   UNL     1       3.434  13.640  18.031  0.00  0.00    +0.000 OA
ATOM     29  H   UNL     1       4.037  13.449  18.767  0.00  0.00    +0.000 HD
ENDBRANCH  20  28
ENDBRANCH   1  23
TORSDOF 3
ENDMDL
MODEL 6
REMARK VINA RESULT:      -8.7      5.890      7.618
REMARK  Name = 
REMARK  4 active torsions:
REMARK  status: ('A' for Active; 'I' for Inactive)
REMARK    1  A    between atoms: C_1  and  C_2
REMARK    2  A    between atoms: C_4  and  O_5
REMARK    3  A    between atoms: C_8  and  N_9
REMARK    4  A    between atoms: C_10  and  C_12
REMARK                            x       y       z     vdW  Elec       q    Type
REMARK                         _______ _______ _______ _____ _____    ______ ____
ROOT
ATOM      1  N   UNL     1       7.849   8.651  17.312  0.00  0.00    +0.000 N 
ATOM      2  C   UNL     1       7.714   7.358  17.780  0.00  0.00    +0.000 C 
ATOM      3  O   UNL     1       8.138   6.907  18.833  0.00  0.00    +0.000 OA
ATOM      4  H   UNL     1       7.702   8.776  16.317  0.00  0.00    +0.000 HD
ENDROOT
BRANCH   2   5
ATOM      5  C   UNL     1       7.042   6.397  16.808  0.00  0.00    +0.000 A 
ATOM      6  N   UNL     1       7.713   6.088  15.733  0.00  0.00    +0.000 NA
ATOM      7  N   UNL     1       7.190   5.123  14.919  0.00  0.00    +0.000 N 
ATOM      8  C   UNL     1       6.072   4.363  15.182  0.00  0.00    +0.000 A 
ATOM      9  O   UNL     1       5.727   3.434  14.461  0.00  0.00    +0.000 OA
ATOM     10  C   UNL     1       5.292   4.741  16.372  0.00  0.00    +0.000 A 
ATOM     11  C   UNL     1       4.121   4.048  16.705  0.00  0.00    +0.000 A 
ATOM     12  C   UNL     1       3.375   4.436  17.819  0.00  0.00    +0.000 A 
ATOM     13  C   UNL     1       3.778   5.535  18.573  0.00  0.00    +0.000 A 
ATOM     14  C   UNL     1       4.943   6.228  18.236  0.00  0.00    +0.000 A 
ATOM     15  C   UNL     1       5.729   5.805  17.154  0.00  0.00    +0.000 A 
ATOM     16  H   UNL     1       7.750   4.846  14.119  0.00  0.00    +0.000 HD
ENDBRANCH   2   5
BRANCH   1  23
ATOM     17  C   UNL     1      10.288  15.107  21.059  0.00  0.00    +0.000 C 
ATOM     18  C   UNL     1       9.730  14.075  20.126  0.00  0.00    +0.000 A 
ATOM     19  C   UNL     1       9.041  14.454  18.985  0.00  0.00    +0.000 A 
ATOM     20  C   UNL     1       8.548  13.451  18.166  0.00  0.00    +0.000 A 
ATOM     21  C   UNL     1       8.741  12.099  18.490  0.00  0.00    +0.000 A 
ATOM     22  C   UNL     1       8.235  11.048  17.699  0.00  0.00    +0.000 A 
ATOM     23  C   UNL     1       8.401   9.712  18.064  0.00  0.00    +0.000 A 
ATOM     24  C   UNL     1       9.138   9.424  19.210  0.00  0.00    +0.000 A 
ATOM     25  C   UNL     1       9.647  10.471  19.995  0.00  0.00    +0.000 A 
ATOM     26  C   UNL     1       9.453  11.809  19.663  0.00  0.00    +0.000 A 
ATOM     27  N   UNL     1       9.942  12.776  20.462  0.00  0.00    +0.000 NA
BRANCH  20  28
ATOM     28  O   UNL     1       7.855  13.778  17.029  0.00  0.00    +0.000 OA
ATOM     29  H   UNL     1       6.910  13.605  17.165  0.00  0.00    +0.000 HD
ENDBRANCH  20  28
ENDBRANCH   1  23
TORSDOF 3
ENDMDL
MODEL 7
REMARK VINA RESULT:      -8.7      1.806      1.824
REMARK  Name = 
REMARK  4 active torsions:
REMARK  status: ('A' for Active; 'I' for Inactive)
REMARK    1  A    between atoms: C_1  and  C_2
REMARK    2  A    between atoms: C_4  and  O_5
REMARK    3  A    between atoms: C_8  and  N_9
REMARK    4  A    between atoms: C_10  and  C_12
REMARK                            x       y       z     vdW  Elec       q    Type
REMARK                         _______ _______ _______ _____ _____    ______ ____
ROOT
ATOM      1  N   UNL     1       1.813   8.709  17.859  0.00  0.00    +0.000 N 
ATOM      2  C   UNL     1       2.336   7.687  18.627  0.00  0.00    +0.000 C 
ATOM      3  O   UNL     1       2.189   7.516  19.828  0.00  0.00    +0.000 OA
ATOM      4  H   UNL     1       2.265   8.862  16.965  0.00  0.00    +0.000 HD
ENDROOT
BRANCH   2   5
ATOM      5  C   UNL     1       3.269   6.742  17.880  0.00  0.00    +0.000 A 
ATOM      6  N   UNL     1       4.372   7.259  17.412  0.00  0.00    +0.000 NA
ATOM      7  N   UNL     1       5.284   6.402  16.861  0.00  0.00    +0.000 N 
ATOM      8  C   UNL     1       5.199   5.028  16.851  0.00  0.00    +0.000 A 
ATOM      9  O   UNL     1       6.112   4.319  16.443  0.00  0.00    +0.000 OA
ATOM     10  C   UNL     1       3.936   4.450  17.339  0.00  0.00    +0.000 A 
ATOM     11  C   UNL     1       3.742   3.062  17.339  0.00  0.00    +0.000 A 
ATOM     12  C   UNL     1       2.529   2.529  17.776  0.00  0.00    +0.000 A 
ATOM     13  C   UNL     1       1.503   3.380  18.176  0.00  0.00    +0.000 A 
ATOM     14  C   UNL     1       1.697   4.763  18.170  0.00  0.00    +0.000 A 
ATOM     15  C   UNL     1       2.934   5.302  17.790  0.00  0.00    +0.000 A 
ATOM     16  H   UNL     1       6.164   6.806  16.557  0.00  0.00    +0.000 HD
ENDBRANCH   2   5
BRANCH   1  23
ATOM     17  C   UNL     1      -2.535  14.548  20.803  0.00  0.00    +0.000 C 
ATOM     18  C   UNL     1      -1.495  13.527  20.450  0.00  0.00    +0.000 A 
ATOM     19  C   UNL     1      -0.234  13.577  21.022  0.00  0.00    +0.000 A 
ATOM     20  C   UNL     1       0.682  12.606  20.649  0.00  0.00    +0.000 A 
ATOM     21  C   UNL     1       0.338  11.612  19.721  0.00  0.00    +0.000 A 
ATOM     22  C   UNL     1       1.246  10.622  19.296  0.00  0.00    +0.000 A 
ATOM     23  C   UNL     1       0.895   9.669  18.338  0.00  0.00    +0.000 A 
ATOM     24  C   UNL     1      -0.406   9.675  17.843  0.00  0.00    +0.000 A 
ATOM     25  C   UNL     1      -1.313  10.658  18.271  0.00  0.00    +0.000 A 
ATOM     26  C   UNL     1      -0.963  11.638  19.196  0.00  0.00    +0.000 A 
ATOM     27  N   UNL     1      -1.862  12.573  19.556  0.00  0.00    +0.000 NA
BRANCH  20  28
ATOM     28  O   UNL     1       1.944  12.618  21.185  0.00  0.00    +0.000 OA
ATOM     29  H   UNL     1       2.514  12.013  20.685  0.00  0.00    +0.000 HD
ENDBRANCH  20  28
ENDBRANCH   1  23
TORSDOF 3
ENDMDL
MODEL 8
REMARK VINA RESULT:      -8.6      1.825      2.233
REMARK  Name = 
REMARK  4 active torsions:
REMARK  status: ('A' for Active; 'I' for Inactive)
REMARK    1  A    between atoms: C_1  and  C_2
REMARK    2  A    between atoms: C_4  and  O_5
REMARK    3  A    between atoms: C_8  and  N_9
REMARK    4  A    between atoms: C_10  and  C_12
REMARK                            x       y       z     vdW  Elec       q    Type
REMARK                         _______ _______ _______ _____ _____    ______ ____
ROOT
ATOM      1  N   UNL     1       1.744   8.331  19.569  0.00  0.00    +0.000 N 
ATOM      2  C   UNL     1       2.013   6.987  19.744  0.00  0.00    +0.000 C 
ATOM      3  O   UNL     1       1.735   6.300  20.716  0.00  0.00    +0.000 OA
ATOM      4  H   UNL     1       2.292   8.798  18.855  0.00  0.00    +0.000 HD
ENDROOT
BRANCH   2   5
ATOM      5  C   UNL     1       2.828   6.349  18.628  0.00  0.00    +0.000 A 
ATOM      6  N   UNL     1       3.737   7.097  18.066  0.00  0.00    +0.000 NA
ATOM      7  N   UNL     1       4.570   6.503  17.160  0.00  0.00    +0.000 N 
ATOM      8  C   UNL     1       4.614   5.159  16.862  0.00  0.00    +0.000 A 
ATOM      9  O   UNL     1       5.467   4.680  16.124  0.00  0.00    +0.000 OA
ATOM     10  C   UNL     1       3.561   4.324  17.462  0.00  0.00    +0.000 A 
ATOM     11  C   UNL     1       3.503   2.950  17.194  0.00  0.00    +0.000 A 
ATOM     12  C   UNL     1       2.482   2.175  17.746  0.00  0.00    +0.000 A 
ATOM     13  C   UNL     1       1.503   2.778  18.531  0.00  0.00    +0.000 A 
ATOM     14  C   UNL     1       1.560   4.149  18.793  0.00  0.00    +0.000 A 
ATOM     15  C   UNL     1       2.617   4.921  18.291  0.00  0.00    +0.000 A 
ATOM     16  H   UNL     1       5.313   7.079  16.775  0.00  0.00    +0.000 HD
ENDBRANCH   2   5
BRANCH   1  23
ATOM     17  C   UNL     1      -3.096  12.874  23.762  0.00  0.00    +0.000 C 
ATOM     18  C   UNL     1      -2.258  12.189  22.726  0.00  0.00    +0.000 A 
ATOM     19  C   UNL     1      -2.361  12.541  21.389  0.00  0.00    +0.000 A 
ATOM     20  C   UNL     1      -1.560  11.866  20.481  0.00  0.00    +0.000 A 
ATOM     21  C   UNL     1      -0.679  10.860  20.908  0.00  0.00    +0.000 A 
ATOM     22  C   UNL     1       0.134  10.134  20.016  0.00  0.00    +0.000 A 
ATOM     23  C   UNL     1       0.969   9.107  20.458  0.00  0.00    +0.000 A 
ATOM     24  C   UNL     1       1.033   8.846  21.824  0.00  0.00    +0.000 A 
ATOM     25  C   UNL     1       0.227   9.574  22.714  0.00  0.00    +0.000 A 
ATOM     26  C   UNL     1      -0.640  10.574  22.281  0.00  0.00    +0.000 A 
ATOM     27  N   UNL     1      -1.409  11.227  23.172  0.00  0.00    +0.000 NA
BRANCH  20  28
ATOM     28  O   UNL     1      -1.631  12.176  19.148  0.00  0.00    +0.000 OA
ATOM     29  H   UNL     1      -1.364  11.407  18.622  0.00  0.00    +0.000 HD
ENDBRANCH  20  28
ENDBRANCH   1  23
TORSDOF 3
ENDMDL
MODEL 9
REMARK VINA RESULT:      -8.5      1.524      1.729
REMARK  Name = 
REMARK  4 active torsions:
REMARK  status: ('A' for Active; 'I' for Inactive)
REMARK    1  A    between atoms: C_1  and  C_2
REMARK    2  A    between atoms: C_4  and  O_5
REMARK    3  A    between atoms: C_8  and  N_9
REMARK    4  A    between atoms: C_10  and  C_12
REMARK                            x       y       z     vdW  Elec       q    Type
REMARK                         _______ _______ _______ _____ _____    ______ ____
ROOT
ATOM      1  N   UNL     1       2.166   7.182  19.830  0.00  0.00    +0.000 N 
ATOM      2  C   UNL     1       3.047   6.804  18.835  0.00  0.00    +0.000 C 
ATOM      3  O   UNL     1       3.325   7.427  17.820  0.00  0.00    +0.000 OA
ATOM      4  H   UNL     1       1.839   6.435  20.433  0.00  0.00    +0.000 HD
ENDROOT
BRANCH   2   5
ATOM      5  C   UNL     1       3.645   5.414  19.006  0.00  0.00    +0.000 A 
ATOM      6  N   UNL     1       4.908   5.357  19.329  0.00  0.00    +0.000 NA
ATOM      7  N   UNL     1       5.427   4.128  19.623  0.00  0.00    +0.000 N 
ATOM      8  C   UNL     1       4.718   2.951  19.717  0.00  0.00    +0.000 A 
ATOM      9  O   UNL     1       5.231   1.906  20.100  0.00  0.00    +0.000 OA
ATOM     10  C   UNL     1       3.304   3.009  19.310  0.00  0.00    +0.000 A 
ATOM     11  C   UNL     1       2.508   1.857  19.341  0.00  0.00    +0.000 A 
ATOM     12  C   UNL     1       1.177   1.919  18.924  0.00  0.00    +0.000 A 
ATOM     13  C   UNL     1       0.658   3.118  18.443  0.00  0.00    +0.000 A 
ATOM     14  C   UNL     1       1.456   4.264  18.409  0.00  0.00    +0.000 A 
ATOM     15  C   UNL     1       2.774   4.222  18.883  0.00  0.00    +0.000 A 
ATOM     16  H   UNL     1       6.394   4.102  19.934  0.00  0.00    +0.000 HD
ENDBRANCH   2   5
BRANCH   1  23
ATOM     17  C   UNL     1      -1.212  14.154  21.105  0.00  0.00    +0.000 C 
ATOM     18  C   UNL     1      -0.651  12.765  21.155  0.00  0.00    +0.000 A 
ATOM     19  C   UNL     1      -0.636  12.052  22.343  0.00  0.00    +0.000 A 
ATOM     20  C   UNL     1      -0.100  10.774  22.321  0.00  0.00    +0.000 A 
ATOM     21  C   UNL     1       0.412  10.230  21.134  0.00  0.00    +0.000 A 
ATOM     22  C   UNL     1       0.989   8.946  21.073  0.00  0.00    +0.000 A 
ATOM     23  C   UNL     1       1.532   8.442  19.891  0.00  0.00    +0.000 A 
ATOM     24  C   UNL     1       1.442   9.217  18.738  0.00  0.00    +0.000 A 
ATOM     25  C   UNL     1       0.862  10.494  18.796  0.00  0.00    +0.000 A 
ATOM     26  C   UNL     1       0.353  11.024  19.979  0.00  0.00    +0.000 A 
ATOM     27  N   UNL     1      -0.172  12.263  19.988  0.00  0.00    +0.000 NA
BRANCH  20  28
ATOM     28  O   UNL     1      -0.060  10.033  23.473  0.00  0.00    +0.000 OA
ATOM     29  H   UNL     1      -0.309   9.116  23.278  0.00  0.00    +0.000 HD
ENDBRANCH  20  28
ENDBRANCH   1  23
TORSDOF 3
ENDMDL
