MODEL 1
REMARK VINA RESULT:      -9.1      0.000      0.000
REMARK  Name = 
REMARK  7 active torsions:
REMARK  status: ('A' for Active; 'I' for Inactive)
REMARK    1  A    between atoms: C_1  and  C_2
REMARK    2  A    between atoms: C_5  and  C_6
REMARK    3  A    between atoms: C_6  and  C_7
REMARK    4  A    between atoms: C_7  and  C_8
REMARK    5  A    between atoms: C_8  and  C_9
REMARK    6  A    between atoms: N_11  and  C_12
REMARK    7  A    between atoms: C_14  and  C_15
REMARK                            x       y       z     vdW  Elec       q    Type
REMARK                         _______ _______ _______ _____ _____    ______ ____
ROOT
ATOM      1  C   UNL     1       6.736   5.209  16.592  0.00  0.00    +0.000 A 
ATOM      2  C   UNL     1       5.598   4.717  17.253  0.00  0.00    +0.000 A 
ATOM      3  C   UNL     1       4.626   3.996  16.542  0.00  0.00    +0.000 A 
ATOM      4  C   UNL     1       4.822   3.776  15.164  0.00  0.00    +0.000 A 
ATOM      5  C   UNL     1       5.988   4.196  14.527  0.00  0.00    +0.000 A 
ATOM      6  C   UNL     1       6.922   4.930  15.238  0.00  0.00    +0.000 A 
ATOM      7  F   UNL     1       8.044   5.330  14.622  0.00  0.00    +0.000 F 
ENDROOT
BRANCH   3   8
ATOM      8  C   UNL     1       3.425   3.519  17.233  0.00  0.00    +0.000 A 
ATOM      9  N   UNL     1       2.658   2.518  16.838  0.00  0.00    +0.000 NA
ATOM     10  N   UNL     1       1.662   2.332  17.760  0.00  0.00    +0.000 NA
ATOM     11  C   UNL     1       1.801   3.233  18.707  0.00  0.00    +0.000 A 
ATOM     12  N   UNL     1       2.872   4.037  18.392  0.00  0.00    +0.000 N 
ATOM     13  C   UNL     1       3.315   5.216  19.104  0.00  0.00    +0.000 C 
ATOM     14  C   UNL     1       2.193   6.079  19.661  0.00  0.00    +0.000 C 
ATOM     15  C   UNL     1       1.634   5.561  20.981  0.00  0.00    +0.000 C 
ATOM     16  C   UNL     1       1.555   4.039  21.108  0.00  0.00    +0.000 C 
ATOM     17  C   UNL     1       0.913   3.366  19.900  0.00  0.00    +0.000 C 
ENDBRANCH   3   8
BRANCH   1  20
ATOM     18  C   UNL     1       7.416   7.308  17.615  0.00  0.00    +0.000 C 
ATOM     19  O   UNL     1       6.355   7.889  17.379  0.00  0.00    +0.000 OA
ATOM     20  N   UNL     1       7.697   6.007  17.254  0.00  0.00    +0.000 N 
ATOM     21  H   UNL     1       8.346   5.503  17.844  0.00  0.00    +0.000 HD
BRANCH  18  22
ATOM     22  C   UNL     1       8.533   7.980  18.391  0.00  0.00    +0.000 C 
BRANCH  22  23
ATOM     23  C   UNL     1       8.516   9.501  18.209  0.00  0.00    +0.000 C 
BRANCH  23  24
ATOM     24  C   UNL     1       9.210  10.230  19.363  0.00  0.00    +0.000 C 
BRANCH  24  29
ATOM     25  C   UNL     1      12.071  13.283  16.747  0.00  0.00    +0.000 C 
ATOM     26  C   UNL     1      11.497  12.485  17.846  0.00  0.00    +0.000 A 
ATOM     27  N   UNL     1      12.003  12.490  19.085  0.00  0.00    +0.000 NA
ATOM     28  O   UNL     1      11.153  11.625  19.779  0.00  0.00    +0.000 OA
ATOM     29  C   UNL     1      10.226  11.191  18.875  0.00  0.00    +0.000 A 
ATOM     30  N   UNL     1      10.394  11.689  17.671  0.00  0.00    +0.000 NA
ENDBRANCH  24  29
ENDBRANCH  23  24
ENDBRANCH  22  23
ENDBRANCH  18  22
ENDBRANCH   1  20
TORSDOF 6
ENDMDL
MODEL 2
REMARK VINA RESULT:      -9.0      5.029      7.863
REMARK  Name = 
REMARK  7 active torsions:
REMARK  status: ('A' for Active; 'I' for Inactive)
REMARK    1  A    between atoms: C_1  and  C_2
REMARK    2  A    between atoms: C_5  and  C_6
REMARK    3  A    between atoms: C_6  and  C_7
REMARK    4  A    between atoms: C_7  and  C_8
REMARK    5  A    between atoms: C_8  and  C_9
REMARK    6  A    between atoms: N_11  and  C_12
REMARK    7  A    between atoms: C_14  and  C_15
REMARK                            x       y       z     vdW  Elec       q    Type
REMARK                         _______ _______ _______ _____ _____    ______ ____
ROOT
ATOM      1  C   UNL     1       2.364   7.389  19.472  0.00  0.00    +0.000 A 
ATOM      2  C   UNL     1       1.639   7.968  20.527  0.00  0.00    +0.000 A 
ATOM      3  C   UNL     1       0.911   9.150  20.319  0.00  0.00    +0.000 A 
ATOM      4  C   UNL     1       0.922   9.731  19.035  0.00  0.00    +0.000 A 
ATOM      5  C   UNL     1       1.576   9.114  17.971  0.00  0.00    +0.000 A 
ATOM      6  C   UNL     1       2.312   7.965  18.202  0.00  0.00    +0.000 A 
ATOM      7  F   UNL     1       2.939   7.372  17.175  0.00  0.00    +0.000 F 
ENDROOT
BRANCH   3   8
ATOM      8  C   UNL     1       0.188   9.764  21.435  0.00  0.00    +0.000 A 
ATOM      9  N   UNL     1       0.120   9.284  22.665  0.00  0.00    +0.000 NA
ATOM     10  N   UNL     1      -0.598  10.154  23.441  0.00  0.00    +0.000 NA
ATOM     11  C   UNL     1      -0.993  11.155  22.686  0.00  0.00    +0.000 A 
ATOM     12  N   UNL     1      -0.562  10.929  21.399  0.00  0.00    +0.000 N 
ATOM     13  C   UNL     1      -0.862  11.723  20.227  0.00  0.00    +0.000 C 
ATOM     14  C   UNL     1      -2.275  12.282  20.187  0.00  0.00    +0.000 C 
ATOM     15  C   UNL     1      -2.445  13.548  21.019  0.00  0.00    +0.000 C 
ATOM     16  C   UNL     1      -1.652  13.585  22.325  0.00  0.00    +0.000 C 
ATOM     17  C   UNL     1      -1.802  12.317  23.158  0.00  0.00    +0.000 C 
ENDBRANCH   3   8
BRANCH   1  20
ATOM     18  C   UNL     1       2.678   4.977  19.446  0.00  0.00    +0.000 C 
ATOM     19  O   UNL     1       1.519   4.723  19.111  0.00  0.00    +0.000 OA
ATOM     20  N   UNL     1       3.173   6.246  19.662  0.00  0.00    +0.000 N 
ATOM     21  H   UNL     1       4.162   6.381  19.490  0.00  0.00    +0.000 HD
BRANCH  18  22
ATOM     22  C   UNL     1       3.713   3.881  19.616  0.00  0.00    +0.000 C 
BRANCH  22  23
ATOM     23  C   UNL     1       3.977   3.141  18.300  0.00  0.00    +0.000 C 
BRANCH  23  24
ATOM     24  C   UNL     1       4.130   4.101  17.117  0.00  0.00    +0.000 C 
BRANCH  24  29
ATOM     25  C   UNL     1       7.729   7.430  17.677  0.00  0.00    +0.000 C 
ATOM     26  C   UNL     1       6.990   6.193  17.365  0.00  0.00    +0.000 A 
ATOM     27  N   UNL     1       7.585   5.096  16.881  0.00  0.00    +0.000 NA
ATOM     28  O   UNL     1       6.528   4.191  16.754  0.00  0.00    +0.000 OA
ATOM     29  C   UNL     1       5.408   4.847  17.176  0.00  0.00    +0.000 A 
ATOM     30  N   UNL     1       5.637   6.082  17.561  0.00  0.00    +0.000 NA
ENDBRANCH  24  29
ENDBRANCH  23  24
ENDBRANCH  22  23
ENDBRANCH  18  22
ENDBRANCH   1  20
TORSDOF 6
ENDMDL
MODEL 3
REMARK VINA RESULT:      -9.0      1.082      1.138
REMARK  Name = 
REMARK  7 active torsions:
REMARK  status: ('A' for Active; 'I' for Inactive)
REMARK    1  A    between atoms: C_1  and  C_2
REMARK    2  A    between atoms: C_5  and  C_6
REMARK    3  A    between atoms: C_6  and  C_7
REMARK    4  A    between atoms: C_7  and  C_8
REMARK    5  A    between atoms: C_8  and  C_9
REMARK    6  A    between atoms: N_11  and  C_12
REMARK    7  A    between atoms: C_14  and  C_15
REMARK                            x       y       z     vdW  Elec       q    Type
REMARK                         _______ _______ _______ _____ _____    ______ ____
ROOT
ATOM      1  C   UNL     1       6.078   5.930  16.434  0.00  0.00    +0.000 A 
ATOM      2  C   UNL     1       4.934   5.394  17.048  0.00  0.00    +0.000 A 
ATOM      3  C   UNL     1       4.494   4.103  16.715  0.00  0.00    +0.000 A 
ATOM      4  C   UNL     1       5.226   3.366  15.764  0.00  0.00    +0.000 A 
ATOM      5  C   UNL     1       6.404   3.868  15.215  0.00  0.00    +0.000 A 
ATOM      6  C   UNL     1       6.806   5.153  15.533  0.00  0.00    +0.000 A 
ATOM      7  F   UNL     1       7.942   5.632  15.004  0.00  0.00    +0.000 F 
ENDROOT
BRANCH   3   8
ATOM      8  C   UNL     1       3.280   3.567  17.334  0.00  0.00    +0.000 A 
ATOM      9  N   UNL     1       2.296   2.956  16.695  0.00  0.00    +0.000 NA
ATOM     10  N   UNL     1       1.359   2.552  17.608  0.00  0.00    +0.000 NA
ATOM     11  C   UNL     1       1.751   2.934  18.803  0.00  0.00    +0.000 A 
ATOM     12  N   UNL     1       2.935   3.623  18.675  0.00  0.00    +0.000 N 
ATOM     13  C   UNL     1       3.662   4.307  19.722  0.00  0.00    +0.000 C 
ATOM     14  C   UNL     1       2.786   5.013  20.745  0.00  0.00    +0.000 C 
ATOM     15  C   UNL     1       2.238   4.076  21.815  0.00  0.00    +0.000 C 
ATOM     16  C   UNL     1       1.862   2.675  21.331  0.00  0.00    +0.000 C 
ATOM     17  C   UNL     1       1.004   2.683  20.071  0.00  0.00    +0.000 C 
ENDBRANCH   3   8
BRANCH   1  20
ATOM     18  C   UNL     1       7.401   7.538  17.692  0.00  0.00    +0.000 C 
ATOM     19  O   UNL     1       7.873   6.704  18.466  0.00  0.00    +0.000 OA
ATOM     20  N   UNL     1       6.506   7.255  16.682  0.00  0.00    +0.000 N 
ATOM     21  H   UNL     1       6.531   7.861  15.871  0.00  0.00    +0.000 HD
BRANCH  18  22
ATOM     22  C   UNL     1       7.810   8.998  17.752  0.00  0.00    +0.000 C 
BRANCH  22  23
ATOM     23  C   UNL     1       9.062   9.202  18.612  0.00  0.00    +0.000 C 
BRANCH  23  24
ATOM     24  C   UNL     1       9.012  10.512  19.404  0.00  0.00    +0.000 C 
BRANCH  24  29
ATOM     25  C   UNL     1      11.813  13.334  16.480  0.00  0.00    +0.000 C 
ATOM     26  C   UNL     1      10.852  12.884  17.504  0.00  0.00    +0.000 A 
ATOM     27  N   UNL     1      10.162  13.735  18.272  0.00  0.00    +0.000 NA
ATOM     28  O   UNL     1       9.384  12.887  19.066  0.00  0.00    +0.000 OA
ATOM     29  C   UNL     1       9.695  11.614  18.686  0.00  0.00    +0.000 A 
ATOM     30  N   UNL     1      10.595  11.556  17.730  0.00  0.00    +0.000 NA
ENDBRANCH  24  29
ENDBRANCH  23  24
ENDBRANCH  22  23
ENDBRANCH  18  22
ENDBRANCH   1  20
TORSDOF 6
ENDMDL
MODEL 4
REMARK VINA RESULT:      -8.9      6.663      9.864
REMARK  Name = 
REMARK  7 active torsions:
REMARK  status: ('A' for Active; 'I' for Inactive)
REMARK    1  A    between atoms: C_1  and  C_2
REMARK    2  A    between atoms: C_5  and  C_6
REMARK    3  A    between atoms: C_6  and  C_7
REMARK    4  A    between atoms: C_7  and  C_8
REMARK    5  A    between atoms: C_8  and  C_9
REMARK    6  A    between atoms: N_11  and  C_12
REMARK    7  A    between atoms: C_14  and  C_15
REMARK                            x       y       z     vdW  Elec       q    Type
REMARK                         _______ _______ _______ _____ _____    ______ ____
ROOT
ATOM      1  C   UNL     1       0.825   9.096  19.920  0.00  0.00    +0.000 A 
ATOM      2  C   UNL     1       1.525   7.881  19.996  0.00  0.00    +0.000 A 
ATOM      3  C   UNL     1       2.415   7.513  18.975  0.00  0.00    +0.000 A 
ATOM      4  C   UNL     1       2.590   8.390  17.886  0.00  0.00    +0.000 A 
ATOM      5  C   UNL     1       1.956   9.630  17.850  0.00  0.00    +0.000 A 
ATOM      6  C   UNL     1       1.060   9.962  18.852  0.00  0.00    +0.000 A 
ATOM      7  F   UNL     1       0.453  11.158  18.816  0.00  0.00    +0.000 F 
ENDROOT
BRANCH   3   8
ATOM      8  C   UNL     1       3.112   6.227  19.046  0.00  0.00    +0.000 A 
ATOM      9  N   UNL     1       4.258   5.940  18.452  0.00  0.00    +0.000 NA
ATOM     10  N   UNL     1       4.622   4.663  18.787  0.00  0.00    +0.000 NA
ATOM     11  C   UNL     1       3.691   4.156  19.565  0.00  0.00    +0.000 A 
ATOM     12  N   UNL     1       2.692   5.090  19.716  0.00  0.00    +0.000 N 
ATOM     13  C   UNL     1       1.432   4.913  20.404  0.00  0.00    +0.000 C 
ATOM     14  C   UNL     1       0.805   3.538  20.234  0.00  0.00    +0.000 C 
ATOM     15  C   UNL     1       1.397   2.488  21.167  0.00  0.00    +0.000 C 
ATOM     16  C   UNL     1       2.899   2.610  21.423  0.00  0.00    +0.000 C 
ATOM     17  C   UNL     1       3.716   2.782  20.147  0.00  0.00    +0.000 C 
ENDBRANCH   3   8
BRANCH   1  20
ATOM     18  C   UNL     1       0.236  10.010  22.097  0.00  0.00    +0.000 C 
ATOM     19  O   UNL     1       1.401  10.194  22.453  0.00  0.00    +0.000 OA
ATOM     20  N   UNL     1      -0.139   9.464  20.887  0.00  0.00    +0.000 N 
ATOM     21  H   UNL     1      -1.035   9.756  20.516  0.00  0.00    +0.000 HD
BRANCH  18  22
ATOM     22  C   UNL     1      -0.935  10.421  22.969  0.00  0.00    +0.000 C 
BRANCH  22  23
ATOM     23  C   UNL     1      -1.159  11.936  22.941  0.00  0.00    +0.000 C 
BRANCH  23  24
ATOM     24  C   UNL     1      -2.338  12.330  22.046  0.00  0.00    +0.000 C 
BRANCH  24  29
ATOM     25  C   UNL     1      -6.756  13.642  23.811  0.00  0.00    +0.000 C 
ATOM     26  C   UNL     1      -5.429  13.018  23.656  0.00  0.00    +0.000 A 
ATOM     27  N   UNL     1      -4.917  12.172  24.558  0.00  0.00    +0.000 NA
ATOM     28  O   UNL     1      -3.681  11.827  24.005  0.00  0.00    +0.000 OA
ATOM     29  C   UNL     1      -3.585  12.508  22.826  0.00  0.00    +0.000 A 
ATOM     30  N   UNL     1      -4.633  13.257  22.565  0.00  0.00    +0.000 NA
ENDBRANCH  24  29
ENDBRANCH  23  24
ENDBRANCH  22  23
ENDBRANCH  18  22
ENDBRANCH   1  20
TORSDOF 6
ENDMDL
MODEL 5
REMARK VINA RESULT:      -8.9      5.030      8.106
REMARK  Name = 
REMARK  7 active torsions:
REMARK  status: ('A' for Active; 'I' for Inactive)
REMARK    1  A    between atoms: C_1  and  C_2
REMARK    2  A    between atoms: C_5  and  C_6
REMARK    3  A    between atoms: C_6  and  C_7
REMARK    4  A    between atoms: C_7  and  C_8
REMARK    5  A    between atoms: C_8  and  C_9
REMARK    6  A    between atoms: N_11  and  C_12
REMARK    7  A    between atoms: C_14  and  C_15
REMARK                            x       y       z     vdW  Elec       q    Type
REMARK                         _______ _______ _______ _____ _____    ______ ____
ROOT
ATOM      1  C   UNL     1       2.398   7.263  19.659  0.00  0.00    +0.000 A 
ATOM      2  C   UNL     1       1.621   7.879  20.654  0.00  0.00    +0.000 A 
ATOM      3  C   UNL     1       0.952   9.083  20.383  0.00  0.00    +0.000 A 
ATOM      4  C   UNL     1       1.074   9.647  19.098  0.00  0.00    +0.000 A 
ATOM      5  C   UNL     1       1.780   8.995  18.089  0.00  0.00    +0.000 A 
ATOM      6  C   UNL     1       2.456   7.824  18.383  0.00  0.00    +0.000 A 
ATOM      7  F   UNL     1       3.132   7.197  17.409  0.00  0.00    +0.000 F 
ENDROOT
BRANCH   3   8
ATOM      8  C   UNL     1       0.175   9.737  21.438  0.00  0.00    +0.000 A 
ATOM      9  N   UNL     1       0.023   9.287  22.672  0.00  0.00    +0.000 NA
ATOM     10  N   UNL     1      -0.724  10.187  23.383  0.00  0.00    +0.000 NA
ATOM     11  C   UNL     1      -1.054  11.177  22.583  0.00  0.00    +0.000 A 
ATOM     12  N   UNL     1      -0.550  10.912  21.331  0.00  0.00    +0.000 N 
ATOM     13  C   UNL     1      -0.764  11.683  20.125  0.00  0.00    +0.000 C 
ATOM     14  C   UNL     1      -2.162  12.266  19.986  0.00  0.00    +0.000 C 
ATOM     15  C   UNL     1      -2.358  13.553  20.777  0.00  0.00    +0.000 C 
ATOM     16  C   UNL     1      -1.645  13.609  22.128  0.00  0.00    +0.000 C 
ATOM     17  C   UNL     1      -1.868  12.364  22.979  0.00  0.00    +0.000 C 
ENDBRANCH   3   8
BRANCH   1  20
ATOM     18  C   UNL     1       2.676   4.848  19.569  0.00  0.00    +0.000 C 
ATOM     19  O   UNL     1       1.580   4.635  19.047  0.00  0.00    +0.000 OA
ATOM     20  N   UNL     1       3.151   6.095  19.918  0.00  0.00    +0.000 N 
ATOM     21  H   UNL     1       4.156   6.216  19.907  0.00  0.00    +0.000 HD
BRANCH  18  22
ATOM     22  C   UNL     1       3.656   3.723  19.844  0.00  0.00    +0.000 C 
BRANCH  22  23
ATOM     23  C   UNL     1       4.525   3.414  18.620  0.00  0.00    +0.000 C 
BRANCH  23  24
ATOM     24  C   UNL     1       5.586   4.492  18.378  0.00  0.00    +0.000 C 
BRANCH  24  29
ATOM     25  C   UNL     1       6.281   3.853  13.534  0.00  0.00    +0.000 C 
ATOM     26  C   UNL     1       6.469   4.232  14.947  0.00  0.00    +0.000 A 
ATOM     27  N   UNL     1       7.558   4.873  15.386  0.00  0.00    +0.000 NA
ATOM     28  O   UNL     1       7.303   5.036  16.750  0.00  0.00    +0.000 OA
ATOM     29  C   UNL     1       6.082   4.471  16.982  0.00  0.00    +0.000 A 
ATOM     30  N   UNL     1       5.527   3.960  15.906  0.00  0.00    +0.000 NA
ENDBRANCH  24  29
ENDBRANCH  23  24
ENDBRANCH  22  23
ENDBRANCH  18  22
ENDBRANCH   1  20
TORSDOF 6
ENDMDL
MODEL 6
REMARK VINA RESULT:      -8.7      4.965      8.160
REMARK  Name = 
REMARK  7 active torsions:
REMARK  status: ('A' for Active; 'I' for Inactive)
REMARK    1  A    between atoms: C_1  and  C_2
REMARK    2  A    between atoms: C_5  and  C_6
REMARK    3  A    between atoms: C_6  and  C_7
REMARK    4  A    between atoms: C_7  and  C_8
REMARK    5  A    between atoms: C_8  and  C_9
REMARK    6  A    between atoms: N_11  and  C_12
REMARK    7  A    between atoms: C_14  and  C_15
REMARK                            x       y       z     vdW  Elec       q    Type
REMARK                         _______ _______ _______ _____ _____    ______ ____
ROOT
ATOM      1  C   UNL     1       2.265   6.709  19.932  0.00  0.00    +0.000 A 
ATOM      2  C   UNL     1       1.571   7.488  20.874  0.00  0.00    +0.000 A 
ATOM      3  C   UNL     1       1.115   8.770  20.530  0.00  0.00    +0.000 A 
ATOM      4  C   UNL     1       1.363   9.247  19.228  0.00  0.00    +0.000 A 
ATOM      5  C   UNL     1       1.980   8.444  18.272  0.00  0.00    +0.000 A 
ATOM      6  C   UNL     1       2.449   7.194  18.637  0.00  0.00    +0.000 A 
ATOM      7  F   UNL     1       3.040   6.422  17.713  0.00  0.00    +0.000 F 
ENDROOT
BRANCH   3   8
ATOM      8  C   UNL     1       0.426   9.588  21.531  0.00  0.00    +0.000 A 
ATOM      9  N   UNL     1       0.344   9.317  22.822  0.00  0.00    +0.000 NA
ATOM     10  N   UNL     1      -0.332  10.331  23.446  0.00  0.00    +0.000 NA
ATOM     11  C   UNL     1      -0.688  11.212  22.539  0.00  0.00    +0.000 A 
ATOM     12  N   UNL     1      -0.274  10.762  21.306  0.00  0.00    +0.000 N 
ATOM     13  C   UNL     1      -0.548  11.367  20.021  0.00  0.00    +0.000 C 
ATOM     14  C   UNL     1      -1.936  11.973  19.888  0.00  0.00    +0.000 C 
ATOM     15  C   UNL     1      -2.048  13.363  20.504  0.00  0.00    +0.000 C 
ATOM     16  C   UNL     1      -1.246  13.578  21.788  0.00  0.00    +0.000 C 
ATOM     17  C   UNL     1      -1.444  12.469  22.815  0.00  0.00    +0.000 C 
ENDBRANCH   3   8
BRANCH   1  20
ATOM     18  C   UNL     1       2.038   4.305  20.230  0.00  0.00    +0.000 C 
ATOM     19  O   UNL     1       0.838   4.277  19.951  0.00  0.00    +0.000 OA
ATOM     20  N   UNL     1       2.810   5.448  20.263  0.00  0.00    +0.000 N 
ATOM     21  H   UNL     1       3.796   5.335  20.059  0.00  0.00    +0.000 HD
BRANCH  18  22
ATOM     22  C   UNL     1       2.813   3.037  20.532  0.00  0.00    +0.000 C 
BRANCH  22  23
ATOM     23  C   UNL     1       4.157   3.003  19.797  0.00  0.00    +0.000 C 
BRANCH  23  24
ATOM     24  C   UNL     1       3.984   2.958  18.276  0.00  0.00    +0.000 C 
BRANCH  24  29
ATOM     25  C   UNL     1       7.243   6.454  17.049  0.00  0.00    +0.000 C 
ATOM     26  C   UNL     1       6.179   5.436  16.987  0.00  0.00    +0.000 A 
ATOM     27  N   UNL     1       5.551   5.113  15.850  0.00  0.00    +0.000 NA
ATOM     28  O   UNL     1       4.655   4.119  16.253  0.00  0.00    +0.000 OA
ATOM     29  C   UNL     1       4.843   3.954  17.595  0.00  0.00    +0.000 A 
ATOM     30  N   UNL     1       5.768   4.741  18.096  0.00  0.00    +0.000 NA
ENDBRANCH  24  29
ENDBRANCH  23  24
ENDBRANCH  22  23
ENDBRANCH  18  22
ENDBRANCH   1  20
TORSDOF 6
ENDMDL
MODEL 7
REMARK VINA RESULT:      -8.7      5.275      8.419
REMARK  Name = 
REMARK  7 active torsions:
REMARK  status: ('A' for Active; 'I' for Inactive)
REMARK    1  A    between atoms: C_1  and  C_2
REMARK    2  A    between atoms: C_5  and  C_6
REMARK    3  A    between atoms: C_6  and  C_7
REMARK    4  A    between atoms: C_7  and  C_8
REMARK    5  A    between atoms: C_8  and  C_9
REMARK    6  A    between atoms: N_11  and  C_12
REMARK    7  A    between atoms: C_14  and  C_15
REMARK                            x       y       z     vdW  Elec       q    Type
REMARK                         _______ _______ _______ _____ _____    ______ ____
ROOT
ATOM      1  C   UNL     1       2.141   7.339  19.753  0.00  0.00    +0.000 A 
ATOM      2  C   UNL     1       1.439   8.055  20.737  0.00  0.00    +0.000 A 
ATOM      3  C   UNL     1       0.931   9.332  20.452  0.00  0.00    +0.000 A 
ATOM      4  C   UNL     1       1.136   9.867  19.165  0.00  0.00    +0.000 A 
ATOM      5  C   UNL     1       1.762   9.124  18.167  0.00  0.00    +0.000 A 
ATOM      6  C   UNL     1       2.282   7.879  18.475  0.00  0.00    +0.000 A 
ATOM      7  F   UNL     1       2.883   7.164  17.511  0.00  0.00    +0.000 F 
ENDROOT
BRANCH   3   8
ATOM      8  C   UNL     1       0.233  10.087  21.495  0.00  0.00    +0.000 A 
ATOM      9  N   UNL     1       0.265   9.819  22.790  0.00  0.00    +0.000 NA
ATOM     10  N   UNL     1      -0.464  10.766  23.457  0.00  0.00    +0.000 NA
ATOM     11  C   UNL     1      -0.965  11.602  22.574  0.00  0.00    +0.000 A 
ATOM     12  N   UNL     1      -0.592  11.185  21.317  0.00  0.00    +0.000 N 
ATOM     13  C   UNL     1      -1.009  11.751  20.052  0.00  0.00    +0.000 C 
ATOM     14  C   UNL     1      -2.456  12.217  20.012  0.00  0.00    +0.000 C 
ATOM     15  C   UNL     1      -2.662  13.593  20.633  0.00  0.00    +0.000 C 
ATOM     16  C   UNL     1      -1.802  13.896  21.860  0.00  0.00    +0.000 C 
ATOM     17  C   UNL     1      -1.821  12.781  22.899  0.00  0.00    +0.000 C 
ENDBRANCH   3   8
BRANCH   1  20
ATOM     18  C   UNL     1       1.972   4.992  20.371  0.00  0.00    +0.000 C 
ATOM     19  O   UNL     1       0.747   5.004  20.500  0.00  0.00    +0.000 OA
ATOM     20  N   UNL     1       2.737   6.086  20.026  0.00  0.00    +0.000 N 
ATOM     21  H   UNL     1       3.598   5.898  19.527  0.00  0.00    +0.000 HD
BRANCH  18  22
ATOM     22  C   UNL     1       2.775   3.716  20.542  0.00  0.00    +0.000 C 
BRANCH  22  23
ATOM     23  C   UNL     1       2.569   2.753  19.368  0.00  0.00    +0.000 C 
BRANCH  23  24
ATOM     24  C   UNL     1       3.878   2.450  18.632  0.00  0.00    +0.000 C 
BRANCH  24  29
ATOM     25  C   UNL     1       6.067   6.679  17.337  0.00  0.00    +0.000 C 
ATOM     26  C   UNL     1       5.730   5.421  18.028  0.00  0.00    +0.000 A 
ATOM     27  N   UNL     1       6.418   4.967  19.082  0.00  0.00    +0.000 NA
ATOM     28  O   UNL     1       5.751   3.783  19.411  0.00  0.00    +0.000 OA
ATOM     29  C   UNL     1       4.732   3.655  18.512  0.00  0.00    +0.000 A 
ATOM     30  N   UNL     1       4.676   4.635  17.638  0.00  0.00    +0.000 NA
ENDBRANCH  24  29
ENDBRANCH  23  24
ENDBRANCH  22  23
ENDBRANCH  18  22
ENDBRANCH   1  20
TORSDOF 6
ENDMDL
MODEL 8
REMARK VINA RESULT:      -8.6      3.924      6.549
REMARK  Name = 
REMARK  7 active torsions:
REMARK  status: ('A' for Active; 'I' for Inactive)
REMARK    1  A    between atoms: C_1  and  C_2
REMARK    2  A    between atoms: C_5  and  C_6
REMARK    3  A    between atoms: C_6  and  C_7
REMARK    4  A    between atoms: C_7  and  C_8
REMARK    5  A    between atoms: C_8  and  C_9
REMARK    6  A    between atoms: N_11  and  C_12
REMARK    7  A    between atoms: C_14  and  C_15
REMARK                            x       y       z     vdW  Elec       q    Type
REMARK                         _______ _______ _______ _____ _____    ______ ____
ROOT
ATOM      1  C   UNL     1       3.551   5.163  18.897  0.00  0.00    +0.000 A 
ATOM      2  C   UNL     1       3.134   6.498  18.763  0.00  0.00    +0.000 A 
ATOM      3  C   UNL     1       2.177   7.030  19.640  0.00  0.00    +0.000 A 
ATOM      4  C   UNL     1       1.655   6.200  20.652  0.00  0.00    +0.000 A 
ATOM      5  C   UNL     1       2.127   4.902  20.834  0.00  0.00    +0.000 A 
ATOM      6  C   UNL     1       3.050   4.385  19.941  0.00  0.00    +0.000 A 
ATOM      7  F   UNL     1       3.505   3.136  20.120  0.00  0.00    +0.000 F 
ENDROOT
BRANCH   3   8
ATOM      8  C   UNL     1       1.722   8.411  19.469  0.00  0.00    +0.000 A 
ATOM      9  N   UNL     1       2.012   9.195  18.444  0.00  0.00    +0.000 NA
ATOM     10  N   UNL     1       1.370  10.393  18.607  0.00  0.00    +0.000 NA
ATOM     11  C   UNL     1       0.705  10.358  19.740  0.00  0.00    +0.000 A 
ATOM     12  N   UNL     1       0.937   9.143  20.344  0.00  0.00    +0.000 N 
ATOM     13  C   UNL     1       0.487   8.722  21.654  0.00  0.00    +0.000 C 
ATOM     14  C   UNL     1       0.504   9.814  22.711  0.00  0.00    +0.000 C 
ATOM     15  C   UNL     1      -0.713  10.730  22.650  0.00  0.00    +0.000 C 
ATOM     16  C   UNL     1      -1.228  11.043  21.245  0.00  0.00    +0.000 C 
ATOM     17  C   UNL     1      -0.128  11.472  20.281  0.00  0.00    +0.000 C 
ENDBRANCH   3   8
BRANCH   1  20
ATOM     18  C   UNL     1       3.999   3.783  16.944  0.00  0.00    +0.000 C 
ATOM     19  O   UNL     1       2.816   3.510  16.735  0.00  0.00    +0.000 OA
ATOM     20  N   UNL     1       4.452   4.567  17.984  0.00  0.00    +0.000 N 
ATOM     21  H   UNL     1       5.310   5.081  17.825  0.00  0.00    +0.000 HD
BRANCH  18  22
ATOM     22  C   UNL     1       5.101   3.301  16.020  0.00  0.00    +0.000 C 
BRANCH  22  23
ATOM     23  C   UNL     1       5.465   4.357  14.971  0.00  0.00    +0.000 C 
BRANCH  23  24
ATOM     24  C   UNL     1       6.933   4.783  15.066  0.00  0.00    +0.000 C 
BRANCH  24  29
ATOM     25  C   UNL     1       8.154   5.749  19.749  0.00  0.00    +0.000 C 
ATOM     26  C   UNL     1       7.728   5.895  18.346  0.00  0.00    +0.000 A 
ATOM     27  N   UNL     1       7.420   7.078  17.802  0.00  0.00    +0.000 NA
ATOM     28  O   UNL     1       7.096   6.748  16.483  0.00  0.00    +0.000 OA
ATOM     29  C   UNL     1       7.244   5.395  16.379  0.00  0.00    +0.000 A 
ATOM     30  N   UNL     1       7.630   4.822  17.497  0.00  0.00    +0.000 NA
ENDBRANCH  24  29
ENDBRANCH  23  24
ENDBRANCH  22  23
ENDBRANCH  18  22
ENDBRANCH   1  20
TORSDOF 6
ENDMDL
MODEL 9
REMARK VINA RESULT:      -8.6      1.624      1.880
REMARK  Name = 
REMARK  7 active torsions:
REMARK  status: ('A' for Active; 'I' for Inactive)
REMARK    1  A    between atoms: C_1  and  C_2
REMARK    2  A    between atoms: C_5  and  C_6
REMARK    3  A    between atoms: C_6  and  C_7
REMARK    4  A    between atoms: C_7  and  C_8
REMARK    5  A    between atoms: C_8  and  C_9
REMARK    6  A    between atoms: N_11  and  C_12
REMARK    7  A    between atoms: C_14  and  C_15
REMARK                            x       y       z     vdW  Elec       q    Type
REMARK                         _______ _______ _______ _____ _____    ______ ____
ROOT
ATOM      1  C   UNL     1       6.116   6.073  16.479  0.00  0.00    +0.000 A 
ATOM      2  C   UNL     1       4.963   5.537  17.074  0.00  0.00    +0.000 A 
ATOM      3  C   UNL     1       4.546   4.234  16.758  0.00  0.00    +0.000 A 
ATOM      4  C   UNL     1       5.311   3.485  15.843  0.00  0.00    +0.000 A 
ATOM      5  C   UNL     1       6.497   3.989  15.314  0.00  0.00    +0.000 A 
ATOM      6  C   UNL     1       6.877   5.286  15.615  0.00  0.00    +0.000 A 
ATOM      7  F   UNL     1       8.021   5.767  15.106  0.00  0.00    +0.000 F 
ENDROOT
BRANCH   3   8
ATOM      8  C   UNL     1       3.321   3.698  17.356  0.00  0.00    +0.000 A 
ATOM      9  N   UNL     1       2.337   3.111  16.698  0.00  0.00    +0.000 NA
ATOM     10  N   UNL     1       1.388   2.697  17.594  0.00  0.00    +0.000 NA
ATOM     11  C   UNL     1       1.775   3.049  18.800  0.00  0.00    +0.000 A 
ATOM     12  N   UNL     1       2.967   3.727  18.695  0.00  0.00    +0.000 N 
ATOM     13  C   UNL     1       3.694   4.381  19.763  0.00  0.00    +0.000 C 
ATOM     14  C   UNL     1       2.817   5.073  20.795  0.00  0.00    +0.000 C 
ATOM     15  C   UNL     1       2.252   4.119  21.840  0.00  0.00    +0.000 C 
ATOM     16  C   UNL     1       1.865   2.733  21.323  0.00  0.00    +0.000 C 
ATOM     17  C   UNL     1       1.017   2.778  20.057  0.00  0.00    +0.000 C 
ENDBRANCH   3   8
BRANCH   1  20
ATOM     18  C   UNL     1       7.462   7.712  17.672  0.00  0.00    +0.000 C 
ATOM     19  O   UNL     1       7.996   6.888  18.417  0.00  0.00    +0.000 OA
ATOM     20  N   UNL     1       6.523   7.408  16.709  0.00  0.00    +0.000 N 
ATOM     21  H   UNL     1       6.490   8.016  15.900  0.00  0.00    +0.000 HD
BRANCH  18  22
ATOM     22  C   UNL     1       7.837   9.181  17.716  0.00  0.00    +0.000 C 
BRANCH  22  23
ATOM     23  C   UNL     1       8.871   9.471  18.809  0.00  0.00    +0.000 C 
BRANCH  23  24
ATOM     24  C   UNL     1       9.877  10.544  18.384  0.00  0.00    +0.000 C 
BRANCH  24  29
ATOM     25  C   UNL     1       8.216  14.677  20.508  0.00  0.00    +0.000 C 
ATOM     26  C   UNL     1       8.676  13.692  19.513  0.00  0.00    +0.000 A 
ATOM     27  N   UNL     1       8.768  13.969  18.207  0.00  0.00    +0.000 NA
ATOM     28  O   UNL     1       9.250  12.776  17.662  0.00  0.00    +0.000 OA
ATOM     29  C   UNL     1       9.394  11.908  18.705  0.00  0.00    +0.000 A 
ATOM     30  N   UNL     1       9.053  12.421  19.866  0.00  0.00    +0.000 NA
ENDBRANCH  24  29
ENDBRANCH  23  24
ENDBRANCH  22  23
ENDBRANCH  18  22
ENDBRANCH   1  20
TORSDOF 6
ENDMDL
