MODEL 1
REMARK VINA RESULT:      -8.6      0.000      0.000
REMARK  Name = 
REMARK  2 active torsions:
REMARK  status: ('A' for Active; 'I' for Inactive)
REMARK    1  A    between atoms: N_4  and  C_5
REMARK    2  A    between atoms: N_13  and  C_14
REMARK                            x       y       z     vdW  Elec       q    Type
REMARK                         _______ _______ _______ _____ _____    ______ ____
ROOT
ATOM      1  C   UNL     1       2.589   6.705  19.405  0.00  0.00    +0.000 A 
ATOM      2  N   UNL     1       2.063   6.503  20.637  0.00  0.00    +0.000 NA
ATOM      3  C   UNL     1       1.282   7.443  21.196  0.00  0.00    +0.000 A 
ATOM      4  N   UNL     1       0.952   8.633  20.693  0.00  0.00    +0.000 NA
ATOM      5  C   UNL     1       1.485   8.837  19.470  0.00  0.00    +0.000 A 
ATOM      6  C   UNL     1       2.279   7.932  18.784  0.00  0.00    +0.000 A 
ATOM      7  C   UNL     1       2.522   8.554  17.548  0.00  0.00    +0.000 A 
ATOM      8  N   UNL     1       1.979   9.766  17.449  0.00  0.00    +0.000 NA
ATOM      9  N   UNL     1       1.345   9.953  18.647  0.00  0.00    +0.000 N 
ENDROOT
BRANCH   1  13
ATOM     10  O   UNL     1       6.905   5.061  19.409  0.00  0.00    +0.000 OA
ATOM     11  C   UNL     1       5.719   4.866  19.144  0.00  0.00    +0.000 C 
ATOM     12  C   UNL     1       4.801   5.987  18.637  0.00  0.00    +0.000 C 
ATOM     13  N   UNL     1       3.359   5.723  18.818  0.00  0.00    +0.000 N 
ATOM     14  C   UNL     1       2.922   4.335  18.565  0.00  0.00    +0.000 C 
ATOM     15  C   UNL     1       1.429   4.030  18.761  0.00  0.00    +0.000 C 
ATOM     16  C   UNL     1       1.102   2.574  18.434  0.00  0.00    +0.000 C 
ATOM     17  C   UNL     1       1.964   1.622  19.257  0.00  0.00    +0.000 C 
ATOM     18  C   UNL     1       3.448   1.903  19.055  0.00  0.00    +0.000 C 
ATOM     19  C   UNL     1       3.792   3.358  19.394  0.00  0.00    +0.000 C 
ATOM     20  N   UNL     1       5.216   3.590  19.196  0.00  0.00    +0.000 N 
ATOM     21  H   UNL     1       5.874   2.936  19.603  0.00  0.00    +0.000 HD
ENDBRANCH   1  13
BRANCH   9  22
ATOM     22  C   UNL     1       0.659  11.180  18.897  0.00  0.00    +0.000 A 
ATOM     23  C   UNL     1      -0.737  11.231  18.741  0.00  0.00    +0.000 A 
ATOM     24  C   UNL     1      -1.433  12.413  18.996  0.00  0.00    +0.000 A 
ATOM     25  C   UNL     1      -0.745  13.554  19.402  0.00  0.00    +0.000 A 
ATOM     26  C   UNL     1       0.639  13.517  19.547  0.00  0.00    +0.000 A 
ATOM     27  C   UNL     1       1.342  12.336  19.295  0.00  0.00    +0.000 A 
ENDBRANCH   9  22
TORSDOF 2
ENDMDL
MODEL 2
REMARK VINA RESULT:      -8.6      1.622      2.515
REMARK  Name = 
REMARK  2 active torsions:
REMARK  status: ('A' for Active; 'I' for Inactive)
REMARK    1  A    between atoms: N_4  and  C_5
REMARK    2  A    between atoms: N_13  and  C_14
REMARK                            x       y       z     vdW  Elec       q    Type
REMARK                         _______ _______ _______ _____ _____    ______ ____
ROOT
ATOM      1  C   UNL     1       2.984   7.015  18.252  0.00  0.00    +0.000 A 
ATOM      2  N   UNL     1       2.954   7.948  17.271  0.00  0.00    +0.000 NA
ATOM      3  C   UNL     1       2.286   9.099  17.460  0.00  0.00    +0.000 A 
ATOM      4  N   UNL     1       1.582   9.467  18.531  0.00  0.00    +0.000 NA
ATOM      5  C   UNL     1       1.604   8.532  19.504  0.00  0.00    +0.000 A 
ATOM      6  C   UNL     1       2.279   7.324  19.434  0.00  0.00    +0.000 A 
ATOM      7  C   UNL     1       2.070   6.738  20.694  0.00  0.00    +0.000 A 
ATOM      8  N   UNL     1       1.298   7.469  21.495  0.00  0.00    +0.000 NA
ATOM      9  N   UNL     1       0.993   8.578  20.755  0.00  0.00    +0.000 N 
ENDROOT
BRANCH   1  13
ATOM     10  O   UNL     1       7.046   5.103  19.339  0.00  0.00    +0.000 OA
ATOM     11  C   UNL     1       5.886   4.936  18.961  0.00  0.00    +0.000 C 
ATOM     12  C   UNL     1       5.174   5.938  18.042  0.00  0.00    +0.000 C 
ATOM     13  N   UNL     1       3.700   5.851  18.070  0.00  0.00    +0.000 N 
ATOM     14  C   UNL     1       3.138   4.486  18.134  0.00  0.00    +0.000 C 
ATOM     15  C   UNL     1       1.606   4.367  18.178  0.00  0.00    +0.000 C 
ATOM     16  C   UNL     1       1.154   2.908  18.206  0.00  0.00    +0.000 C 
ATOM     17  C   UNL     1       1.791   2.161  19.373  0.00  0.00    +0.000 C 
ATOM     18  C   UNL     1       3.312   2.256  19.327  0.00  0.00    +0.000 C 
ATOM     19  C   UNL     1       3.780   3.715  19.313  0.00  0.00    +0.000 C 
ATOM     20  N   UNL     1       5.235   3.770  19.275  0.00  0.00    +0.000 N 
ATOM     21  H   UNL     1       5.757   3.207  19.936  0.00  0.00    +0.000 HD
ENDBRANCH   1  13
BRANCH   9  22
ATOM     22  C   UNL     1       0.148   9.586  21.311  0.00  0.00    +0.000 A 
ATOM     23  C   UNL     1      -0.221   9.504  22.665  0.00  0.00    +0.000 A 
ATOM     24  C   UNL     1      -1.032  10.485  23.236  0.00  0.00    +0.000 A 
ATOM     25  C   UNL     1      -1.487  11.551  22.464  0.00  0.00    +0.000 A 
ATOM     26  C   UNL     1      -1.138  11.634  21.119  0.00  0.00    +0.000 A 
ATOM     27  C   UNL     1      -0.325  10.656  20.541  0.00  0.00    +0.000 A 
ENDBRANCH   9  22
TORSDOF 2
ENDMDL
MODEL 3
REMARK VINA RESULT:      -7.7      2.369      3.678
REMARK  Name = 
REMARK  2 active torsions:
REMARK  status: ('A' for Active; 'I' for Inactive)
REMARK    1  A    between atoms: N_4  and  C_5
REMARK    2  A    between atoms: N_13  and  C_14
REMARK                            x       y       z     vdW  Elec       q    Type
REMARK                         _______ _______ _______ _____ _____    ______ ____
ROOT
ATOM      1  C   UNL     1       2.391   7.333  18.722  0.00  0.00    +0.000 A 
ATOM      2  N   UNL     1       2.376   8.103  17.608  0.00  0.00    +0.000 NA
ATOM      3  C   UNL     1       1.886   9.352  17.662  0.00  0.00    +0.000 A 
ATOM      4  N   UNL     1       1.352   9.974  18.715  0.00  0.00    +0.000 NA
ATOM      5  C   UNL     1       1.358   9.202  19.822  0.00  0.00    +0.000 A 
ATOM      6  C   UNL     1       1.861   7.913  19.893  0.00  0.00    +0.000 A 
ATOM      7  C   UNL     1       1.714   7.559  21.245  0.00  0.00    +0.000 A 
ATOM      8  N   UNL     1       1.132   8.505  21.979  0.00  0.00    +0.000 NA
ATOM      9  N   UNL     1       0.895   9.523  21.096  0.00  0.00    +0.000 N 
ENDROOT
BRANCH   1  13
ATOM     10  O   UNL     1       1.144   2.941  18.019  0.00  0.00    +0.000 OA
ATOM     11  C   UNL     1       2.052   3.772  18.050  0.00  0.00    +0.000 C 
ATOM     12  C   UNL     1       2.067   4.928  19.059  0.00  0.00    +0.000 C 
ATOM     13  N   UNL     1       2.928   6.064  18.672  0.00  0.00    +0.000 N 
ATOM     14  C   UNL     1       4.217   5.708  18.043  0.00  0.00    +0.000 C 
ATOM     15  C   UNL     1       5.127   6.872  17.618  0.00  0.00    +0.000 C 
ATOM     16  C   UNL     1       6.439   6.372  17.016  0.00  0.00    +0.000 C 
ATOM     17  C   UNL     1       6.179   5.429  15.845  0.00  0.00    +0.000 C 
ATOM     18  C   UNL     1       5.293   4.260  16.262  0.00  0.00    +0.000 C 
ATOM     19  C   UNL     1       3.967   4.748  16.854  0.00  0.00    +0.000 C 
ATOM     20  N   UNL     1       3.144   3.608  17.235  0.00  0.00    +0.000 N 
ATOM     21  H   UNL     1       3.012   2.862  16.564  0.00  0.00    +0.000 HD
ENDBRANCH   1  13
BRANCH   9  22
ATOM     22  C   UNL     1       0.250  10.713  21.549  0.00  0.00    +0.000 A 
ATOM     23  C   UNL     1      -0.755  10.620  22.528  0.00  0.00    +0.000 A 
ATOM     24  C   UNL     1      -1.389  11.769  23.001  0.00  0.00    +0.000 A 
ATOM     25  C   UNL     1      -1.033  13.019  22.498  0.00  0.00    +0.000 A 
ATOM     26  C   UNL     1      -0.048  13.120  21.520  0.00  0.00    +0.000 A 
ATOM     27  C   UNL     1       0.591  11.973  21.044  0.00  0.00    +0.000 A 
ENDBRANCH   9  22
TORSDOF 2
ENDMDL
MODEL 4
REMARK VINA RESULT:      -7.5      2.965      8.282
REMARK  Name = 
REMARK  2 active torsions:
REMARK  status: ('A' for Active; 'I' for Inactive)
REMARK    1  A    between atoms: N_4  and  C_5
REMARK    2  A    between atoms: N_13  and  C_14
REMARK                            x       y       z     vdW  Elec       q    Type
REMARK                         _______ _______ _______ _____ _____    ______ ____
ROOT
ATOM      1  C   UNL     1       0.506  10.010  19.731  0.00  0.00    +0.000 A 
ATOM      2  N   UNL     1       0.372   9.835  21.067  0.00  0.00    +0.000 NA
ATOM      3  C   UNL     1       0.974   8.797  21.671  0.00  0.00    +0.000 A 
ATOM      4  N   UNL     1       1.708   7.838  21.104  0.00  0.00    +0.000 NA
ATOM      5  C   UNL     1       1.832   8.008  19.772  0.00  0.00    +0.000 A 
ATOM      6  C   UNL     1       1.281   9.052  19.046  0.00  0.00    +0.000 A 
ATOM      7  C   UNL     1       1.741   8.841  17.735  0.00  0.00    +0.000 A 
ATOM      8  N   UNL     1       2.482   7.743  17.604  0.00  0.00    +0.000 NA
ATOM      9  N   UNL     1       2.530   7.213  18.865  0.00  0.00    +0.000 N 
ENDROOT
BRANCH   1  13
ATOM     10  O   UNL     1      -3.390  12.490  19.811  0.00  0.00    +0.000 OA
ATOM     11  C   UNL     1      -2.204  12.428  19.488  0.00  0.00    +0.000 C 
ATOM     12  C   UNL     1      -1.555  11.122  19.011  0.00  0.00    +0.000 C 
ATOM     13  N   UNL     1      -0.083  11.097  19.119  0.00  0.00    +0.000 N 
ATOM     14  C   UNL     1       0.609  12.355  18.768  0.00  0.00    +0.000 C 
ATOM     15  C   UNL     1       2.141  12.361  18.885  0.00  0.00    +0.000 C 
ATOM     16  C   UNL     1       2.735  13.703  18.461  0.00  0.00    +0.000 C 
ATOM     17  C   UNL     1       2.123  14.849  19.262  0.00  0.00    +0.000 C 
ATOM     18  C   UNL     1       0.604  14.863  19.135  0.00  0.00    +0.000 C 
ATOM     19  C   UNL     1      -0.005  13.527  19.572  0.00  0.00    +0.000 C 
ATOM     20  N   UNL     1      -1.455  13.577  19.445  0.00  0.00    +0.000 N 
ATOM     21  H   UNL     1      -1.947  14.369  19.839  0.00  0.00    +0.000 HD
ENDBRANCH   1  13
BRANCH   9  22
ATOM     22  C   UNL     1       3.241   5.996  19.091  0.00  0.00    +0.000 A 
ATOM     23  C   UNL     1       2.546   4.876  19.581  0.00  0.00    +0.000 A 
ATOM     24  C   UNL     1       3.214   3.669  19.795  0.00  0.00    +0.000 A 
ATOM     25  C   UNL     1       4.578   3.570  19.529  0.00  0.00    +0.000 A 
ATOM     26  C   UNL     1       5.276   4.677  19.056  0.00  0.00    +0.000 A 
ATOM     27  C   UNL     1       4.614   5.888  18.838  0.00  0.00    +0.000 A 
ENDBRANCH   9  22
TORSDOF 2
ENDMDL
MODEL 5
REMARK VINA RESULT:      -7.5      2.322      3.771
REMARK  Name = 
REMARK  2 active torsions:
REMARK  status: ('A' for Active; 'I' for Inactive)
REMARK    1  A    between atoms: N_4  and  C_5
REMARK    2  A    between atoms: N_13  and  C_14
REMARK                            x       y       z     vdW  Elec       q    Type
REMARK                         _______ _______ _______ _____ _____    ______ ____
ROOT
ATOM      1  C   UNL     1       2.770   6.972  18.537  0.00  0.00    +0.000 A 
ATOM      2  N   UNL     1       2.857   7.833  17.495  0.00  0.00    +0.000 NA
ATOM      3  C   UNL     1       2.271   9.039  17.570  0.00  0.00    +0.000 A 
ATOM      4  N   UNL     1       1.547   9.533  18.576  0.00  0.00    +0.000 NA
ATOM      5  C   UNL     1       1.454   8.671  19.610  0.00  0.00    +0.000 A 
ATOM      6  C   UNL     1       2.037   7.415  19.657  0.00  0.00    +0.000 A 
ATOM      7  C   UNL     1       1.726   6.938  20.942  0.00  0.00    +0.000 A 
ATOM      8  N   UNL     1       0.975   7.778  21.650  0.00  0.00    +0.000 NA
ATOM      9  N   UNL     1       0.791   8.851  20.822  0.00  0.00    +0.000 N 
ENDROOT
BRANCH   1  13
ATOM     10  O   UNL     1       1.950   2.572  17.396  0.00  0.00    +0.000 OA
ATOM     11  C   UNL     1       2.783   3.456  17.595  0.00  0.00    +0.000 C 
ATOM     12  C   UNL     1       2.589   4.533  18.671  0.00  0.00    +0.000 C 
ATOM     13  N   UNL     1       3.403   5.749  18.471  0.00  0.00    +0.000 N 
ATOM     14  C   UNL     1       4.781   5.528  17.987  0.00  0.00    +0.000 C 
ATOM     15  C   UNL     1       5.646   6.777  17.756  0.00  0.00    +0.000 C 
ATOM     16  C   UNL     1       7.054   6.412  17.292  0.00  0.00    +0.000 C 
ATOM     17  C   UNL     1       7.009   5.544  16.038  0.00  0.00    +0.000 C 
ATOM     18  C   UNL     1       6.169   4.291  16.263  0.00  0.00    +0.000 C 
ATOM     19  C   UNL     1       4.749   4.644  16.715  0.00  0.00    +0.000 C 
ATOM     20  N   UNL     1       3.974   3.427  16.915  0.00  0.00    +0.000 N 
ATOM     21  H   UNL     1       3.980   2.726  16.184  0.00  0.00    +0.000 HD
ENDBRANCH   1  13
BRANCH   9  22
ATOM     22  C   UNL     1      -0.000   9.955  21.263  0.00  0.00    +0.000 A 
ATOM     23  C   UNL     1      -0.392  10.934  20.334  0.00  0.00    +0.000 A 
ATOM     24  C   UNL     1      -1.180  12.014  20.736  0.00  0.00    +0.000 A 
ATOM     25  C   UNL     1      -1.577  12.131  22.065  0.00  0.00    +0.000 A 
ATOM     26  C   UNL     1      -1.183  11.173  22.995  0.00  0.00    +0.000 A 
ATOM     27  C   UNL     1      -0.397  10.089  22.600  0.00  0.00    +0.000 A 
ENDBRANCH   9  22
TORSDOF 2
ENDMDL
MODEL 6
REMARK VINA RESULT:      -7.5      2.942      7.584
REMARK  Name = 
REMARK  2 active torsions:
REMARK  status: ('A' for Active; 'I' for Inactive)
REMARK    1  A    between atoms: N_4  and  C_5
REMARK    2  A    between atoms: N_13  and  C_14
REMARK                            x       y       z     vdW  Elec       q    Type
REMARK                         _______ _______ _______ _____ _____    ______ ____
ROOT
ATOM      1  C   UNL     1       0.213   9.861  19.910  0.00  0.00    +0.000 A 
ATOM      2  N   UNL     1       0.130   9.388  21.176  0.00  0.00    +0.000 NA
ATOM      3  C   UNL     1       0.895   8.352  21.558  0.00  0.00    +0.000 A 
ATOM      4  N   UNL     1       1.761   7.661  20.815  0.00  0.00    +0.000 NA
ATOM      5  C   UNL     1       1.836   8.127  19.551  0.00  0.00    +0.000 A 
ATOM      6  C   UNL     1       1.118   9.202  19.052  0.00  0.00    +0.000 A 
ATOM      7  C   UNL     1       1.584   9.347  17.734  0.00  0.00    +0.000 A 
ATOM      8  N   UNL     1       2.485   8.430  17.388  0.00  0.00    +0.000 NA
ATOM      9  N   UNL     1       2.635   7.660  18.509  0.00  0.00    +0.000 N 
ENDROOT
BRANCH   1  13
ATOM     10  O   UNL     1       0.673  14.242  18.520  0.00  0.00    +0.000 OA
ATOM     11  C   UNL     1      -0.044  13.243  18.590  0.00  0.00    +0.000 C 
ATOM     12  C   UNL     1      -0.011  12.297  19.798  0.00  0.00    +0.000 C 
ATOM     13  N   UNL     1      -0.547  10.947  19.531  0.00  0.00    +0.000 N 
ATOM     14  C   UNL     1      -1.745  10.890  18.669  0.00  0.00    +0.000 C 
ATOM     15  C   UNL     1      -2.315   9.496  18.363  0.00  0.00    +0.000 C 
ATOM     16  C   UNL     1      -3.568   9.576  17.494  0.00  0.00    +0.000 C 
ATOM     17  C   UNL     1      -3.293  10.346  16.206  0.00  0.00    +0.000 C 
ATOM     18  C   UNL     1      -2.746  11.738  16.499  0.00  0.00    +0.000 C 
ATOM     19  C   UNL     1      -1.479  11.671  17.358  0.00  0.00    +0.000 C 
ATOM     20  N   UNL     1      -0.981  13.015  17.614  0.00  0.00    +0.000 N 
ATOM     21  H   UNL     1      -0.880  13.650  16.831  0.00  0.00    +0.000 HD
ENDBRANCH   1  13
BRANCH   9  22
ATOM     22  C   UNL     1       3.530   6.548  18.486  0.00  0.00    +0.000 A 
ATOM     23  C   UNL     1       4.596   6.543  17.569  0.00  0.00    +0.000 A 
ATOM     24  C   UNL     1       5.495   5.477  17.537  0.00  0.00    +0.000 A 
ATOM     25  C   UNL     1       5.337   4.405  18.412  0.00  0.00    +0.000 A 
ATOM     26  C   UNL     1       4.278   4.394  19.315  0.00  0.00    +0.000 A 
ATOM     27  C   UNL     1       3.375   5.459  19.353  0.00  0.00    +0.000 A 
ENDBRANCH   9  22
TORSDOF 2
ENDMDL
MODEL 7
REMARK VINA RESULT:      -7.5      2.351      3.604
REMARK  Name = 
REMARK  2 active torsions:
REMARK  status: ('A' for Active; 'I' for Inactive)
REMARK    1  A    between atoms: N_4  and  C_5
REMARK    2  A    between atoms: N_13  and  C_14
REMARK                            x       y       z     vdW  Elec       q    Type
REMARK                         _______ _______ _______ _____ _____    ______ ____
ROOT
ATOM      1  C   UNL     1       1.889   7.820  19.366  0.00  0.00    +0.000 A 
ATOM      2  N   UNL     1       1.677   8.356  18.141  0.00  0.00    +0.000 NA
ATOM      3  C   UNL     1       1.119   9.573  18.028  0.00  0.00    +0.000 A 
ATOM      4  N   UNL     1       0.692  10.368  19.010  0.00  0.00    +0.000 NA
ATOM      5  C   UNL     1       0.896   9.829  20.230  0.00  0.00    +0.000 A 
ATOM      6  C   UNL     1       1.485   8.598  20.470  0.00  0.00    +0.000 A 
ATOM      7  C   UNL     1       1.543   8.511  21.872  0.00  0.00    +0.000 A 
ATOM      8  N   UNL     1       1.005   9.560  22.490  0.00  0.00    +0.000 NA
ATOM      9  N   UNL     1       0.587  10.376  21.474  0.00  0.00    +0.000 N 
ENDROOT
BRANCH   1  13
ATOM     10  O   UNL     1       0.862   3.382  20.135  0.00  0.00    +0.000 OA
ATOM     11  C   UNL     1       1.675   4.203  19.707  0.00  0.00    +0.000 C 
ATOM     12  C   UNL     1       1.865   5.580  20.356  0.00  0.00    +0.000 C 
ATOM     13  N   UNL     1       2.496   6.587  19.480  0.00  0.00    +0.000 N 
ATOM     14  C   UNL     1       3.594   6.095  18.623  0.00  0.00    +0.000 C 
ATOM     15  C   UNL     1       4.259   7.119  17.689  0.00  0.00    +0.000 C 
ATOM     16  C   UNL     1       5.398   6.494  16.886  0.00  0.00    +0.000 C 
ATOM     17  C   UNL     1       4.913   5.279  16.102  0.00  0.00    +0.000 C 
ATOM     18  C   UNL     1       4.269   4.248  17.022  0.00  0.00    +0.000 C 
ATOM     19  C   UNL     1       3.114   4.858  17.823  0.00  0.00    +0.000 C 
ATOM     20  N   UNL     1       2.519   3.846  18.685  0.00  0.00    +0.000 N 
ATOM     21  H   UNL     1       2.274   2.951  18.281  0.00  0.00    +0.000 HD
ENDBRANCH   1  13
BRANCH   9  22
ATOM     22  C   UNL     1      -0.066  11.607  21.782  0.00  0.00    +0.000 A 
ATOM     23  C   UNL     1      -1.177  11.598  22.644  0.00  0.00    +0.000 A 
ATOM     24  C   UNL     1      -1.823  12.790  22.975  0.00  0.00    +0.000 A 
ATOM     25  C   UNL     1      -1.374  13.997  22.446  0.00  0.00    +0.000 A 
ATOM     26  C   UNL     1      -0.283  14.014  21.582  0.00  0.00    +0.000 A 
ATOM     27  C   UNL     1       0.370  12.826  21.248  0.00  0.00    +0.000 A 
ENDBRANCH   9  22
TORSDOF 2
ENDMDL
MODEL 8
REMARK VINA RESULT:      -7.5      2.981      8.332
REMARK  Name = 
REMARK  2 active torsions:
REMARK  status: ('A' for Active; 'I' for Inactive)
REMARK    1  A    between atoms: N_4  and  C_5
REMARK    2  A    between atoms: N_13  and  C_14
REMARK                            x       y       z     vdW  Elec       q    Type
REMARK                         _______ _______ _______ _____ _____    ______ ____
ROOT
ATOM      1  C   UNL     1       0.439  10.031  19.834  0.00  0.00    +0.000 A 
ATOM      2  N   UNL     1       0.183   9.597  21.090  0.00  0.00    +0.000 NA
ATOM      3  C   UNL     1       0.716   8.442  21.523  0.00  0.00    +0.000 A 
ATOM      4  N   UNL     1       1.488   7.594  20.840  0.00  0.00    +0.000 NA
ATOM      5  C   UNL     1       1.733   8.023  19.585  0.00  0.00    +0.000 A 
ATOM      6  C   UNL     1       1.263   9.207  19.040  0.00  0.00    +0.000 A 
ATOM      7  C   UNL     1       1.837   9.248  17.757  0.00  0.00    +0.000 A 
ATOM      8  N   UNL     1       2.574   8.177  17.473  0.00  0.00    +0.000 NA
ATOM      9  N   UNL     1       2.502   7.405  18.600  0.00  0.00    +0.000 N 
ENDROOT
BRANCH   1  13
ATOM     10  O   UNL     1      -3.610  12.146  19.147  0.00  0.00    +0.000 OA
ATOM     11  C   UNL     1      -2.394  12.255  19.307  0.00  0.00    +0.000 C 
ATOM     12  C   UNL     1      -1.401  11.228  18.746  0.00  0.00    +0.000 C 
ATOM     13  N   UNL     1      -0.079  11.235  19.404  0.00  0.00    +0.000 N 
ATOM     14  C   UNL     1       0.460  12.566  19.751  0.00  0.00    +0.000 C 
ATOM     15  C   UNL     1       1.828  12.602  20.450  0.00  0.00    +0.000 C 
ATOM     16  C   UNL     1       2.287  14.033  20.721  0.00  0.00    +0.000 C 
ATOM     17  C   UNL     1       1.243  14.798  21.529  0.00  0.00    +0.000 C 
ATOM     18  C   UNL     1      -0.114  14.786  20.834  0.00  0.00    +0.000 C 
ATOM     19  C   UNL     1      -0.593  13.355  20.570  0.00  0.00    +0.000 C 
ATOM     20  N   UNL     1      -1.891  13.379  19.911  0.00  0.00    +0.000 N 
ATOM     21  H   UNL     1      -2.621  13.961  20.305  0.00  0.00    +0.000 HD
ENDBRANCH   1  13
BRANCH   9  22
ATOM     22  C   UNL     1       3.176   6.147  18.638  0.00  0.00    +0.000 A 
ATOM     23  C   UNL     1       2.522   5.003  18.147  0.00  0.00    +0.000 A 
ATOM     24  C   UNL     1       3.165   3.764  18.156  0.00  0.00    +0.000 A 
ATOM     25  C   UNL     1       4.459   3.653  18.660  0.00  0.00    +0.000 A 
ATOM     26  C   UNL     1       5.109   4.778  19.159  0.00  0.00    +0.000 A 
ATOM     27  C   UNL     1       4.472   6.021  19.152  0.00  0.00    +0.000 A 
ENDBRANCH   9  22
TORSDOF 2
ENDMDL
MODEL 9
REMARK VINA RESULT:      -7.4      2.324      3.655
REMARK  Name = 
REMARK  2 active torsions:
REMARK  status: ('A' for Active; 'I' for Inactive)
REMARK    1  A    between atoms: N_4  and  C_5
REMARK    2  A    between atoms: N_13  and  C_14
REMARK                            x       y       z     vdW  Elec       q    Type
REMARK                         _______ _______ _______ _____ _____    ______ ____
ROOT
ATOM      1  C   UNL     1       2.110   7.566  19.048  0.00  0.00    +0.000 A 
ATOM      2  N   UNL     1       1.957   8.201  17.862  0.00  0.00    +0.000 NA
ATOM      3  C   UNL     1       1.396   9.421  17.822  0.00  0.00    +0.000 A 
ATOM      4  N   UNL     1       0.913  10.130  18.843  0.00  0.00    +0.000 NA
ATOM      5  C   UNL     1       1.057   9.492  20.023  0.00  0.00    +0.000 A 
ATOM      6  C   UNL     1       1.643   8.247  20.191  0.00  0.00    +0.000 A 
ATOM      7  C   UNL     1       1.630   8.044  21.581  0.00  0.00    +0.000 A 
ATOM      8  N   UNL     1       1.052   9.036  22.255  0.00  0.00    +0.000 NA
ATOM      9  N   UNL     1       0.680   9.932  21.291  0.00  0.00    +0.000 N 
ENDROOT
BRANCH   1  13
ATOM     10  O   UNL     1       1.078   3.074  19.354  0.00  0.00    +0.000 OA
ATOM     11  C   UNL     1       1.908   3.932  19.053  0.00  0.00    +0.000 C 
ATOM     12  C   UNL     1       2.043   5.246  19.833  0.00  0.00    +0.000 C 
ATOM     13  N   UNL     1       2.719   6.329  19.091  0.00  0.00    +0.000 N 
ATOM     14  C   UNL     1       3.874   5.919  18.265  0.00  0.00    +0.000 C 
ATOM     15  C   UNL     1       4.587   7.025  17.470  0.00  0.00    +0.000 C 
ATOM     16  C   UNL     1       5.780   6.479  16.689  0.00  0.00    +0.000 C 
ATOM     17  C   UNL     1       5.356   5.337  15.771  0.00  0.00    +0.000 C 
ATOM     18  C   UNL     1       4.666   4.225  16.553  0.00  0.00    +0.000 C 
ATOM     19  C   UNL     1       3.457   4.757  17.330  0.00  0.00    +0.000 C 
ATOM     20  N   UNL     1       2.818   3.671  18.060  0.00  0.00    +0.000 N 
ATOM     21  H   UNL     1       2.607   2.814  17.563  0.00  0.00    +0.000 HD
ENDBRANCH   1  13
BRANCH   9  22
ATOM     22  C   UNL     1       0.002  11.131  21.666  0.00  0.00    +0.000 A 
ATOM     23  C   UNL     1       0.399  12.352  21.094  0.00  0.00    +0.000 A 
ATOM     24  C   UNL     1      -0.259  13.536  21.430  0.00  0.00    +0.000 A 
ATOM     25  C   UNL     1      -1.311  13.515  22.343  0.00  0.00    +0.000 A 
ATOM     26  C   UNL     1      -1.702  12.312  22.924  0.00  0.00    +0.000 A 
ATOM     27  C   UNL     1      -1.049  11.123  22.590  0.00  0.00    +0.000 A 
ENDBRANCH   9  22
TORSDOF 2
ENDMDL
