MODEL 1
REMARK VINA RESULT:      -8.2      0.000      0.000
REMARK  Name = 
REMARK  4 active torsions:
REMARK  status: ('A' for Active; 'I' for Inactive)
REMARK    1  A    between atoms: C_2  and  C_3
REMARK    2  A    between atoms: C_3  and  C_4
REMARK    3  A    between atoms: C_4  and  C_5
REMARK    4  A    between atoms: C_14  and  C_15
REMARK                            x       y       z     vdW  Elec       q    Type
REMARK                         _______ _______ _______ _____ _____    ______ ____
ROOT
ATOM      1  O   UNL     1       4.148   1.319  17.818  0.00  0.00    +0.000 OA
ATOM      2  C   UNL     1       3.695   2.439  18.067  0.00  0.00    +0.000 C 
ATOM      3  N   UNL     1       3.275   2.703  19.344  0.00  0.00    +0.000 N 
ATOM      4  C   UNL     1       2.785   3.898  19.784  0.00  0.00    +0.000 A 
ATOM      5  N   UNL     1       2.746   5.030  19.141  0.00  0.00    +0.000 NA
ATOM      6  C   UNL     1       2.159   6.018  19.901  0.00  0.00    +0.000 A 
ATOM      7  C   UNL     1       1.728   5.578  21.142  0.00  0.00    +0.000 A 
ATOM      8  S   UNL     1       2.131   3.912  21.354  0.00  0.00    +0.000 S 
ATOM      9  H   UNL     1       3.308   1.933  19.996  0.00  0.00    +0.000 HD
ENDROOT
BRANCH   6  10
ATOM     10  C   UNL     1       1.989   7.380  19.370  0.00  0.00    +0.000 A 
ATOM     11  C   UNL     1       2.553   7.677  18.114  0.00  0.00    +0.000 A 
ATOM     12  C   UNL     1       2.462   8.956  17.574  0.00  0.00    +0.000 A 
ATOM     13  C   UNL     1       1.820   9.964  18.281  0.00  0.00    +0.000 A 
ATOM     14  C   UNL     1       1.255   9.717  19.540  0.00  0.00    +0.000 A 
ATOM     15  C   UNL     1       0.628  10.770  20.228  0.00  0.00    +0.000 A 
ATOM     16  C   UNL     1       0.059  10.579  21.483  0.00  0.00    +0.000 A 
ATOM     17  C   UNL     1       0.098   9.322  22.062  0.00  0.00    +0.000 A 
ATOM     18  C   UNL     1       0.703   8.262  21.380  0.00  0.00    +0.000 A 
ATOM     19  C   UNL     1       1.325   8.415  20.111  0.00  0.00    +0.000 A 
ENDBRANCH   6  10
BRANCH   2  20
ATOM     20  C   UNL     1       3.614   3.517  17.002  0.00  0.00    +0.000 C 
BRANCH  20  21
ATOM     21  C   UNL     1       4.908   3.694  16.212  0.00  0.00    +0.000 C 
BRANCH  21  22
ATOM     22  C   UNL     1       5.748   4.810  16.784  0.00  0.00    +0.000 A 
ATOM     23  C   UNL     1       6.714   4.585  17.772  0.00  0.00    +0.000 A 
ATOM     24  C   UNL     1       7.485   5.641  18.249  0.00  0.00    +0.000 A 
ATOM     25  C   UNL     1       7.253   6.903  17.731  0.00  0.00    +0.000 A 
ATOM     26  N   UNL     1       6.321   7.170  16.792  0.00  0.00    +0.000 NA
ATOM     27  C   UNL     1       5.594   6.121  16.342  0.00  0.00    +0.000 A 
ENDBRANCH  21  22
ENDBRANCH  20  21
ENDBRANCH   2  20
TORSDOF 4
ENDMDL
MODEL 2
REMARK VINA RESULT:      -8.0      1.846      2.664
REMARK  Name = 
REMARK  4 active torsions:
REMARK  status: ('A' for Active; 'I' for Inactive)
REMARK    1  A    between atoms: C_2  and  C_3
REMARK    2  A    between atoms: C_3  and  C_4
REMARK    3  A    between atoms: C_4  and  C_5
REMARK    4  A    between atoms: C_14  and  C_15
REMARK                            x       y       z     vdW  Elec       q    Type
REMARK                         _______ _______ _______ _____ _____    ______ ____
ROOT
ATOM      1  O   UNL     1       7.851   4.485  18.671  0.00  0.00    +0.000 OA
ATOM      2  C   UNL     1       6.782   5.099  18.692  0.00  0.00    +0.000 C 
ATOM      3  N   UNL     1       5.693   4.496  19.264  0.00  0.00    +0.000 N 
ATOM      4  C   UNL     1       4.456   5.055  19.396  0.00  0.00    +0.000 A 
ATOM      5  N   UNL     1       4.105   6.283  19.138  0.00  0.00    +0.000 NA
ATOM      6  C   UNL     1       2.761   6.478  19.373  0.00  0.00    +0.000 A 
ATOM      7  C   UNL     1       2.101   5.336  19.794  0.00  0.00    +0.000 A 
ATOM      8  S   UNL     1       3.219   4.027  19.946  0.00  0.00    +0.000 S 
ATOM      9  H   UNL     1       5.823   3.547  19.584  0.00  0.00    +0.000 HD
ENDROOT
BRANCH   6  10
ATOM     10  C   UNL     1       2.135   7.788  19.132  0.00  0.00    +0.000 A 
ATOM     11  C   UNL     1       2.319   8.390  17.872  0.00  0.00    +0.000 A 
ATOM     12  C   UNL     1       1.786   9.645  17.593  0.00  0.00    +0.000 A 
ATOM     13  C   UNL     1       1.072  10.327  18.570  0.00  0.00    +0.000 A 
ATOM     14  C   UNL     1       0.874   9.772  19.841  0.00  0.00    +0.000 A 
ATOM     15  C   UNL     1       0.159  10.505  20.805  0.00  0.00    +0.000 A 
ATOM     16  C   UNL     1      -0.057  10.002  22.084  0.00  0.00    +0.000 A 
ATOM     17  C   UNL     1       0.428   8.748  22.412  0.00  0.00    +0.000 A 
ATOM     18  C   UNL     1       1.126   8.002  21.458  0.00  0.00    +0.000 A 
ATOM     19  C   UNL     1       1.400   8.486  20.149  0.00  0.00    +0.000 A 
ENDBRANCH   6  10
BRANCH   2  20
ATOM     20  C   UNL     1       6.660   6.499  18.117  0.00  0.00    +0.000 C 
BRANCH  20  21
ATOM     21  C   UNL     1       7.283   6.647  16.731  0.00  0.00    +0.000 C 
BRANCH  21  22
ATOM     22  C   UNL     1       6.661   5.686  15.746  0.00  0.00    +0.000 A 
ATOM     23  C   UNL     1       5.289   5.412  15.738  0.00  0.00    +0.000 A 
ATOM     24  C   UNL     1       4.756   4.541  14.792  0.00  0.00    +0.000 A 
ATOM     25  C   UNL     1       5.623   3.952  13.888  0.00  0.00    +0.000 A 
ATOM     26  N   UNL     1       6.954   4.174  13.870  0.00  0.00    +0.000 NA
ATOM     27  C   UNL     1       7.440   5.032  14.797  0.00  0.00    +0.000 A 
ENDBRANCH  21  22
ENDBRANCH  20  21
ENDBRANCH   2  20
TORSDOF 4
ENDMDL
MODEL 3
REMARK VINA RESULT:      -7.9      3.752      5.958
REMARK  Name = 
REMARK  4 active torsions:
REMARK  status: ('A' for Active; 'I' for Inactive)
REMARK    1  A    between atoms: C_2  and  C_3
REMARK    2  A    between atoms: C_3  and  C_4
REMARK    3  A    between atoms: C_4  and  C_5
REMARK    4  A    between atoms: C_14  and  C_15
REMARK                            x       y       z     vdW  Elec       q    Type
REMARK                         _______ _______ _______ _____ _____    ______ ____
ROOT
ATOM      1  O   UNL     1       7.995   5.707  13.685  0.00  0.00    +0.000 OA
ATOM      2  C   UNL     1       7.320   5.283  14.625  0.00  0.00    +0.000 C 
ATOM      3  N   UNL     1       7.586   5.752  15.885  0.00  0.00    +0.000 N 
ATOM      4  C   UNL     1       6.908   5.408  17.017  0.00  0.00    +0.000 A 
ATOM      5  N   UNL     1       5.822   4.696  17.111  0.00  0.00    +0.000 NA
ATOM      6  C   UNL     1       5.437   4.540  18.425  0.00  0.00    +0.000 A 
ATOM      7  C   UNL     1       6.298   5.142  19.328  0.00  0.00    +0.000 A 
ATOM      8  S   UNL     1       7.566   5.958  18.486  0.00  0.00    +0.000 S 
ATOM      9  H   UNL     1       8.372   6.381  15.972  0.00  0.00    +0.000 HD
ENDROOT
BRANCH   6  10
ATOM     10  C   UNL     1       4.244   3.753  18.775  0.00  0.00    +0.000 A 
ATOM     11  C   UNL     1       4.212   2.395  18.405  0.00  0.00    +0.000 A 
ATOM     12  C   UNL     1       3.097   1.607  18.671  0.00  0.00    +0.000 A 
ATOM     13  C   UNL     1       1.990   2.161  19.300  0.00  0.00    +0.000 A 
ATOM     14  C   UNL     1       1.972   3.511  19.675  0.00  0.00    +0.000 A 
ATOM     15  C   UNL     1       0.824   4.035  20.295  0.00  0.00    +0.000 A 
ATOM     16  C   UNL     1       0.754   5.370  20.679  0.00  0.00    +0.000 A 
ATOM     17  C   UNL     1       1.841   6.198  20.462  0.00  0.00    +0.000 A 
ATOM     18  C   UNL     1       2.995   5.685  19.862  0.00  0.00    +0.000 A 
ATOM     19  C   UNL     1       3.103   4.337  19.424  0.00  0.00    +0.000 A 
ENDBRANCH   6  10
BRANCH   2  20
ATOM     20  C   UNL     1       6.203   4.277  14.410  0.00  0.00    +0.000 C 
BRANCH  20  21
ATOM     21  C   UNL     1       5.579   4.346  13.019  0.00  0.00    +0.000 C 
BRANCH  21  22
ATOM     22  C   UNL     1       6.023   3.184  12.162  0.00  0.00    +0.000 A 
ATOM     23  C   UNL     1       7.352   3.026  11.751  0.00  0.00    +0.000 A 
ATOM     24  C   UNL     1       7.719   1.923  10.986  0.00  0.00    +0.000 A 
ATOM     25  C   UNL     1       6.735   1.014  10.638  0.00  0.00    +0.000 A 
ATOM     26  N   UNL     1       5.440   1.136  10.996  0.00  0.00    +0.000 NA
ATOM     27  C   UNL     1       5.115   2.214  11.747  0.00  0.00    +0.000 A 
ENDBRANCH  21  22
ENDBRANCH  20  21
ENDBRANCH   2  20
TORSDOF 4
ENDMDL
MODEL 4
REMARK VINA RESULT:      -7.7      1.169      1.677
REMARK  Name = 
REMARK  4 active torsions:
REMARK  status: ('A' for Active; 'I' for Inactive)
REMARK    1  A    between atoms: C_2  and  C_3
REMARK    2  A    between atoms: C_3  and  C_4
REMARK    3  A    between atoms: C_4  and  C_5
REMARK    4  A    between atoms: C_14  and  C_15
REMARK                            x       y       z     vdW  Elec       q    Type
REMARK                         _______ _______ _______ _____ _____    ______ ____
ROOT
ATOM      1  O   UNL     1       4.301   1.039  18.125  0.00  0.00    +0.000 OA
ATOM      2  C   UNL     1       3.839   2.167  18.312  0.00  0.00    +0.000 C 
ATOM      3  N   UNL     1       3.281   2.450  19.530  0.00  0.00    +0.000 N 
ATOM      4  C   UNL     1       2.762   3.656  19.902  0.00  0.00    +0.000 A 
ATOM      5  N   UNL     1       2.812   4.781  19.248  0.00  0.00    +0.000 NA
ATOM      6  C   UNL     1       2.157   5.785  19.928  0.00  0.00    +0.000 A 
ATOM      7  C   UNL     1       1.583   5.364  21.117  0.00  0.00    +0.000 A 
ATOM      8  S   UNL     1       1.936   3.695  21.387  0.00  0.00    +0.000 S 
ATOM      9  H   UNL     1       3.230   1.686  20.189  0.00  0.00    +0.000 HD
ENDROOT
BRANCH   6  10
ATOM     10  C   UNL     1       2.068   7.143  19.370  0.00  0.00    +0.000 A 
ATOM     11  C   UNL     1       2.719   7.403  18.148  0.00  0.00    +0.000 A 
ATOM     12  C   UNL     1       2.706   8.675  17.586  0.00  0.00    +0.000 A 
ATOM     13  C   UNL     1       2.055   9.714  18.238  0.00  0.00    +0.000 A 
ATOM     14  C   UNL     1       1.404   9.506  19.460  0.00  0.00    +0.000 A 
ATOM     15  C   UNL     1       0.771  10.590  20.093  0.00  0.00    +0.000 A 
ATOM     16  C   UNL     1       0.118  10.437  21.312  0.00  0.00    +0.000 A 
ATOM     17  C   UNL     1       0.077   9.189  21.909  0.00  0.00    +0.000 A 
ATOM     18  C   UNL     1       0.687   8.099  21.282  0.00  0.00    +0.000 A 
ATOM     19  C   UNL     1       1.393   8.212  20.052  0.00  0.00    +0.000 A 
ENDBRANCH   6  10
BRANCH   2  20
ATOM     20  C   UNL     1       3.893   3.235  17.234  0.00  0.00    +0.000 C 
BRANCH  20  21
ATOM     21  C   UNL     1       5.082   4.181  17.371  0.00  0.00    +0.000 C 
BRANCH  21  22
ATOM     22  C   UNL     1       5.799   4.353  16.053  0.00  0.00    +0.000 A 
ATOM     23  C   UNL     1       5.389   3.692  14.889  0.00  0.00    +0.000 A 
ATOM     24  C   UNL     1       6.064   3.904  13.691  0.00  0.00    +0.000 A 
ATOM     25  C   UNL     1       7.148   4.764  13.697  0.00  0.00    +0.000 A 
ATOM     26  N   UNL     1       7.589   5.408  14.798  0.00  0.00    +0.000 NA
ATOM     27  C   UNL     1       6.907   5.188  15.946  0.00  0.00    +0.000 A 
ENDBRANCH  21  22
ENDBRANCH  20  21
ENDBRANCH   2  20
TORSDOF 4
ENDMDL
MODEL 5
REMARK VINA RESULT:      -7.7      8.310     10.701
REMARK  Name = 
REMARK  4 active torsions:
REMARK  status: ('A' for Active; 'I' for Inactive)
REMARK    1  A    between atoms: C_2  and  C_3
REMARK    2  A    between atoms: C_3  and  C_4
REMARK    3  A    between atoms: C_4  and  C_5
REMARK    4  A    between atoms: C_14  and  C_15
REMARK                            x       y       z     vdW  Elec       q    Type
REMARK                         _______ _______ _______ _____ _____    ______ ____
ROOT
ATOM      1  O   UNL     1      -2.596  10.510  15.501  0.00  0.00    +0.000 OA
ATOM      2  C   UNL     1      -2.588  10.934  16.659  0.00  0.00    +0.000 C 
ATOM      3  N   UNL     1      -1.577  11.776  17.039  0.00  0.00    +0.000 N 
ATOM      4  C   UNL     1      -1.449  12.355  18.268  0.00  0.00    +0.000 A 
ATOM      5  N   UNL     1      -2.303  12.336  19.251  0.00  0.00    +0.000 NA
ATOM      6  C   UNL     1      -1.818  13.015  20.349  0.00  0.00    +0.000 A 
ATOM      7  C   UNL     1      -0.544  13.527  20.164  0.00  0.00    +0.000 A 
ATOM      8  S   UNL     1       0.004  13.188  18.561  0.00  0.00    +0.000 S 
ATOM      9  H   UNL     1      -0.857  11.952  16.353  0.00  0.00    +0.000 HD
ENDROOT
BRANCH   6  10
ATOM     10  C   UNL     1      -2.606  13.109  21.587  0.00  0.00    +0.000 A 
ATOM     11  C   UNL     1      -2.417  12.119  22.571  0.00  0.00    +0.000 A 
ATOM     12  C   UNL     1      -3.158  12.128  23.748  0.00  0.00    +0.000 A 
ATOM     13  C   UNL     1      -4.111  13.117  23.959  0.00  0.00    +0.000 A 
ATOM     14  C   UNL     1      -4.342  14.115  23.003  0.00  0.00    +0.000 A 
ATOM     15  C   UNL     1      -5.327  15.087  23.252  0.00  0.00    +0.000 A 
ATOM     16  C   UNL     1      -5.600  16.093  22.331  0.00  0.00    +0.000 A 
ATOM     17  C   UNL     1      -4.878  16.150  21.152  0.00  0.00    +0.000 A 
ATOM     18  C   UNL     1      -3.883  15.200  20.901  0.00  0.00    +0.000 A 
ATOM     19  C   UNL     1      -3.590  14.134  21.796  0.00  0.00    +0.000 A 
ENDBRANCH   6  10
BRANCH   2  20
ATOM     20  C   UNL     1      -3.676  10.557  17.649  0.00  0.00    +0.000 C 
BRANCH  20  21
ATOM     21  C   UNL     1      -5.001  11.272  17.402  0.00  0.00    +0.000 C 
BRANCH  21  22
ATOM     22  C   UNL     1      -5.844  11.309  18.654  0.00  0.00    +0.000 A 
ATOM     23  C   UNL     1      -5.868  12.422  19.504  0.00  0.00    +0.000 A 
ATOM     24  C   UNL     1      -6.683  12.421  20.632  0.00  0.00    +0.000 A 
ATOM     25  C   UNL     1      -7.441  11.292  20.888  0.00  0.00    +0.000 A 
ATOM     26  N   UNL     1      -7.435  10.191  20.107  0.00  0.00    +0.000 NA
ATOM     27  C   UNL     1      -6.639  10.226  19.013  0.00  0.00    +0.000 A 
ENDBRANCH  21  22
ENDBRANCH  20  21
ENDBRANCH   2  20
TORSDOF 4
ENDMDL
MODEL 6
REMARK VINA RESULT:      -7.6      6.313      9.505
REMARK  Name = 
REMARK  4 active torsions:
REMARK  status: ('A' for Active; 'I' for Inactive)
REMARK    1  A    between atoms: C_2  and  C_3
REMARK    2  A    between atoms: C_3  and  C_4
REMARK    3  A    between atoms: C_4  and  C_5
REMARK    4  A    between atoms: C_14  and  C_15
REMARK                            x       y       z     vdW  Elec       q    Type
REMARK                         _______ _______ _______ _____ _____    ______ ____
ROOT
ATOM      1  O   UNL     1      -5.395  14.654  20.098  0.00  0.00    +0.000 OA
ATOM      2  C   UNL     1      -4.394  13.947  20.243  0.00  0.00    +0.000 C 
ATOM      3  N   UNL     1      -3.209  14.552  20.568  0.00  0.00    +0.000 N 
ATOM      4  C   UNL     1      -2.028  13.908  20.796  0.00  0.00    +0.000 A 
ATOM      5  N   UNL     1      -1.824  12.624  20.883  0.00  0.00    +0.000 NA
ATOM      6  C   UNL     1      -0.492  12.343  21.100  0.00  0.00    +0.000 A 
ATOM      7  C   UNL     1       0.311  13.471  21.147  0.00  0.00    +0.000 A 
ATOM      8  S   UNL     1      -0.654  14.893  20.971  0.00  0.00    +0.000 S 
ATOM      9  H   UNL     1      -3.217  15.561  20.610  0.00  0.00    +0.000 HD
ENDROOT
BRANCH   6  10
ATOM     10  C   UNL     1      -0.022  10.954  21.214  0.00  0.00    +0.000 A 
ATOM     11  C   UNL     1      -0.215  10.285  22.438  0.00  0.00    +0.000 A 
ATOM     12  C   UNL     1       0.241   8.984  22.624  0.00  0.00    +0.000 A 
ATOM     13  C   UNL     1       0.909   8.331  21.597  0.00  0.00    +0.000 A 
ATOM     14  C   UNL     1       1.135   8.961  20.366  0.00  0.00    +0.000 A 
ATOM     15  C   UNL     1       1.830   8.268  19.359  0.00  0.00    +0.000 A 
ATOM     16  C   UNL     1       2.087   8.852  18.123  0.00  0.00    +0.000 A 
ATOM     17  C   UNL     1       1.637  10.136  17.871  0.00  0.00    +0.000 A 
ATOM     18  C   UNL     1       0.929  10.829  18.857  0.00  0.00    +0.000 A 
ATOM     19  C   UNL     1       0.670  10.288  20.146  0.00  0.00    +0.000 A 
ENDBRANCH   6  10
BRANCH   2  20
ATOM     20  C   UNL     1      -4.460  12.438  20.087  0.00  0.00    +0.000 C 
BRANCH  20  21
ATOM     21  C   UNL     1      -5.177  11.987  18.817  0.00  0.00    +0.000 C 
BRANCH  21  22
ATOM     22  C   UNL     1      -4.211  11.372  17.833  0.00  0.00    +0.000 A 
ATOM     23  C   UNL     1      -3.045  10.715  18.243  0.00  0.00    +0.000 A 
ATOM     24  C   UNL     1      -2.200  10.139  17.300  0.00  0.00    +0.000 A 
ATOM     25  C   UNL     1      -2.539  10.254  15.963  0.00  0.00    +0.000 A 
ATOM     26  N   UNL     1      -3.643  10.894  15.522  0.00  0.00    +0.000 NA
ATOM     27  C   UNL     1      -4.449  11.436  16.463  0.00  0.00    +0.000 A 
ENDBRANCH  21  22
ENDBRANCH  20  21
ENDBRANCH   2  20
TORSDOF 4
ENDMDL
MODEL 7
REMARK VINA RESULT:      -7.5      7.303     10.216
REMARK  Name = 
REMARK  4 active torsions:
REMARK  status: ('A' for Active; 'I' for Inactive)
REMARK    1  A    between atoms: C_2  and  C_3
REMARK    2  A    between atoms: C_3  and  C_4
REMARK    3  A    between atoms: C_4  and  C_5
REMARK    4  A    between atoms: C_14  and  C_15
REMARK                            x       y       z     vdW  Elec       q    Type
REMARK                         _______ _______ _______ _____ _____    ______ ____
ROOT
ATOM      1  O   UNL     1      -3.904  10.591  15.558  0.00  0.00    +0.000 OA
ATOM      2  C   UNL     1      -4.325  11.039  16.627  0.00  0.00    +0.000 C 
ATOM      3  N   UNL     1      -5.409  11.877  16.602  0.00  0.00    +0.000 N 
ATOM      4  C   UNL     1      -6.011  12.425  17.696  0.00  0.00    +0.000 A 
ATOM      5  N   UNL     1      -5.775  12.165  18.950  0.00  0.00    +0.000 NA
ATOM      6  C   UNL     1      -6.567  12.930  19.779  0.00  0.00    +0.000 A 
ATOM      7  C   UNL     1      -7.397  13.804  19.096  0.00  0.00    +0.000 A 
ATOM      8  S   UNL     1      -7.202  13.600  17.392  0.00  0.00    +0.000 S 
ATOM      9  H   UNL     1      -5.763  12.126  15.689  0.00  0.00    +0.000 HD
ENDROOT
BRANCH   6  10
ATOM     10  C   UNL     1      -6.459  12.819  21.242  0.00  0.00    +0.000 A 
ATOM     11  C   UNL     1      -7.649  12.809  21.996  0.00  0.00    +0.000 A 
ATOM     12  C   UNL     1      -7.615  12.746  23.385  0.00  0.00    +0.000 A 
ATOM     13  C   UNL     1      -6.396  12.705  24.048  0.00  0.00    +0.000 A 
ATOM     14  C   UNL     1      -5.187  12.725  23.340  0.00  0.00    +0.000 A 
ATOM     15  C   UNL     1      -3.975  12.698  24.052  0.00  0.00    +0.000 A 
ATOM     16  C   UNL     1      -2.748  12.725  23.396  0.00  0.00    +0.000 A 
ATOM     17  C   UNL     1      -2.718  12.764  22.013  0.00  0.00    +0.000 A 
ATOM     18  C   UNL     1      -3.916  12.774  21.292  0.00  0.00    +0.000 A 
ATOM     19  C   UNL     1      -5.193  12.779  21.918  0.00  0.00    +0.000 A 
ENDBRANCH   6  10
BRANCH   2  20
ATOM     20  C   UNL     1      -3.681  10.669  17.951  0.00  0.00    +0.000 C 
BRANCH  20  21
ATOM     21  C   UNL     1      -2.256  10.143  17.811  0.00  0.00    +0.000 C 
BRANCH  21  22
ATOM     22  C   UNL     1      -1.280  10.991  18.591  0.00  0.00    +0.000 A 
ATOM     23  C   UNL     1      -1.109  12.357  18.333  0.00  0.00    +0.000 A 
ATOM     24  C   UNL     1      -0.219  13.105  19.098  0.00  0.00    +0.000 A 
ATOM     25  C   UNL     1       0.492  12.455  20.092  0.00  0.00    +0.000 A 
ATOM     26  N   UNL     1       0.372  11.138  20.363  0.00  0.00    +0.000 NA
ATOM     27  C   UNL     1      -0.508  10.440  19.608  0.00  0.00    +0.000 A 
ENDBRANCH  21  22
ENDBRANCH  20  21
ENDBRANCH   2  20
TORSDOF 4
ENDMDL
MODEL 8
REMARK VINA RESULT:      -7.5      1.905      2.501
REMARK  Name = 
REMARK  4 active torsions:
REMARK  status: ('A' for Active; 'I' for Inactive)
REMARK    1  A    between atoms: C_2  and  C_3
REMARK    2  A    between atoms: C_3  and  C_4
REMARK    3  A    between atoms: C_4  and  C_5
REMARK    4  A    between atoms: C_14  and  C_15
REMARK                            x       y       z     vdW  Elec       q    Type
REMARK                         _______ _______ _______ _____ _____    ______ ____
ROOT
ATOM      1  O   UNL     1       7.117   4.246  18.233  0.00  0.00    +0.000 OA
ATOM      2  C   UNL     1       6.118   4.952  18.390  0.00  0.00    +0.000 C 
ATOM      3  N   UNL     1       5.131   4.508  19.230  0.00  0.00    +0.000 N 
ATOM      4  C   UNL     1       3.987   5.187  19.534  0.00  0.00    +0.000 A 
ATOM      5  N   UNL     1       3.673   6.408  19.208  0.00  0.00    +0.000 NA
ATOM      6  C   UNL     1       2.422   6.745  19.676  0.00  0.00    +0.000 A 
ATOM      7  C   UNL     1       1.786   5.715  20.349  0.00  0.00    +0.000 A 
ATOM      8  S   UNL     1       2.821   4.334  20.431  0.00  0.00    +0.000 S 
ATOM      9  H   UNL     1       5.259   3.589  19.628  0.00  0.00    +0.000 HD
ENDROOT
BRANCH   6  10
ATOM     10  C   UNL     1       1.849   8.074  19.411  0.00  0.00    +0.000 A 
ATOM     11  C   UNL     1       2.055   8.645  18.140  0.00  0.00    +0.000 A 
ATOM     12  C   UNL     1       1.574   9.914  17.838  0.00  0.00    +0.000 A 
ATOM     13  C   UNL     1       0.889  10.643  18.802  0.00  0.00    +0.000 A 
ATOM     14  C   UNL     1       0.671  10.121  20.083  0.00  0.00    +0.000 A 
ATOM     15  C   UNL     1      -0.013  10.900  21.033  0.00  0.00    +0.000 A 
ATOM     16  C   UNL     1      -0.248  10.431  22.322  0.00  0.00    +0.000 A 
ATOM     17  C   UNL     1       0.186   9.165  22.673  0.00  0.00    +0.000 A 
ATOM     18  C   UNL     1       0.852   8.373  21.733  0.00  0.00    +0.000 A 
ATOM     19  C   UNL     1       1.144   8.821  20.415  0.00  0.00    +0.000 A 
ENDBRANCH   6  10
BRANCH   2  20
ATOM     20  C   UNL     1       5.976   6.292  17.691  0.00  0.00    +0.000 C 
BRANCH  20  21
ATOM     21  C   UNL     1       5.044   6.254  16.483  0.00  0.00    +0.000 C 
BRANCH  21  22
ATOM     22  C   UNL     1       5.651   5.464  15.348  0.00  0.00    +0.000 A 
ATOM     23  C   UNL     1       6.976   5.649  14.937  0.00  0.00    +0.000 A 
ATOM     24  C   UNL     1       7.501   4.876  13.904  0.00  0.00    +0.000 A 
ATOM     25  C   UNL     1       6.671   3.949  13.298  0.00  0.00    +0.000 A 
ATOM     26  N   UNL     1       5.384   3.751  13.649  0.00  0.00    +0.000 NA
ATOM     27  C   UNL     1       4.906   4.510  14.662  0.00  0.00    +0.000 A 
ENDBRANCH  21  22
ENDBRANCH  20  21
ENDBRANCH   2  20
TORSDOF 4
ENDMDL
MODEL 9
REMARK VINA RESULT:      -7.5      6.265      9.162
REMARK  Name = 
REMARK  4 active torsions:
REMARK  status: ('A' for Active; 'I' for Inactive)
REMARK    1  A    between atoms: C_2  and  C_3
REMARK    2  A    between atoms: C_3  and  C_4
REMARK    3  A    between atoms: C_4  and  C_5
REMARK    4  A    between atoms: C_14  and  C_15
REMARK                            x       y       z     vdW  Elec       q    Type
REMARK                         _______ _______ _______ _____ _____    ______ ____
ROOT
ATOM      1  O   UNL     1      -3.030   9.869  15.566  0.00  0.00    +0.000 OA
ATOM      2  C   UNL     1      -3.448  10.424  16.585  0.00  0.00    +0.000 C 
ATOM      3  N   UNL     1      -4.579  11.191  16.494  0.00  0.00    +0.000 N 
ATOM      4  C   UNL     1      -5.183  11.837  17.533  0.00  0.00    +0.000 A 
ATOM      5  N   UNL     1      -4.897  11.749  18.801  0.00  0.00    +0.000 NA
ATOM      6  C   UNL     1      -5.711  12.567  19.555  0.00  0.00    +0.000 A 
ATOM      7  C   UNL     1      -6.609  13.302  18.800  0.00  0.00    +0.000 A 
ATOM      8  S   UNL     1      -6.449  12.897  17.128  0.00  0.00    +0.000 S 
ATOM      9  H   UNL     1      -4.972  11.304  15.571  0.00  0.00    +0.000 HD
ENDROOT
BRANCH   6  10
ATOM     10  C   UNL     1      -5.557  12.645  21.017  0.00  0.00    +0.000 A 
ATOM     11  C   UNL     1      -6.723  12.661  21.807  0.00  0.00    +0.000 A 
ATOM     12  C   UNL     1      -6.648  12.773  23.191  0.00  0.00    +0.000 A 
ATOM     13  C   UNL     1      -5.410  12.885  23.812  0.00  0.00    +0.000 A 
ATOM     14  C   UNL     1      -4.225  12.887  23.065  0.00  0.00    +0.000 A 
ATOM     15  C   UNL     1      -2.994  13.019  23.733  0.00  0.00    +0.000 A 
ATOM     16  C   UNL     1      -1.790  13.034  23.036  0.00  0.00    +0.000 A 
ATOM     17  C   UNL     1      -1.800  12.902  21.659  0.00  0.00    +0.000 A 
ATOM     18  C   UNL     1      -3.015  12.753  20.984  0.00  0.00    +0.000 A 
ATOM     19  C   UNL     1      -4.273  12.763  21.648  0.00  0.00    +0.000 A 
ENDBRANCH   6  10
BRANCH   2  20
ATOM     20  C   UNL     1      -2.747  10.258  17.922  0.00  0.00    +0.000 C 
BRANCH  20  21
ATOM     21  C   UNL     1      -1.422  11.008  18.014  0.00  0.00    +0.000 C 
BRANCH  21  22
ATOM     22  C   UNL     1      -0.360  10.163  18.676  0.00  0.00    +0.000 A 
ATOM     23  C   UNL     1       0.714   9.621  17.960  0.00  0.00    +0.000 A 
ATOM     24  C   UNL     1       1.685   8.872  18.618  0.00  0.00    +0.000 A 
ATOM     25  C   UNL     1       1.541   8.671  19.980  0.00  0.00    +0.000 A 
ATOM     26  N   UNL     1       0.513   9.159  20.706  0.00  0.00    +0.000 NA
ATOM     27  C   UNL     1      -0.410   9.891  20.039  0.00  0.00    +0.000 A 
ENDBRANCH  21  22
ENDBRANCH  20  21
ENDBRANCH   2  20
TORSDOF 4
ENDMDL
