MODEL 1
REMARK VINA RESULT:      -7.5      0.000      0.000
REMARK  Name = 
REMARK  3 active torsions:
REMARK  status: ('A' for Active; 'I' for Inactive)
REMARK    1  A    between atoms: C_2  and  C_3
REMARK    2  A    between atoms: C_16  and  C_17
REMARK    3  A    between atoms: C_17  and  C_18
REMARK                            x       y       z     vdW  Elec       q    Type
REMARK                         _______ _______ _______ _____ _____    ______ ____
ROOT
ATOM      1  O   UNL     1       3.314   2.265  18.288  0.00  0.00    +0.000 OA
ATOM      2  C   UNL     1       3.494   3.475  18.152  0.00  0.00    +0.000 C 
ATOM      3  N   UNL     1       2.639   4.441  18.687  0.00  0.00    +0.000 N 
ATOM      4  C   UNL     1       2.811   5.877  18.516  0.00  0.00    +0.000 C 
ATOM      5  C   UNL     1       3.092   6.536  19.852  0.00  0.00    +0.000 C 
ATOM      6  C   UNL     1       1.932   6.272  20.831  0.00  0.00    +0.000 C 
ATOM      7  C   UNL     1       1.752   4.740  20.955  0.00  0.00    +0.000 C 
ATOM      8  C   UNL     1       1.568   4.051  19.596  0.00  0.00    +0.000 C 
ENDROOT
BRANCH   2   9
ATOM      9  C   UNL     1       4.701   3.932  17.389  0.00  0.00    +0.000 A 
ATOM     10  C   UNL     1       5.786   4.490  18.066  0.00  0.00    +0.000 A 
ATOM     11  C   UNL     1       6.882   4.950  17.326  0.00  0.00    +0.000 A 
ATOM     12  C   UNL     1       6.807   4.789  15.961  0.00  0.00    +0.000 A 
ATOM     13  N   UNL     1       7.687   5.158  14.952  0.00  0.00    +0.000 N 
ATOM     14  C   UNL     1       7.104   4.810  13.727  0.00  0.00    +0.000 A 
ATOM     15  O   UNL     1       7.600   4.981  12.611  0.00  0.00    +0.000 OA
ATOM     16  N   UNL     1       5.866   4.238  14.003  0.00  0.00    +0.000 N 
ATOM     17  C   UNL     1       5.688   4.247  15.375  0.00  0.00    +0.000 A 
ATOM     18  N   UNL     1       4.622   3.839  16.029  0.00  0.00    +0.000 NA
ATOM     19  H   UNL     1       8.587   5.599  15.044  0.00  0.00    +0.000 HD
ATOM     20  H   UNL     1       5.205   3.903  13.326  0.00  0.00    +0.000 HD
ENDBRANCH   2   9
BRANCH   6  21
ATOM     21  C   UNL     1       0.590   6.962  20.456  0.00  0.00    +0.000 C 
BRANCH  21  22
ATOM     22  C   UNL     1       0.440   8.361  21.013  0.00  0.00    +0.000 A 
ATOM     23  C   UNL     1      -0.224   8.580  22.228  0.00  0.00    +0.000 A 
ATOM     24  C   UNL     1      -0.513   9.876  22.661  0.00  0.00    +0.000 A 
ATOM     25  C   UNL     1      -0.090  10.969  21.910  0.00  0.00    +0.000 A 
ATOM     26  C   UNL     1       0.653  10.765  20.749  0.00  0.00    +0.000 A 
ATOM     27  C   UNL     1       0.921   9.469  20.303  0.00  0.00    +0.000 A 
ENDBRANCH  21  22
ENDBRANCH   6  21
TORSDOF 3
ENDMDL
MODEL 2
REMARK VINA RESULT:      -7.5      3.950      7.182
REMARK  Name = 
REMARK  3 active torsions:
REMARK  status: ('A' for Active; 'I' for Inactive)
REMARK    1  A    between atoms: C_2  and  C_3
REMARK    2  A    between atoms: C_16  and  C_17
REMARK    3  A    between atoms: C_17  and  C_18
REMARK                            x       y       z     vdW  Elec       q    Type
REMARK                         _______ _______ _______ _____ _____    ______ ____
ROOT
ATOM      1  O   UNL     1       5.504   3.110  16.111  0.00  0.00    +0.000 OA
ATOM      2  C   UNL     1       5.268   3.868  17.052  0.00  0.00    +0.000 C 
ATOM      3  N   UNL     1       6.121   4.909  17.428  0.00  0.00    +0.000 N 
ATOM      4  C   UNL     1       5.883   5.800  18.555  0.00  0.00    +0.000 C 
ATOM      5  C   UNL     1       5.670   7.220  18.066  0.00  0.00    +0.000 C 
ATOM      6  C   UNL     1       6.905   7.704  17.282  0.00  0.00    +0.000 C 
ATOM      7  C   UNL     1       7.151   6.711  16.121  0.00  0.00    +0.000 C 
ATOM      8  C   UNL     1       7.267   5.256  16.597  0.00  0.00    +0.000 C 
ENDROOT
BRANCH   2   9
ATOM      9  C   UNL     1       3.995   3.674  17.819  0.00  0.00    +0.000 A 
ATOM     10  C   UNL     1       2.774   4.034  17.248  0.00  0.00    +0.000 A 
ATOM     11  C   UNL     1       1.603   3.884  18.002  0.00  0.00    +0.000 A 
ATOM     12  C   UNL     1       1.756   3.361  19.267  0.00  0.00    +0.000 A 
ATOM     13  N   UNL     1       0.825   3.118  20.269  0.00  0.00    +0.000 N 
ATOM     14  C   UNL     1       1.515   2.627  21.384  0.00  0.00    +0.000 A 
ATOM     15  O   UNL     1       1.014   2.296  22.461  0.00  0.00    +0.000 OA
ATOM     16  N   UNL     1       2.866   2.584  21.052  0.00  0.00    +0.000 N 
ATOM     17  C   UNL     1       3.003   3.053  19.757  0.00  0.00    +0.000 A 
ATOM     18  N   UNL     1       4.128   3.214  19.097  0.00  0.00    +0.000 NA
ATOM     19  H   UNL     1      -0.171   3.258  20.237  0.00  0.00    +0.000 HD
ATOM     20  H   UNL     1       3.614   2.291  21.654  0.00  0.00    +0.000 HD
ENDBRANCH   2   9
BRANCH   6  21
ATOM     21  C   UNL     1       8.190   7.892  18.137  0.00  0.00    +0.000 C 
BRANCH  21  22
ATOM     22  C   UNL     1       8.549   9.338  18.399  0.00  0.00    +0.000 A 
ATOM     23  C   UNL     1       8.164  10.345  17.503  0.00  0.00    +0.000 A 
ATOM     24  C   UNL     1       8.635  11.651  17.650  0.00  0.00    +0.000 A 
ATOM     25  C   UNL     1       9.451  11.977  18.730  0.00  0.00    +0.000 A 
ATOM     26  C   UNL     1       9.763  11.006  19.679  0.00  0.00    +0.000 A 
ATOM     27  C   UNL     1       9.313   9.694  19.518  0.00  0.00    +0.000 A 
ENDBRANCH  21  22
ENDBRANCH   6  21
TORSDOF 3
ENDMDL
MODEL 3
REMARK VINA RESULT:      -7.5      3.425      5.289
REMARK  Name = 
REMARK  3 active torsions:
REMARK  status: ('A' for Active; 'I' for Inactive)
REMARK    1  A    between atoms: C_2  and  C_3
REMARK    2  A    between atoms: C_16  and  C_17
REMARK    3  A    between atoms: C_17  and  C_18
REMARK                            x       y       z     vdW  Elec       q    Type
REMARK                         _______ _______ _______ _____ _____    ______ ____
ROOT
ATOM      1  O   UNL     1       2.408   7.694  17.722  0.00  0.00    +0.000 OA
ATOM      2  C   UNL     1       2.159   7.502  18.912  0.00  0.00    +0.000 C 
ATOM      3  N   UNL     1       1.708   8.507  19.770  0.00  0.00    +0.000 N 
ATOM      4  C   UNL     1       1.436   8.317  21.188  0.00  0.00    +0.000 C 
ATOM      5  C   UNL     1      -0.040   8.518  21.472  0.00  0.00    +0.000 C 
ATOM      6  C   UNL     1      -0.474   9.936  21.053  0.00  0.00    +0.000 C 
ATOM      7  C   UNL     1      -0.132  10.116  19.555  0.00  0.00    +0.000 C 
ATOM      8  C   UNL     1       1.341   9.815  19.241  0.00  0.00    +0.000 C 
ENDROOT
BRANCH   2   9
ATOM      9  C   UNL     1       2.332   6.118  19.460  0.00  0.00    +0.000 A 
ATOM     10  C   UNL     1       1.324   5.541  20.234  0.00  0.00    +0.000 A 
ATOM     11  C   UNL     1       1.529   4.265  20.772  0.00  0.00    +0.000 A 
ATOM     12  C   UNL     1       2.728   3.660  20.467  0.00  0.00    +0.000 A 
ATOM     13  N   UNL     1       3.254   2.435  20.857  0.00  0.00    +0.000 N 
ATOM     14  C   UNL     1       4.537   2.326  20.307  0.00  0.00    +0.000 A 
ATOM     15  O   UNL     1       5.304   1.369  20.436  0.00  0.00    +0.000 OA
ATOM     16  N   UNL     1       4.784   3.494  19.592  0.00  0.00    +0.000 N 
ATOM     17  C   UNL     1       3.675   4.311  19.712  0.00  0.00    +0.000 A 
ATOM     18  N   UNL     1       3.538   5.524  19.222  0.00  0.00    +0.000 NA
ATOM     19  H   UNL     1       2.823   1.729  21.430  0.00  0.00    +0.000 HD
ATOM     20  H   UNL     1       5.630   3.718  19.099  0.00  0.00    +0.000 HD
ENDBRANCH   2   9
BRANCH   6  21
ATOM     21  C   UNL     1       0.134  11.085  21.906  0.00  0.00    +0.000 C 
BRANCH  21  22
ATOM     22  C   UNL     1      -0.897  11.984  22.552  0.00  0.00    +0.000 A 
ATOM     23  C   UNL     1      -2.046  11.445  23.147  0.00  0.00    +0.000 A 
ATOM     24  C   UNL     1      -3.077  12.275  23.592  0.00  0.00    +0.000 A 
ATOM     25  C   UNL     1      -2.944  13.657  23.499  0.00  0.00    +0.000 A 
ATOM     26  C   UNL     1      -1.766  14.207  22.998  0.00  0.00    +0.000 A 
ATOM     27  C   UNL     1      -0.746  13.377  22.529  0.00  0.00    +0.000 A 
ENDBRANCH  21  22
ENDBRANCH   6  21
TORSDOF 3
ENDMDL
MODEL 4
REMARK VINA RESULT:      -7.4      4.813      8.760
REMARK  Name = 
REMARK  3 active torsions:
REMARK  status: ('A' for Active; 'I' for Inactive)
REMARK    1  A    between atoms: C_2  and  C_3
REMARK    2  A    between atoms: C_16  and  C_17
REMARK    3  A    between atoms: C_17  and  C_18
REMARK                            x       y       z     vdW  Elec       q    Type
REMARK                         _______ _______ _______ _____ _____    ______ ____
ROOT
ATOM      1  O   UNL     1      -0.082   8.593  21.801  0.00  0.00    +0.000 OA
ATOM      2  C   UNL     1       0.469   8.869  20.736  0.00  0.00    +0.000 C 
ATOM      3  N   UNL     1       1.515   8.115  20.197  0.00  0.00    +0.000 N 
ATOM      4  C   UNL     1       2.205   8.437  18.956  0.00  0.00    +0.000 C 
ATOM      5  C   UNL     1       1.956   7.357  17.921  0.00  0.00    +0.000 C 
ATOM      6  C   UNL     1       2.450   5.994  18.443  0.00  0.00    +0.000 C 
ATOM      7  C   UNL     1       1.727   5.707  19.781  0.00  0.00    +0.000 C 
ATOM      8  C   UNL     1       1.889   6.843  20.801  0.00  0.00    +0.000 C 
ENDROOT
BRANCH   2   9
ATOM      9  C   UNL     1      -0.017  10.065  19.974  0.00  0.00    +0.000 A 
ATOM     10  C   UNL     1      -0.956   9.907  18.953  0.00  0.00    +0.000 A 
ATOM     11  C   UNL     1      -1.361  11.034  18.226  0.00  0.00    +0.000 A 
ATOM     12  C   UNL     1      -0.804  12.235  18.602  0.00  0.00    +0.000 A 
ATOM     13  N   UNL     1      -0.959  13.513  18.079  0.00  0.00    +0.000 N 
ATOM     14  C   UNL     1      -0.121  14.374  18.799  0.00  0.00    +0.000 A 
ATOM     15  O   UNL     1       0.002  15.587  18.618  0.00  0.00    +0.000 OA
ATOM     16  N   UNL     1       0.546  13.607  19.750  0.00  0.00    +0.000 N 
ATOM     17  C   UNL     1       0.131  12.294  19.608  0.00  0.00    +0.000 A 
ATOM     18  N   UNL     1       0.567  11.257  20.288  0.00  0.00    +0.000 NA
ATOM     19  H   UNL     1      -1.554  13.805  17.322  0.00  0.00    +0.000 HD
ATOM     20  H   UNL     1       1.228  13.941  20.406  0.00  0.00    +0.000 HD
ENDBRANCH   2   9
BRANCH   6  21
ATOM     21  C   UNL     1       3.991   5.875  18.605  0.00  0.00    +0.000 C 
BRANCH  21  22
ATOM     22  C   UNL     1       4.710   5.427  17.352  0.00  0.00    +0.000 A 
ATOM     23  C   UNL     1       5.031   6.346  16.343  0.00  0.00    +0.000 A 
ATOM     24  C   UNL     1       5.540   5.912  15.118  0.00  0.00    +0.000 A 
ATOM     25  C   UNL     1       5.787   4.559  14.908  0.00  0.00    +0.000 A 
ATOM     26  C   UNL     1       5.560   3.647  15.937  0.00  0.00    +0.000 A 
ATOM     27  C   UNL     1       5.028   4.077  17.154  0.00  0.00    +0.000 A 
ENDBRANCH  21  22
ENDBRANCH   6  21
TORSDOF 3
ENDMDL
MODEL 5
REMARK VINA RESULT:      -7.4      4.428      8.290
REMARK  Name = 
REMARK  3 active torsions:
REMARK  status: ('A' for Active; 'I' for Inactive)
REMARK    1  A    between atoms: C_2  and  C_3
REMARK    2  A    between atoms: C_16  and  C_17
REMARK    3  A    between atoms: C_17  and  C_18
REMARK                            x       y       z     vdW  Elec       q    Type
REMARK                         _______ _______ _______ _____ _____    ______ ____
ROOT
ATOM      1  O   UNL     1       0.098   9.066  21.822  0.00  0.00    +0.000 OA
ATOM      2  C   UNL     1       0.532   9.059  20.670  0.00  0.00    +0.000 C 
ATOM      3  N   UNL     1       1.562   8.217  20.246  0.00  0.00    +0.000 N 
ATOM      4  C   UNL     1       2.116   8.209  18.899  0.00  0.00    +0.000 C 
ATOM      5  C   UNL     1       1.832   6.882  18.221  0.00  0.00    +0.000 C 
ATOM      6  C   UNL     1       2.446   5.726  19.034  0.00  0.00    +0.000 C 
ATOM      7  C   UNL     1       1.867   5.792  20.468  0.00  0.00    +0.000 C 
ATOM      8  C   UNL     1       2.061   7.166  21.125  0.00  0.00    +0.000 C 
ENDROOT
BRANCH   2   9
ATOM      9  C   UNL     1      -0.089   9.988  19.671  0.00  0.00    +0.000 A 
ATOM     10  C   UNL     1       0.065  11.368  19.812  0.00  0.00    +0.000 A 
ATOM     11  C   UNL     1      -0.562  12.217  18.891  0.00  0.00    +0.000 A 
ATOM     12  C   UNL     1      -1.277  11.605  17.886  0.00  0.00    +0.000 A 
ATOM     13  N   UNL     1      -2.031  12.141  16.850  0.00  0.00    +0.000 N 
ATOM     14  C   UNL     1      -2.597  11.076  16.138  0.00  0.00    +0.000 A 
ATOM     15  O   UNL     1      -3.325  11.169  15.148  0.00  0.00    +0.000 OA
ATOM     16  N   UNL     1      -2.188   9.898  16.755  0.00  0.00    +0.000 N 
ATOM     17  C   UNL     1      -1.392  10.236  17.836  0.00  0.00    +0.000 A 
ATOM     18  N   UNL     1      -0.853   9.406  18.702  0.00  0.00    +0.000 NA
ATOM     19  H   UNL     1      -2.171  13.110  16.622  0.00  0.00    +0.000 HD
ATOM     20  H   UNL     1      -2.446   8.966  16.483  0.00  0.00    +0.000 HD
ENDBRANCH   2   9
BRANCH   6  21
ATOM     21  C   UNL     1       4.000   5.699  19.061  0.00  0.00    +0.000 C 
BRANCH  21  22
ATOM     22  C   UNL     1       4.636   5.457  17.710  0.00  0.00    +0.000 A 
ATOM     23  C   UNL     1       4.990   6.532  16.882  0.00  0.00    +0.000 A 
ATOM     24  C   UNL     1       5.418   6.314  15.571  0.00  0.00    +0.000 A 
ATOM     25  C   UNL     1       5.551   5.014  15.092  0.00  0.00    +0.000 A 
ATOM     26  C   UNL     1       5.293   3.936  15.935  0.00  0.00    +0.000 A 
ATOM     27  C   UNL     1       4.841   4.154  17.238  0.00  0.00    +0.000 A 
ENDBRANCH  21  22
ENDBRANCH   6  21
TORSDOF 3
ENDMDL
MODEL 6
REMARK VINA RESULT:      -7.3      3.318      4.966
REMARK  Name = 
REMARK  3 active torsions:
REMARK  status: ('A' for Active; 'I' for Inactive)
REMARK    1  A    between atoms: C_2  and  C_3
REMARK    2  A    between atoms: C_16  and  C_17
REMARK    3  A    between atoms: C_17  and  C_18
REMARK                            x       y       z     vdW  Elec       q    Type
REMARK                         _______ _______ _______ _____ _____    ______ ____
ROOT
ATOM      1  O   UNL     1       2.685   8.133  17.131  0.00  0.00    +0.000 OA
ATOM      2  C   UNL     1       2.399   7.654  18.228  0.00  0.00    +0.000 C 
ATOM      3  N   UNL     1       1.921   8.417  19.295  0.00  0.00    +0.000 N 
ATOM      4  C   UNL     1       1.605   7.883  20.612  0.00  0.00    +0.000 C 
ATOM      5  C   UNL     1       0.120   8.018  20.892  0.00  0.00    +0.000 C 
ATOM      6  C   UNL     1      -0.301   9.499  20.826  0.00  0.00    +0.000 C 
ATOM      7  C   UNL     1       0.088  10.043  19.431  0.00  0.00    +0.000 C 
ATOM      8  C   UNL     1       1.570   9.818  19.097  0.00  0.00    +0.000 C 
ENDROOT
BRANCH   2   9
ATOM      9  C   UNL     1       2.556   6.175  18.420  0.00  0.00    +0.000 A 
ATOM     10  C   UNL     1       1.552   5.305  17.992  0.00  0.00    +0.000 A 
ATOM     11  C   UNL     1       1.702   3.932  18.223  0.00  0.00    +0.000 A 
ATOM     12  C   UNL     1       2.865   3.543  18.848  0.00  0.00    +0.000 A 
ATOM     13  N   UNL     1       3.307   2.288  19.248  0.00  0.00    +0.000 N 
ATOM     14  C   UNL     1       4.542   2.453  19.889  0.00  0.00    +0.000 A 
ATOM     15  O   UNL     1       5.235   1.556  20.371  0.00  0.00    +0.000 OA
ATOM     16  N   UNL     1       4.836   3.813  19.880  0.00  0.00    +0.000 N 
ATOM     17  C   UNL     1       3.793   4.472  19.254  0.00  0.00    +0.000 A 
ATOM     18  N   UNL     1       3.673   5.772  19.092  0.00  0.00    +0.000 NA
ATOM     19  H   UNL     1       2.851   1.400  19.121  0.00  0.00    +0.000 HD
ATOM     20  H   UNL     1       5.649   4.245  20.281  0.00  0.00    +0.000 HD
ENDBRANCH   2   9
BRANCH   6  21
ATOM     21  C   UNL     1       0.280  10.395  21.956  0.00  0.00    +0.000 C 
BRANCH  21  22
ATOM     22  C   UNL     1      -0.595  11.574  22.318  0.00  0.00    +0.000 A 
ATOM     23  C   UNL     1      -0.207  12.881  21.989  0.00  0.00    +0.000 A 
ATOM     24  C   UNL     1      -0.922  13.981  22.467  0.00  0.00    +0.000 A 
ATOM     25  C   UNL     1      -2.068  13.783  23.232  0.00  0.00    +0.000 A 
ATOM     26  C   UNL     1      -2.517  12.489  23.486  0.00  0.00    +0.000 A 
ATOM     27  C   UNL     1      -1.788  11.389  23.030  0.00  0.00    +0.000 A 
ENDBRANCH  21  22
ENDBRANCH   6  21
TORSDOF 3
ENDMDL
MODEL 7
REMARK VINA RESULT:      -7.3      2.754      4.636
REMARK  Name = 
REMARK  3 active torsions:
REMARK  status: ('A' for Active; 'I' for Inactive)
REMARK    1  A    between atoms: C_2  and  C_3
REMARK    2  A    between atoms: C_16  and  C_17
REMARK    3  A    between atoms: C_17  and  C_18
REMARK                            x       y       z     vdW  Elec       q    Type
REMARK                         _______ _______ _______ _____ _____    ______ ____
ROOT
ATOM      1  O   UNL     1       2.061   8.964  17.065  0.00  0.00    +0.000 OA
ATOM      2  C   UNL     1       2.219   8.373  18.133  0.00  0.00    +0.000 C 
ATOM      3  N   UNL     1       1.747   8.860  19.354  0.00  0.00    +0.000 N 
ATOM      4  C   UNL     1       1.946   8.198  20.636  0.00  0.00    +0.000 C 
ATOM      5  C   UNL     1       0.615   7.752  21.209  0.00  0.00    +0.000 C 
ATOM      6  C   UNL     1      -0.317   8.964  21.399  0.00  0.00    +0.000 C 
ATOM      7  C   UNL     1      -0.471   9.665  20.028  0.00  0.00    +0.000 C 
ATOM      8  C   UNL     1       0.878  10.030  19.392  0.00  0.00    +0.000 C 
ENDROOT
BRANCH   2   9
ATOM      9  C   UNL     1       2.938   7.058  18.117  0.00  0.00    +0.000 A 
ATOM     10  C   UNL     1       4.295   7.008  17.794  0.00  0.00    +0.000 A 
ATOM     11  C   UNL     1       4.933   5.763  17.743  0.00  0.00    +0.000 A 
ATOM     12  C   UNL     1       4.157   4.667  18.045  0.00  0.00    +0.000 A 
ATOM     13  N   UNL     1       4.462   3.311  18.055  0.00  0.00    +0.000 N 
ATOM     14  C   UNL     1       3.293   2.613  18.383  0.00  0.00    +0.000 A 
ATOM     15  O   UNL     1       3.184   1.390  18.491  0.00  0.00    +0.000 OA
ATOM     16  N   UNL     1       2.282   3.553  18.560  0.00  0.00    +0.000 N 
ATOM     17  C   UNL     1       2.820   4.807  18.333  0.00  0.00    +0.000 A 
ATOM     18  N   UNL     1       2.174   5.952  18.353  0.00  0.00    +0.000 NA
ATOM     19  H   UNL     1       5.348   2.873  17.866  0.00  0.00    +0.000 HD
ATOM     20  H   UNL     1       1.324   3.355  18.785  0.00  0.00    +0.000 HD
ENDBRANCH   2   9
BRANCH   6  21
ATOM     21  C   UNL     1       0.136   9.972  22.493  0.00  0.00    +0.000 C 
BRANCH  21  22
ATOM     22  C   UNL     1      -0.704  11.228  22.559  0.00  0.00    +0.000 A 
ATOM     23  C   UNL     1      -0.227  12.437  22.031  0.00  0.00    +0.000 A 
ATOM     24  C   UNL     1      -0.921  13.630  22.238  0.00  0.00    +0.000 A 
ATOM     25  C   UNL     1      -2.130  13.619  22.927  0.00  0.00    +0.000 A 
ATOM     26  C   UNL     1      -2.661  12.411  23.374  0.00  0.00    +0.000 A 
ATOM     27  C   UNL     1      -1.955  11.221  23.189  0.00  0.00    +0.000 A 
ENDBRANCH  21  22
ENDBRANCH   6  21
TORSDOF 3
ENDMDL
MODEL 8
REMARK VINA RESULT:      -7.3      2.024      2.494
REMARK  Name = 
REMARK  3 active torsions:
REMARK  status: ('A' for Active; 'I' for Inactive)
REMARK    1  A    between atoms: C_2  and  C_3
REMARK    2  A    between atoms: C_16  and  C_17
REMARK    3  A    between atoms: C_17  and  C_18
REMARK                            x       y       z     vdW  Elec       q    Type
REMARK                         _______ _______ _______ _____ _____    ______ ____
ROOT
ATOM      1  O   UNL     1       4.029   4.880  19.938  0.00  0.00    +0.000 OA
ATOM      2  C   UNL     1       3.887   5.587  18.940  0.00  0.00    +0.000 C 
ATOM      3  N   UNL     1       2.804   6.450  18.762  0.00  0.00    +0.000 N 
ATOM      4  C   UNL     1       2.594   7.273  17.579  0.00  0.00    +0.000 C 
ATOM      5  C   UNL     1       2.681   8.744  17.940  0.00  0.00    +0.000 C 
ATOM      6  C   UNL     1       1.622   9.095  19.002  0.00  0.00    +0.000 C 
ATOM      7  C   UNL     1       1.849   8.174  20.224  0.00  0.00    +0.000 C 
ATOM      8  C   UNL     1       1.864   6.684  19.851  0.00  0.00    +0.000 C 
ENDROOT
BRANCH   2   9
ATOM      9  C   UNL     1       4.938   5.528  17.873  0.00  0.00    +0.000 A 
ATOM     10  C   UNL     1       6.150   6.197  18.048  0.00  0.00    +0.000 A 
ATOM     11  C   UNL     1       7.098   6.164  17.018  0.00  0.00    +0.000 A 
ATOM     12  C   UNL     1       6.756   5.439  15.899  0.00  0.00    +0.000 A 
ATOM     13  N   UNL     1       7.438   5.232  14.706  0.00  0.00    +0.000 N 
ATOM     14  C   UNL     1       6.620   4.456  13.875  0.00  0.00    +0.000 A 
ATOM     15  O   UNL     1       6.897   4.071  12.737  0.00  0.00    +0.000 OA
ATOM     16  N   UNL     1       5.440   4.205  14.569  0.00  0.00    +0.000 N 
ATOM     17  C   UNL     1       5.529   4.827  15.802  0.00  0.00    +0.000 A 
ATOM     18  N   UNL     1       4.597   4.866  16.729  0.00  0.00    +0.000 NA
ATOM     19  H   UNL     1       8.352   5.564  14.448  0.00  0.00    +0.000 HD
ATOM     20  H   UNL     1       4.651   3.687  14.227  0.00  0.00    +0.000 HD
ENDBRANCH   2   9
BRANCH   6  21
ATOM     21  C   UNL     1       0.150   9.015  18.509  0.00  0.00    +0.000 C 
BRANCH  21  22
ATOM     22  C   UNL     1      -0.678  10.237  18.839  0.00  0.00    +0.000 A 
ATOM     23  C   UNL     1      -0.462  10.948  20.028  0.00  0.00    +0.000 A 
ATOM     24  C   UNL     1      -1.330  11.970  20.418  0.00  0.00    +0.000 A 
ATOM     25  C   UNL     1      -2.392  12.330  19.593  0.00  0.00    +0.000 A 
ATOM     26  C   UNL     1      -2.562  11.694  18.365  0.00  0.00    +0.000 A 
ATOM     27  C   UNL     1      -1.708  10.655  17.987  0.00  0.00    +0.000 A 
ENDBRANCH  21  22
ENDBRANCH   6  21
TORSDOF 3
ENDMDL
MODEL 9
REMARK VINA RESULT:      -7.3      2.742      4.384
REMARK  Name = 
REMARK  3 active torsions:
REMARK  status: ('A' for Active; 'I' for Inactive)
REMARK    1  A    between atoms: C_2  and  C_3
REMARK    2  A    between atoms: C_16  and  C_17
REMARK    3  A    between atoms: C_17  and  C_18
REMARK                            x       y       z     vdW  Elec       q    Type
REMARK                         _______ _______ _______ _____ _____    ______ ____
ROOT
ATOM      1  O   UNL     1       1.881   9.094  17.083  0.00  0.00    +0.000 OA
ATOM      2  C   UNL     1       2.099   8.517  18.149  0.00  0.00    +0.000 C 
ATOM      3  N   UNL     1       1.644   8.990  19.382  0.00  0.00    +0.000 N 
ATOM      4  C   UNL     1       1.914   8.347  20.660  0.00  0.00    +0.000 C 
ATOM      5  C   UNL     1       0.624   7.843  21.278  0.00  0.00    +0.000 C 
ATOM      6  C   UNL     1      -0.357   9.013  21.491  0.00  0.00    +0.000 C 
ATOM      7  C   UNL     1      -0.586   9.697  20.121  0.00  0.00    +0.000 C 
ATOM      8  C   UNL     1       0.723  10.119  19.440  0.00  0.00    +0.000 C 
ENDROOT
BRANCH   2   9
ATOM      9  C   UNL     1       2.878   7.237  18.117  0.00  0.00    +0.000 A 
ATOM     10  C   UNL     1       2.223   6.016  18.286  0.00  0.00    +0.000 A 
ATOM     11  C   UNL     1       2.979   4.838  18.297  0.00  0.00    +0.000 A 
ATOM     12  C   UNL     1       4.336   4.982  18.114  0.00  0.00    +0.000 A 
ATOM     13  N   UNL     1       5.358   4.041  18.105  0.00  0.00    +0.000 N 
ATOM     14  C   UNL     1       6.567   4.725  17.931  0.00  0.00    +0.000 A 
ATOM     15  O   UNL     1       7.688   4.214  17.868  0.00  0.00    +0.000 OA
ATOM     16  N   UNL     1       6.270   6.082  17.845  0.00  0.00    +0.000 N 
ATOM     17  C   UNL     1       4.900   6.228  17.976  0.00  0.00    +0.000 A 
ATOM     18  N   UNL     1       4.232   7.360  17.999  0.00  0.00    +0.000 NA
ATOM     19  H   UNL     1       5.282   3.043  18.204  0.00  0.00    +0.000 HD
ATOM     20  H   UNL     1       6.934   6.827  17.735  0.00  0.00    +0.000 HD
ENDBRANCH   2   9
BRANCH   6  21
ATOM     21  C   UNL     1       0.083  10.048  22.564  0.00  0.00    +0.000 C 
BRANCH  21  22
ATOM     22  C   UNL     1      -0.783  11.287  22.616  0.00  0.00    +0.000 A 
ATOM     23  C   UNL     1      -0.321  12.505  22.096  0.00  0.00    +0.000 A 
ATOM     24  C   UNL     1      -1.042  13.685  22.291  0.00  0.00    +0.000 A 
ATOM     25  C   UNL     1      -2.262  13.649  22.960  0.00  0.00    +0.000 A 
ATOM     26  C   UNL     1      -2.777  12.431  23.398  0.00  0.00    +0.000 A 
ATOM     27  C   UNL     1      -2.044  11.255  23.225  0.00  0.00    +0.000 A 
ENDBRANCH  21  22
ENDBRANCH   6  21
TORSDOF 3
ENDMDL
