MODEL 1
REMARK VINA RESULT:      -8.6      0.000      0.000
REMARK  Name = 
REMARK  7 active torsions:
REMARK  status: ('A' for Active; 'I' for Inactive)
REMARK    1  A    between atoms: C_1  and  N_2
REMARK    2  A    between atoms: C_6  and  S_7
REMARK    3  A    between atoms: S_7  and  C_8
REMARK    4  A    between atoms: C_8  and  C_9
REMARK    5  A    between atoms: N_11  and  C_12
REMARK    6  A    between atoms: C_15  and  C_16
REMARK    7  A    between atoms: N_18  and  C_19
REMARK                            x       y       z     vdW  Elec       q    Type
REMARK                         _______ _______ _______ _____ _____    ______ ____
ROOT
ATOM      1  C   UNL     1      -0.313  11.424  20.946  0.00  0.00    +0.000 A 
ATOM      2  C   UNL     1       0.166  10.210  21.458  0.00  0.00    +0.000 A 
ATOM      3  C   UNL     1       0.896   9.310  20.659  0.00  0.00    +0.000 A 
ATOM      4  C   UNL     1       1.143   9.612  19.323  0.00  0.00    +0.000 A 
ATOM      5  C   UNL     1       0.646  10.825  18.803  0.00  0.00    +0.000 A 
ATOM      6  C   UNL     1      -0.080  11.720  19.602  0.00  0.00    +0.000 A 
ENDROOT
BRANCH   1   9
ATOM      7  C   UNL     1      -0.516  13.500  22.316  0.00  0.00    +0.000 C 
ATOM      8  O   UNL     1       0.653  13.862  22.265  0.00  0.00    +0.000 OA
ATOM      9  N   UNL     1      -1.038  12.371  21.705  0.00  0.00    +0.000 N 
ATOM     10  H   UNL     1      -2.052  12.315  21.644  0.00  0.00    +0.000 HD
BRANCH   7  11
ATOM     11  C   UNL     1      -1.550  14.349  23.047  0.00  0.00    +0.000 C 
BRANCH  11  12
ATOM     12  S   UNL     1      -3.125  14.343  22.136  0.00  0.00    +0.000 S 
BRANCH  12  18
ATOM     13  C   UNL     1      -6.350  14.365  22.653  0.00  0.00    +0.000 C 
ATOM     14  N   UNL     1      -5.438  13.467  23.299  0.00  0.00    +0.000 N 
ATOM     15  N   UNL     1      -5.878  12.528  24.164  0.00  0.00    +0.000 NA
ATOM     16  N   UNL     1      -4.790  11.855  24.526  0.00  0.00    +0.000 NA
ATOM     17  N   UNL     1      -3.674  12.352  23.910  0.00  0.00    +0.000 NA
ATOM     18  C   UNL     1      -4.088  13.346  23.161  0.00  0.00    +0.000 A 
ENDBRANCH  12  18
ENDBRANCH  11  12
ENDBRANCH   7  11
ENDBRANCH   1   9
BRANCH   4  19
ATOM     19  C   UNL     1       1.787   8.671  18.361  0.00  0.00    +0.000 C 
ATOM     20  O   UNL     1       1.961   9.126  17.232  0.00  0.00    +0.000 OA
ATOM     21  N   UNL     1       2.137   7.378  18.771  0.00  0.00    +0.000 N 
ATOM     22  H   UNL     1       1.833   7.042  19.675  0.00  0.00    +0.000 HD
BRANCH  21  23
ATOM     23  C   UNL     1       3.045   6.522  18.048  0.00  0.00    +0.000 A 
ATOM     24  C   UNL     1       4.165   7.086  17.412  0.00  0.00    +0.000 A 
ATOM     25  C   UNL     1       5.131   6.308  16.786  0.00  0.00    +0.000 A 
ATOM     26  C   UNL     1       5.071   4.934  16.896  0.00  0.00    +0.000 A 
ATOM     27  C   UNL     1       3.982   4.320  17.510  0.00  0.00    +0.000 A 
ATOM     28  C   UNL     1       3.976   2.924  17.551  0.00  0.00    +0.000 A 
ATOM     29  C   UNL     1       2.791   2.243  17.757  0.00  0.00    +0.000 A 
ATOM     30  C   UNL     1       1.644   2.962  18.084  0.00  0.00    +0.000 A 
ATOM     31  C   UNL     1       1.711   4.351  18.296  0.00  0.00    +0.000 A 
ATOM     32  C   UNL     1       2.887   5.094  18.001  0.00  0.00    +0.000 A 
ENDBRANCH  21  23
ENDBRANCH   4  19
TORSDOF 6
ENDMDL
MODEL 2
REMARK VINA RESULT:      -8.5      1.376      2.425
REMARK  Name = 
REMARK  7 active torsions:
REMARK  status: ('A' for Active; 'I' for Inactive)
REMARK    1  A    between atoms: C_1  and  N_2
REMARK    2  A    between atoms: C_6  and  S_7
REMARK    3  A    between atoms: S_7  and  C_8
REMARK    4  A    between atoms: C_8  and  C_9
REMARK    5  A    between atoms: N_11  and  C_12
REMARK    6  A    between atoms: C_15  and  C_16
REMARK    7  A    between atoms: N_18  and  C_19
REMARK                            x       y       z     vdW  Elec       q    Type
REMARK                         _______ _______ _______ _____ _____    ______ ____
ROOT
ATOM      1  C   UNL     1      -0.220  10.510  21.153  0.00  0.00    +0.000 A 
ATOM      2  C   UNL     1       0.212   9.614  22.140  0.00  0.00    +0.000 A 
ATOM      3  C   UNL     1       1.017   8.503  21.827  0.00  0.00    +0.000 A 
ATOM      4  C   UNL     1       1.390   8.267  20.507  0.00  0.00    +0.000 A 
ATOM      5  C   UNL     1       0.942   9.159  19.511  0.00  0.00    +0.000 A 
ATOM      6  C   UNL     1       0.140  10.265  19.826  0.00  0.00    +0.000 A 
ENDROOT
BRANCH   1   9
ATOM      7  C   UNL     1      -0.553  12.911  21.747  0.00  0.00    +0.000 C 
ATOM      8  O   UNL     1       0.624  13.236  21.844  0.00  0.00    +0.000 OA
ATOM      9  N   UNL     1      -1.017  11.649  21.411  0.00  0.00    +0.000 N 
ATOM     10  H   UNL     1      -1.997  11.580  21.152  0.00  0.00    +0.000 HD
BRANCH   7  11
ATOM     11  C   UNL     1      -1.653  13.948  21.943  0.00  0.00    +0.000 C 
BRANCH  11  12
ATOM     12  S   UNL     1      -3.216  13.347  21.232  0.00  0.00    +0.000 S 
BRANCH  12  18
ATOM     13  C   UNL     1      -6.335  13.732  22.120  0.00  0.00    +0.000 C 
ATOM     14  N   UNL     1      -5.352  13.056  22.913  0.00  0.00    +0.000 N 
ATOM     15  N   UNL     1      -5.675  12.494  24.098  0.00  0.00    +0.000 NA
ATOM     16  N   UNL     1      -4.554  11.922  24.526  0.00  0.00    +0.000 NA
ATOM     17  N   UNL     1      -3.530  12.115  23.638  0.00  0.00    +0.000 NA
ATOM     18  C   UNL     1      -4.035  12.817  22.653  0.00  0.00    +0.000 A 
ENDBRANCH  12  18
ENDBRANCH  11  12
ENDBRANCH   7  11
ENDBRANCH   1   9
BRANCH   4  19
ATOM     19  C   UNL     1       2.126   7.052  20.054  0.00  0.00    +0.000 C 
ATOM     20  O   UNL     1       2.160   6.133  20.871  0.00  0.00    +0.000 OA
ATOM     21  N   UNL     1       2.721   7.023  18.786  0.00  0.00    +0.000 N 
ATOM     22  H   UNL     1       2.763   7.870  18.236  0.00  0.00    +0.000 HD
BRANCH  21  23
ATOM     23  C   UNL     1       3.155   5.816  18.127  0.00  0.00    +0.000 A 
ATOM     24  C   UNL     1       2.287   4.712  18.070  0.00  0.00    +0.000 A 
ATOM     25  C   UNL     1       2.602   3.557  17.365  0.00  0.00    +0.000 A 
ATOM     26  C   UNL     1       3.741   3.528  16.586  0.00  0.00    +0.000 A 
ATOM     27  C   UNL     1       4.640   4.591  16.608  0.00  0.00    +0.000 A 
ATOM     28  C   UNL     1       5.788   4.471  15.820  0.00  0.00    +0.000 A 
ATOM     29  C   UNL     1       6.895   5.256  16.087  0.00  0.00    +0.000 A 
ATOM     30  C   UNL     1       6.794   6.270  17.036  0.00  0.00    +0.000 A 
ATOM     31  C   UNL     1       5.557   6.555  17.644  0.00  0.00    +0.000 A 
ATOM     32  C   UNL     1       4.427   5.711  17.466  0.00  0.00    +0.000 A 
ENDBRANCH  21  23
ENDBRANCH   4  19
TORSDOF 6
ENDMDL
MODEL 3
REMARK VINA RESULT:      -8.5      4.772     11.477
REMARK  Name = 
REMARK  7 active torsions:
REMARK  status: ('A' for Active; 'I' for Inactive)
REMARK    1  A    between atoms: C_1  and  N_2
REMARK    2  A    between atoms: C_6  and  S_7
REMARK    3  A    between atoms: S_7  and  C_8
REMARK    4  A    between atoms: C_8  and  C_9
REMARK    5  A    between atoms: N_11  and  C_12
REMARK    6  A    between atoms: C_15  and  C_16
REMARK    7  A    between atoms: N_18  and  C_19
REMARK                            x       y       z     vdW  Elec       q    Type
REMARK                         _______ _______ _______ _____ _____    ______ ____
ROOT
ATOM      1  C   UNL     1       3.830   6.423  18.029  0.00  0.00    +0.000 A 
ATOM      2  C   UNL     1       3.170   6.194  19.245  0.00  0.00    +0.000 A 
ATOM      3  C   UNL     1       2.231   7.108  19.758  0.00  0.00    +0.000 A 
ATOM      4  C   UNL     1       1.951   8.280  19.060  0.00  0.00    +0.000 A 
ATOM      5  C   UNL     1       2.628   8.519  17.846  0.00  0.00    +0.000 A 
ATOM      6  C   UNL     1       3.563   7.606  17.338  0.00  0.00    +0.000 A 
ENDROOT
BRANCH   1   9
ATOM      7  C   UNL     1       6.063   5.315  17.911  0.00  0.00    +0.000 C 
ATOM      8  O   UNL     1       6.575   5.841  18.892  0.00  0.00    +0.000 OA
ATOM      9  N   UNL     1       4.771   5.535  17.460  0.00  0.00    +0.000 N 
ATOM     10  H   UNL     1       4.409   4.873  16.778  0.00  0.00    +0.000 HD
BRANCH   7  11
ATOM     11  C   UNL     1       6.837   4.277  17.105  0.00  0.00    +0.000 C 
BRANCH  11  12
ATOM     12  S   UNL     1       5.906   3.820  15.611  0.00  0.00    +0.000 S 
BRANCH  12  18
ATOM     13  C   UNL     1       5.911   3.345  12.380  0.00  0.00    +0.000 C 
ATOM     14  N   UNL     1       6.793   4.246  13.061  0.00  0.00    +0.000 N 
ATOM     15  N   UNL     1       7.685   4.998  12.381  0.00  0.00    +0.000 NA
ATOM     16  N   UNL     1       8.288   5.739  13.306  0.00  0.00    +0.000 NA
ATOM     17  N   UNL     1       7.798   5.467  14.554  0.00  0.00    +0.000 NA
ATOM     18  C   UNL     1       6.881   4.544  14.388  0.00  0.00    +0.000 A 
ENDBRANCH  12  18
ENDBRANCH  11  12
ENDBRANCH   7  11
ENDBRANCH   1   9
BRANCH   4  19
ATOM     19  C   UNL     1       1.077   9.370  19.580  0.00  0.00    +0.000 C 
ATOM     20  O   UNL     1       1.073   9.490  20.804  0.00  0.00    +0.000 OA
ATOM     21  N   UNL     1       0.333  10.159  18.692  0.00  0.00    +0.000 N 
ATOM     22  H   UNL     1       0.290   9.902  17.715  0.00  0.00    +0.000 HD
BRANCH  21  23
ATOM     23  C   UNL     1      -0.266  11.422  19.044  0.00  0.00    +0.000 A 
ATOM     24  C   UNL     1      -1.615  11.459  19.438  0.00  0.00    +0.000 A 
ATOM     25  C   UNL     1      -2.224  12.625  19.884  0.00  0.00    +0.000 A 
ATOM     26  C   UNL     1      -1.460  13.759  20.076  0.00  0.00    +0.000 A 
ATOM     27  C   UNL     1      -0.120  13.781  19.698  0.00  0.00    +0.000 A 
ATOM     28  C   UNL     1       0.576  14.976  19.890  0.00  0.00    +0.000 A 
ATOM     29  C   UNL     1       1.745  15.216  19.190  0.00  0.00    +0.000 A 
ATOM     30  C   UNL     1       2.297  14.194  18.423  0.00  0.00    +0.000 A 
ATOM     31  C   UNL     1       1.729  12.906  18.438  0.00  0.00    +0.000 A 
ATOM     32  C   UNL     1       0.481  12.650  19.067  0.00  0.00    +0.000 A 
ENDBRANCH  21  23
ENDBRANCH   4  19
TORSDOF 6
ENDMDL
MODEL 4
REMARK VINA RESULT:      -8.4      4.742     10.166
REMARK  Name = 
REMARK  7 active torsions:
REMARK  status: ('A' for Active; 'I' for Inactive)
REMARK    1  A    between atoms: C_1  and  N_2
REMARK    2  A    between atoms: C_6  and  S_7
REMARK    3  A    between atoms: S_7  and  C_8
REMARK    4  A    between atoms: C_8  and  C_9
REMARK    5  A    between atoms: N_11  and  C_12
REMARK    6  A    between atoms: C_15  and  C_16
REMARK    7  A    between atoms: N_18  and  C_19
REMARK                            x       y       z     vdW  Elec       q    Type
REMARK                         _______ _______ _______ _____ _____    ______ ____
ROOT
ATOM      1  C   UNL     1       2.516   7.184  18.716  0.00  0.00    +0.000 A 
ATOM      2  C   UNL     1       1.940   7.501  19.954  0.00  0.00    +0.000 A 
ATOM      3  C   UNL     1       1.395   8.773  20.209  0.00  0.00    +0.000 A 
ATOM      4  C   UNL     1       1.435   9.755  19.223  0.00  0.00    +0.000 A 
ATOM      5  C   UNL     1       2.030   9.441  17.984  0.00  0.00    +0.000 A 
ATOM      6  C   UNL     1       2.572   8.173  17.733  0.00  0.00    +0.000 A 
ENDROOT
BRANCH   1   9
ATOM      7  C   UNL     1       2.381   4.847  17.852  0.00  0.00    +0.000 C 
ATOM      8  O   UNL     1       1.199   4.842  17.533  0.00  0.00    +0.000 OA
ATOM      9  N   UNL     1       3.066   5.920  18.400  0.00  0.00    +0.000 N 
ATOM     10  H   UNL     1       4.080   5.856  18.407  0.00  0.00    +0.000 HD
BRANCH   7  11
ATOM     11  C   UNL     1       3.249   3.618  17.599  0.00  0.00    +0.000 C 
BRANCH  11  12
ATOM     12  S   UNL     1       2.368   2.111  18.113  0.00  0.00    +0.000 S 
BRANCH  12  18
ATOM     13  C   UNL     1       4.630   2.077  20.468  0.00  0.00    +0.000 C 
ATOM     14  N   UNL     1       3.239   2.336  20.694  0.00  0.00    +0.000 N 
ATOM     15  N   UNL     1       2.773   2.620  21.929  0.00  0.00    +0.000 NA
ATOM     16  N   UNL     1       1.474   2.850  21.764  0.00  0.00    +0.000 NA
ATOM     17  N   UNL     1       1.111   2.714  20.451  0.00  0.00    +0.000 NA
ATOM     18  C   UNL     1       2.207   2.394  19.806  0.00  0.00    +0.000 A 
ENDBRANCH  12  18
ENDBRANCH  11  12
ENDBRANCH   7  11
ENDBRANCH   1   9
BRANCH   4  19
ATOM     19  C   UNL     1       1.007  11.168  19.437  0.00  0.00    +0.000 C 
ATOM     20  O   UNL     1       0.680  11.440  20.591  0.00  0.00    +0.000 OA
ATOM     21  N   UNL     1       0.992  12.068  18.363  0.00  0.00    +0.000 N 
ATOM     22  H   UNL     1       1.144  11.725  17.424  0.00  0.00    +0.000 HD
BRANCH  21  23
ATOM     23  C   UNL     1       0.924  13.500  18.512  0.00  0.00    +0.000 A 
ATOM     24  C   UNL     1      -0.327  14.116  18.689  0.00  0.00    +0.000 A 
ATOM     25  C   UNL     1      -0.454  15.477  18.938  0.00  0.00    +0.000 A 
ATOM     26  C   UNL     1       0.678  16.236  19.151  0.00  0.00    +0.000 A 
ATOM     27  C   UNL     1       1.944  15.679  18.984  0.00  0.00    +0.000 A 
ATOM     28  C   UNL     1       3.041  16.521  19.183  0.00  0.00    +0.000 A 
ATOM     29  C   UNL     1       4.275  16.185  18.655  0.00  0.00    +0.000 A 
ATOM     30  C   UNL     1       4.443  14.933  18.070  0.00  0.00    +0.000 A 
ATOM     31  C   UNL     1       3.403  13.986  18.103  0.00  0.00    +0.000 A 
ATOM     32  C   UNL     1       2.098  14.329  18.550  0.00  0.00    +0.000 A 
ENDBRANCH  21  23
ENDBRANCH   4  19
TORSDOF 6
ENDMDL
MODEL 5
REMARK VINA RESULT:      -8.4      1.191      1.499
REMARK  Name = 
REMARK  7 active torsions:
REMARK  status: ('A' for Active; 'I' for Inactive)
REMARK    1  A    between atoms: C_1  and  N_2
REMARK    2  A    between atoms: C_6  and  S_7
REMARK    3  A    between atoms: S_7  and  C_8
REMARK    4  A    between atoms: C_8  and  C_9
REMARK    5  A    between atoms: N_11  and  C_12
REMARK    6  A    between atoms: C_15  and  C_16
REMARK    7  A    between atoms: N_18  and  C_19
REMARK                            x       y       z     vdW  Elec       q    Type
REMARK                         _______ _______ _______ _____ _____    ______ ____
ROOT
ATOM      1  C   UNL     1      -0.564  10.871  19.912  0.00  0.00    +0.000 A 
ATOM      2  C   UNL     1      -0.055  10.700  18.617  0.00  0.00    +0.000 A 
ATOM      3  C   UNL     1       0.846   9.663  18.310  0.00  0.00    +0.000 A 
ATOM      4  C   UNL     1       1.261   8.787  19.308  0.00  0.00    +0.000 A 
ATOM      5  C   UNL     1       0.763   8.970  20.615  0.00  0.00    +0.000 A 
ATOM      6  C   UNL     1      -0.135  10.003  20.918  0.00  0.00    +0.000 A 
ENDROOT
BRANCH   1   9
ATOM      7  C   UNL     1      -1.164  13.097  20.866  0.00  0.00    +0.000 C 
ATOM      8  O   UNL     1      -0.035  13.485  21.138  0.00  0.00    +0.000 OA
ATOM      9  N   UNL     1      -1.481  11.884  20.275  0.00  0.00    +0.000 N 
ATOM     10  H   UNL     1      -2.424  11.791  19.908  0.00  0.00    +0.000 HD
BRANCH   7  11
ATOM     11  C   UNL     1      -2.367  14.001  21.119  0.00  0.00    +0.000 C 
BRANCH  11  12
ATOM     12  S   UNL     1      -3.911  13.091  20.809  0.00  0.00    +0.000 S 
BRANCH  12  18
ATOM     13  C   UNL     1      -6.831  13.360  22.246  0.00  0.00    +0.000 C 
ATOM     14  N   UNL     1      -5.652  12.882  22.905  0.00  0.00    +0.000 N 
ATOM     15  N   UNL     1      -5.688  12.473  24.192  0.00  0.00    +0.000 NA
ATOM     16  N   UNL     1      -4.454  12.056  24.456  0.00  0.00    +0.000 NA
ATOM     17  N   UNL     1      -3.640  12.196  23.365  0.00  0.00    +0.000 NA
ATOM     18  C   UNL     1      -4.390  12.709  22.420  0.00  0.00    +0.000 A 
ENDBRANCH  12  18
ENDBRANCH  11  12
ENDBRANCH   7  11
ENDBRANCH   1   9
BRANCH   4  19
ATOM     19  C   UNL     1       2.309   7.743  19.118  0.00  0.00    +0.000 C 
ATOM     20  O   UNL     1       2.577   7.090  20.125  0.00  0.00    +0.000 OA
ATOM     21  N   UNL     1       2.913   7.573  17.865  0.00  0.00    +0.000 N 
ATOM     22  H   UNL     1       2.732   8.244  17.130  0.00  0.00    +0.000 HD
BRANCH  21  23
ATOM     23  C   UNL     1       3.671   6.406  17.487  0.00  0.00    +0.000 A 
ATOM     24  C   UNL     1       4.969   6.565  16.971  0.00  0.00    +0.000 A 
ATOM     25  C   UNL     1       5.789   5.482  16.682  0.00  0.00    +0.000 A 
ATOM     26  C   UNL     1       5.379   4.210  17.028  0.00  0.00    +0.000 A 
ATOM     27  C   UNL     1       4.101   3.993  17.537  0.00  0.00    +0.000 A 
ATOM     28  C   UNL     1       3.747   2.674  17.830  0.00  0.00    +0.000 A 
ATOM     29  C   UNL     1       2.414   2.323  17.939  0.00  0.00    +0.000 A 
ATOM     30  C   UNL     1       1.446   3.324  17.917  0.00  0.00    +0.000 A 
ATOM     31  C   UNL     1       1.824   4.679  17.881  0.00  0.00    +0.000 A 
ATOM     32  C   UNL     1       3.175   5.070  17.672  0.00  0.00    +0.000 A 
ENDBRANCH  21  23
ENDBRANCH   4  19
TORSDOF 6
ENDMDL
MODEL 6
REMARK VINA RESULT:      -8.4      4.722     10.932
REMARK  Name = 
REMARK  7 active torsions:
REMARK  status: ('A' for Active; 'I' for Inactive)
REMARK    1  A    between atoms: C_1  and  N_2
REMARK    2  A    between atoms: C_6  and  S_7
REMARK    3  A    between atoms: S_7  and  C_8
REMARK    4  A    between atoms: C_8  and  C_9
REMARK    5  A    between atoms: N_11  and  C_12
REMARK    6  A    between atoms: C_15  and  C_16
REMARK    7  A    between atoms: N_18  and  C_19
REMARK                            x       y       z     vdW  Elec       q    Type
REMARK                         _______ _______ _______ _____ _____    ______ ____
ROOT
ATOM      1  C   UNL     1       2.642   7.092  18.748  0.00  0.00    +0.000 A 
ATOM      2  C   UNL     1       2.053   7.422  19.976  0.00  0.00    +0.000 A 
ATOM      3  C   UNL     1       1.433   8.668  20.186  0.00  0.00    +0.000 A 
ATOM      4  C   UNL     1       1.409   9.611  19.163  0.00  0.00    +0.000 A 
ATOM      5  C   UNL     1       2.017   9.286  17.932  0.00  0.00    +0.000 A 
ATOM      6  C   UNL     1       2.633   8.044  17.727  0.00  0.00    +0.000 A 
ENDROOT
BRANCH   1   9
ATOM      7  C   UNL     1       2.659   4.738  17.920  0.00  0.00    +0.000 C 
ATOM      8  O   UNL     1       1.492   4.669  17.553  0.00  0.00    +0.000 OA
ATOM      9  N   UNL     1       3.266   5.853  18.476  0.00  0.00    +0.000 N 
ATOM     10  H   UNL     1       4.281   5.840  18.526  0.00  0.00    +0.000 HD
BRANCH   7  11
ATOM     11  C   UNL     1       3.595   3.550  17.724  0.00  0.00    +0.000 C 
BRANCH  11  12
ATOM     12  S   UNL     1       5.261   3.958  18.332  0.00  0.00    +0.000 S 
BRANCH  12  18
ATOM     13  C   UNL     1       7.301   6.423  17.680  0.00  0.00    +0.000 C 
ATOM     14  N   UNL     1       6.875   5.455  16.713  0.00  0.00    +0.000 N 
ATOM     15  N   UNL     1       7.331   5.490  15.442  0.00  0.00    +0.000 NA
ATOM     16  N   UNL     1       6.778   4.437  14.848  0.00  0.00    +0.000 NA
ATOM     17  N   UNL     1       5.982   3.741  15.716  0.00  0.00    +0.000 NA
ATOM     18  C   UNL     1       6.048   4.381  16.859  0.00  0.00    +0.000 A 
ENDBRANCH  12  18
ENDBRANCH  11  12
ENDBRANCH   7  11
ENDBRANCH   1   9
BRANCH   4  19
ATOM     19  C   UNL     1       0.897  11.003  19.325  0.00  0.00    +0.000 C 
ATOM     20  O   UNL     1       0.302  11.215  20.380  0.00  0.00    +0.000 OA
ATOM     21  N   UNL     1       1.101  11.949  18.312  0.00  0.00    +0.000 N 
ATOM     22  H   UNL     1       1.477  11.652  17.422  0.00  0.00    +0.000 HD
BRANCH  21  23
ATOM     23  C   UNL     1       0.953  13.371  18.496  0.00  0.00    +0.000 A 
ATOM     24  C   UNL     1      -0.333  13.915  18.657  0.00  0.00    +0.000 A 
ATOM     25  C   UNL     1      -0.539  15.260  18.938  0.00  0.00    +0.000 A 
ATOM     26  C   UNL     1       0.546  16.072  19.199  0.00  0.00    +0.000 A 
ATOM     27  C   UNL     1       1.844  15.588  19.049  0.00  0.00    +0.000 A 
ATOM     28  C   UNL     1       2.889  16.481  19.296  0.00  0.00    +0.000 A 
ATOM     29  C   UNL     1       4.151  16.226  18.790  0.00  0.00    +0.000 A 
ATOM     30  C   UNL     1       4.400  15.000  18.178  0.00  0.00    +0.000 A 
ATOM     31  C   UNL     1       3.411  13.999  18.161  0.00  0.00    +0.000 A 
ATOM     32  C   UNL     1       2.080  14.260  18.584  0.00  0.00    +0.000 A 
ENDBRANCH  21  23
ENDBRANCH   4  19
TORSDOF 6
ENDMDL
MODEL 7
REMARK VINA RESULT:      -8.4      3.991     10.871
REMARK  Name = 
REMARK  7 active torsions:
REMARK  status: ('A' for Active; 'I' for Inactive)
REMARK    1  A    between atoms: C_1  and  N_2
REMARK    2  A    between atoms: C_6  and  S_7
REMARK    3  A    between atoms: S_7  and  C_8
REMARK    4  A    between atoms: C_8  and  C_9
REMARK    5  A    between atoms: N_11  and  C_12
REMARK    6  A    between atoms: C_15  and  C_16
REMARK    7  A    between atoms: N_18  and  C_19
REMARK                            x       y       z     vdW  Elec       q    Type
REMARK                         _______ _______ _______ _____ _____    ______ ____
ROOT
ATOM      1  C   UNL     1       2.601   7.370  18.787  0.00  0.00    +0.000 A 
ATOM      2  C   UNL     1       2.489   8.269  17.717  0.00  0.00    +0.000 A 
ATOM      3  C   UNL     1       1.739   9.455  17.825  0.00  0.00    +0.000 A 
ATOM      4  C   UNL     1       1.073   9.749  19.012  0.00  0.00    +0.000 A 
ATOM      5  C   UNL     1       1.171   8.835  20.082  0.00  0.00    +0.000 A 
ATOM      6  C   UNL     1       1.919   7.656  19.971  0.00  0.00    +0.000 A 
ENDROOT
BRANCH   1   9
ATOM      7  C   UNL     1       2.925   4.963  18.214  0.00  0.00    +0.000 C 
ATOM      8  O   UNL     1       1.840   4.758  17.684  0.00  0.00    +0.000 OA
ATOM      9  N   UNL     1       3.351   6.173  18.739  0.00  0.00    +0.000 N 
ATOM     10  H   UNL     1       4.343   6.256  18.942  0.00  0.00    +0.000 HD
BRANCH   7  11
ATOM     11  C   UNL     1       3.967   3.852  18.282  0.00  0.00    +0.000 C 
BRANCH  11  12
ATOM     12  S   UNL     1       5.592   4.542  18.721  0.00  0.00    +0.000 S 
BRANCH  12  18
ATOM     13  C   UNL     1       7.405   6.998  17.559  0.00  0.00    +0.000 C 
ATOM     14  N   UNL     1       7.015   5.853  16.791  0.00  0.00    +0.000 N 
ATOM     15  N   UNL     1       7.414   5.704  15.509  0.00  0.00    +0.000 NA
ATOM     16  N   UNL     1       6.921   4.529  15.129  0.00  0.00    +0.000 NA
ATOM     17  N   UNL     1       6.218   3.936  16.142  0.00  0.00    +0.000 NA
ATOM     18  C   UNL     1       6.282   4.764  17.157  0.00  0.00    +0.000 A 
ENDBRANCH  12  18
ENDBRANCH  11  12
ENDBRANCH   7  11
ENDBRANCH   1   9
BRANCH   4  19
ATOM     19  C   UNL     1       0.148  10.906  19.184  0.00  0.00    +0.000 C 
ATOM     20  O   UNL     1      -0.965  10.756  18.683  0.00  0.00    +0.000 OA
ATOM     21  N   UNL     1       0.576  12.052  19.867  0.00  0.00    +0.000 N 
ATOM     22  H   UNL     1       1.549  12.144  20.125  0.00  0.00    +0.000 HD
BRANCH  21  23
ATOM     23  C   UNL     1      -0.314  13.067  20.374  0.00  0.00    +0.000 A 
ATOM     24  C   UNL     1      -0.295  14.350  19.801  0.00  0.00    +0.000 A 
ATOM     25  C   UNL     1      -1.193  15.342  20.174  0.00  0.00    +0.000 A 
ATOM     26  C   UNL     1      -2.223  15.033  21.038  0.00  0.00    +0.000 A 
ATOM     27  C   UNL     1      -2.289  13.779  21.641  0.00  0.00    +0.000 A 
ATOM     28  C   UNL     1      -3.341  13.554  22.532  0.00  0.00    +0.000 A 
ATOM     29  C   UNL     1      -3.257  12.531  23.459  0.00  0.00    +0.000 A 
ATOM     30  C   UNL     1      -2.193  11.636  23.384  0.00  0.00    +0.000 A 
ATOM     31  C   UNL     1      -1.271  11.712  22.324  0.00  0.00    +0.000 A 
ATOM     32  C   UNL     1      -1.273  12.803  21.413  0.00  0.00    +0.000 A 
ENDBRANCH  21  23
ENDBRANCH   4  19
TORSDOF 6
ENDMDL
MODEL 8
REMARK VINA RESULT:      -8.4      2.370      2.702
REMARK  Name = 
REMARK  7 active torsions:
REMARK  status: ('A' for Active; 'I' for Inactive)
REMARK    1  A    between atoms: C_1  and  N_2
REMARK    2  A    between atoms: C_6  and  S_7
REMARK    3  A    between atoms: S_7  and  C_8
REMARK    4  A    between atoms: C_8  and  C_9
REMARK    5  A    between atoms: N_11  and  C_12
REMARK    6  A    between atoms: C_15  and  C_16
REMARK    7  A    between atoms: N_18  and  C_19
REMARK                            x       y       z     vdW  Elec       q    Type
REMARK                         _______ _______ _______ _____ _____    ______ ____
ROOT
ATOM      1  C   UNL     1      -0.689  10.922  20.037  0.00  0.00    +0.000 A 
ATOM      2  C   UNL     1      -0.033  10.923  18.798  0.00  0.00    +0.000 A 
ATOM      3  C   UNL     1       0.902   9.927  18.458  0.00  0.00    +0.000 A 
ATOM      4  C   UNL     1       1.204   8.919  19.370  0.00  0.00    +0.000 A 
ATOM      5  C   UNL     1       0.557   8.929  20.623  0.00  0.00    +0.000 A 
ATOM      6  C   UNL     1      -0.374   9.922  20.958  0.00  0.00    +0.000 A 
ENDROOT
BRANCH   1   9
ATOM      7  C   UNL     1      -2.856  12.137  19.798  0.00  0.00    +0.000 C 
ATOM      8  O   UNL     1      -3.291  11.535  18.824  0.00  0.00    +0.000 OA
ATOM      9  N   UNL     1      -1.646  11.887  20.426  0.00  0.00    +0.000 N 
ATOM     10  H   UNL     1      -1.516  12.305  21.344  0.00  0.00    +0.000 HD
BRANCH   7  11
ATOM     11  C   UNL     1      -3.692  13.226  20.463  0.00  0.00    +0.000 C 
BRANCH  11  12
ATOM     12  S   UNL     1      -5.304  13.372  19.634  0.00  0.00    +0.000 S 
BRANCH  12  18
ATOM     13  C   UNL     1      -6.783  10.590  18.776  0.00  0.00    +0.000 C 
ATOM     14  N   UNL     1      -6.832  11.153  20.092  0.00  0.00    +0.000 N 
ATOM     15  N   UNL     1      -7.489  10.530  21.095  0.00  0.00    +0.000 NA
ATOM     16  N   UNL     1      -7.289  11.293  22.165  0.00  0.00    +0.000 NA
ATOM     17  N   UNL     1      -6.523  12.384  21.859  0.00  0.00    +0.000 NA
ATOM     18  C   UNL     1      -6.253  12.287  20.579  0.00  0.00    +0.000 A 
ENDBRANCH  12  18
ENDBRANCH  11  12
ENDBRANCH   7  11
ENDBRANCH   1   9
BRANCH   4  19
ATOM     19  C   UNL     1       2.271   7.899  19.161  0.00  0.00    +0.000 C 
ATOM     20  O   UNL     1       2.598   7.278  20.171  0.00  0.00    +0.000 OA
ATOM     21  N   UNL     1       2.828   7.715  17.889  0.00  0.00    +0.000 N 
ATOM     22  H   UNL     1       2.599   8.362  17.146  0.00  0.00    +0.000 HD
BRANCH  21  23
ATOM     23  C   UNL     1       3.603   6.560  17.507  0.00  0.00    +0.000 A 
ATOM     24  C   UNL     1       4.899   6.738  16.995  0.00  0.00    +0.000 A 
ATOM     25  C   UNL     1       5.734   5.666  16.703  0.00  0.00    +0.000 A 
ATOM     26  C   UNL     1       5.340   4.388  17.043  0.00  0.00    +0.000 A 
ATOM     27  C   UNL     1       4.064   4.152  17.548  0.00  0.00    +0.000 A 
ATOM     28  C   UNL     1       3.727   2.827  17.835  0.00  0.00    +0.000 A 
ATOM     29  C   UNL     1       2.398   2.458  17.939  0.00  0.00    +0.000 A 
ATOM     30  C   UNL     1       1.418   3.446  17.919  0.00  0.00    +0.000 A 
ATOM     31  C   UNL     1       1.778   4.806  17.890  0.00  0.00    +0.000 A 
ATOM     32  C   UNL     1       3.123   5.216  17.686  0.00  0.00    +0.000 A 
ENDBRANCH  21  23
ENDBRANCH   4  19
TORSDOF 6
ENDMDL
MODEL 9
REMARK VINA RESULT:      -8.3      8.191      9.784
REMARK  Name = 
REMARK  7 active torsions:
REMARK  status: ('A' for Active; 'I' for Inactive)
REMARK    1  A    between atoms: C_1  and  N_2
REMARK    2  A    between atoms: C_6  and  S_7
REMARK    3  A    between atoms: S_7  and  C_8
REMARK    4  A    between atoms: C_8  and  C_9
REMARK    5  A    between atoms: N_11  and  C_12
REMARK    6  A    between atoms: C_15  and  C_16
REMARK    7  A    between atoms: N_18  and  C_19
REMARK                            x       y       z     vdW  Elec       q    Type
REMARK                         _______ _______ _______ _____ _____    ______ ____
ROOT
ATOM      1  C   UNL     1       9.292  11.629  18.820  0.00  0.00    +0.000 A 
ATOM      2  C   UNL     1       8.398  11.464  17.753  0.00  0.00    +0.000 A 
ATOM      3  C   UNL     1       7.834  10.210  17.449  0.00  0.00    +0.000 A 
ATOM      4  C   UNL     1       8.175   9.095  18.210  0.00  0.00    +0.000 A 
ATOM      5  C   UNL     1       9.087   9.257  19.273  0.00  0.00    +0.000 A 
ATOM      6  C   UNL     1       9.647  10.507  19.572  0.00  0.00    +0.000 A 
ENDROOT
BRANCH   1   9
ATOM      7  C   UNL     1      10.715  13.632  18.384  0.00  0.00    +0.000 C 
ATOM      8  O   UNL     1      11.052  13.365  17.237  0.00  0.00    +0.000 OA
ATOM      9  N   UNL     1       9.877  12.864  19.179  0.00  0.00    +0.000 N 
ATOM     10  H   UNL     1       9.509  13.311  20.014  0.00  0.00    +0.000 HD
BRANCH   7  11
ATOM     11  C   UNL     1      11.173  14.933  19.035  0.00  0.00    +0.000 C 
BRANCH  11  12
ATOM     12  S   UNL     1      11.120  16.291  17.826  0.00  0.00    +0.000 S 
BRANCH  12  18
ATOM     13  C   UNL     1       7.936  15.585  17.672  0.00  0.00    +0.000 C 
ATOM     14  N   UNL     1       8.466  16.779  18.259  0.00  0.00    +0.000 N 
ATOM     15  N   UNL     1       7.656  17.698  18.829  0.00  0.00    +0.000 NA
ATOM     16  N   UNL     1       8.474  18.630  19.307  0.00  0.00    +0.000 NA
ATOM     17  N   UNL     1       9.781  18.322  19.048  0.00  0.00    +0.000 NA
ATOM     18  C   UNL     1       9.761  17.182  18.400  0.00  0.00    +0.000 A 
ENDBRANCH  12  18
ENDBRANCH  11  12
ENDBRANCH   7  11
ENDBRANCH   1   9
BRANCH   4  19
ATOM     19  C   UNL     1       7.739   7.705  17.891  0.00  0.00    +0.000 C 
ATOM     20  O   UNL     1       8.133   6.847  18.679  0.00  0.00    +0.000 OA
ATOM     21  N   UNL     1       6.949   7.457  16.760  0.00  0.00    +0.000 N 
ATOM     22  H   UNL     1       6.788   8.200  16.094  0.00  0.00    +0.000 HD
BRANCH  21  23
ATOM     23  C   UNL     1       6.208   6.239  16.546  0.00  0.00    +0.000 A 
ATOM     24  C   UNL     1       6.781   5.210  15.779  0.00  0.00    +0.000 A 
ATOM     25  C   UNL     1       6.164   3.975  15.618  0.00  0.00    +0.000 A 
ATOM     26  C   UNL     1       5.018   3.692  16.332  0.00  0.00    +0.000 A 
ATOM     27  C   UNL     1       4.404   4.675  17.103  0.00  0.00    +0.000 A 
ATOM     28  C   UNL     1       3.227   4.322  17.768  0.00  0.00    +0.000 A 
ATOM     29  C   UNL     1       2.355   5.304  18.201  0.00  0.00    +0.000 A 
ATOM     30  C   UNL     1       2.741   6.639  18.113  0.00  0.00    +0.000 A 
ATOM     31  C   UNL     1       4.036   6.978  17.679  0.00  0.00    +0.000 A 
ATOM     32  C   UNL     1       4.920   6.005  17.139  0.00  0.00    +0.000 A 
ENDBRANCH  21  23
ENDBRANCH   4  19
TORSDOF 6
ENDMDL
