MODEL 1
REMARK VINA RESULT:      -8.4      0.000      0.000
REMARK  Name = 
REMARK  6 active torsions:
REMARK  status: ('A' for Active; 'I' for Inactive)
REMARK    1  A    between atoms: C_1  and  N_2
REMARK    2  A    between atoms: C_4  and  C_5
REMARK    3  A    between atoms: N_12  and  C_13
REMARK    4  A    between atoms: C_14  and  C_15
REMARK    5  A    between atoms: C_21  and  C_22
REMARK    6  A    between atoms: C_21  and  C_23
REMARK                            x       y       z     vdW  Elec       q    Type
REMARK                         _______ _______ _______ _____ _____    ______ ____
ROOT
ATOM      1  C   UNL     1       0.885  10.228  19.863  0.00  0.00    +0.000 A 
ATOM      2  C   UNL     1       0.316   9.897  21.084  0.00  0.00    +0.000 A 
ATOM      3  C   UNL     1       0.501   8.608  21.594  0.00  0.00    +0.000 A 
ATOM      4  C   UNL     1       1.250   7.706  20.861  0.00  0.00    +0.000 A 
ATOM      5  N   UNL     1       1.461   6.415  21.359  0.00  0.00    +0.000 N 
ATOM      6  C   UNL     1       2.178   5.400  20.780  0.00  0.00    +0.000 C 
ATOM      7  O   UNL     1       2.241   4.312  21.348  0.00  0.00    +0.000 OA
ATOM      8  N   UNL     1       2.787   5.674  19.588  0.00  0.00    +0.000 N 
ATOM      9  N   UNL     1       1.774   8.062  19.671  0.00  0.00    +0.000 NA
ATOM     10  N   UNL     1       1.599   9.320  19.166  0.00  0.00    +0.000 NA
ATOM     11  H   UNL     1       1.051   6.158  22.242  0.00  0.00    +0.000 HD
ATOM     12  H   UNL     1       2.669   6.614  19.217  0.00  0.00    +0.000 HD
ENDROOT
BRANCH   1  16
ATOM     13  C   UNL     1       1.997  14.828  18.394  0.00  0.00    +0.000 C 
ATOM     14  N   UNL     1       1.308  13.583  18.629  0.00  0.00    +0.000 N 
ATOM     15  C   UNL     1       1.816  12.461  19.211  0.00  0.00    +0.000 A 
ATOM     16  C   UNL     1       0.779  11.547  19.274  0.00  0.00    +0.000 A 
ATOM     17  C   UNL     1      -0.304  12.227  18.678  0.00  0.00    +0.000 A 
ATOM     18  N   UNL     1       0.012  13.464  18.283  0.00  0.00    +0.000 NA
ENDBRANCH   1  16
BRANCH   8  19
ATOM     19  C   UNL     1       3.516   4.736  18.801  0.00  0.00    +0.000 C 
ATOM     20  C   UNL     1       3.627   4.915  17.300  0.00  0.00    +0.000 C 
ATOM     21  C   UNL     1       2.801   3.772  17.872  0.00  0.00    +0.000 C 
ATOM     22  C   UNL     1       3.293   2.349  17.934  0.00  0.00    +0.000 C 
ATOM     23  C   UNL     1       1.317   3.880  17.610  0.00  0.00    +0.000 C 
BRANCH  20  24
ATOM     24  C   UNL     1       4.909   4.709  16.533  0.00  0.00    +0.000 A 
ATOM     25  C   UNL     1       4.918   4.643  15.128  0.00  0.00    +0.000 A 
ATOM     26  C   UNL     1       6.111   4.629  14.402  0.00  0.00    +0.000 A 
ATOM     27  C   UNL     1       7.330   4.694  15.069  0.00  0.00    +0.000 A 
ATOM     28  C   UNL     1       7.352   4.743  16.459  0.00  0.00    +0.000 A 
ATOM     29  C   UNL     1       6.155   4.745  17.181  0.00  0.00    +0.000 A 
ENDBRANCH  20  24
ENDBRANCH   8  19
TORSDOF 3
ENDMDL
MODEL 2
REMARK VINA RESULT:      -7.9      2.662      8.464
REMARK  Name = 
REMARK  6 active torsions:
REMARK  status: ('A' for Active; 'I' for Inactive)
REMARK    1  A    between atoms: C_1  and  N_2
REMARK    2  A    between atoms: C_4  and  C_5
REMARK    3  A    between atoms: N_12  and  C_13
REMARK    4  A    between atoms: C_14  and  C_15
REMARK    5  A    between atoms: C_21  and  C_22
REMARK    6  A    between atoms: C_21  and  C_23
REMARK                            x       y       z     vdW  Elec       q    Type
REMARK                         _______ _______ _______ _____ _____    ______ ____
ROOT
ATOM      1  C   UNL     1       4.731   5.637  17.556  0.00  0.00    +0.000 A 
ATOM      2  C   UNL     1       4.666   4.833  18.686  0.00  0.00    +0.000 A 
ATOM      3  C   UNL     1       3.805   5.193  19.727  0.00  0.00    +0.000 A 
ATOM      4  C   UNL     1       3.044   6.340  19.594  0.00  0.00    +0.000 A 
ATOM      5  N   UNL     1       2.165   6.712  20.617  0.00  0.00    +0.000 N 
ATOM      6  C   UNL     1       1.333   7.801  20.654  0.00  0.00    +0.000 C 
ATOM      7  O   UNL     1       0.639   7.991  21.650  0.00  0.00    +0.000 OA
ATOM      8  N   UNL     1       1.332   8.615  19.556  0.00  0.00    +0.000 N 
ATOM      9  N   UNL     1       3.148   7.102  18.486  0.00  0.00    +0.000 NA
ATOM     10  N   UNL     1       3.986   6.756  17.463  0.00  0.00    +0.000 NA
ATOM     11  H   UNL     1       2.110   6.142  21.445  0.00  0.00    +0.000 HD
ATOM     12  H   UNL     1       1.944   8.353  18.788  0.00  0.00    +0.000 HD
ENDROOT
BRANCH   1  16
ATOM     13  C   UNL     1       6.295   3.747  13.251  0.00  0.00    +0.000 C 
ATOM     14  N   UNL     1       6.225   4.476  14.493  0.00  0.00    +0.000 N 
ATOM     15  C   UNL     1       5.149   4.579  15.324  0.00  0.00    +0.000 A 
ATOM     16  C   UNL     1       5.564   5.325  16.412  0.00  0.00    +0.000 A 
ATOM     17  C   UNL     1       6.908   5.633  16.116  0.00  0.00    +0.000 A 
ATOM     18  N   UNL     1       7.314   5.121  14.950  0.00  0.00    +0.000 NA
ENDBRANCH   1  16
BRANCH   8  19
ATOM     19  C   UNL     1       0.591   9.826  19.432  0.00  0.00    +0.000 C 
ATOM     20  C   UNL     1      -0.035  10.210  18.106  0.00  0.00    +0.000 C 
ATOM     21  C   UNL     1       1.143  11.004  18.650  0.00  0.00    +0.000 C 
ATOM     22  C   UNL     1       0.994  12.341  19.329  0.00  0.00    +0.000 C 
ATOM     23  C   UNL     1       2.408  10.886  17.832  0.00  0.00    +0.000 C 
BRANCH  20  24
ATOM     24  C   UNL     1      -1.428  10.774  17.978  0.00  0.00    +0.000 A 
ATOM     25  C   UNL     1      -2.227  10.502  16.853  0.00  0.00    +0.000 A 
ATOM     26  C   UNL     1      -3.574  10.871  16.804  0.00  0.00    +0.000 A 
ATOM     27  C   UNL     1      -4.158  11.513  17.890  0.00  0.00    +0.000 A 
ATOM     28  C   UNL     1      -3.387  11.812  19.010  0.00  0.00    +0.000 A 
ATOM     29  C   UNL     1      -2.036  11.450  19.049  0.00  0.00    +0.000 A 
ENDBRANCH  20  24
ENDBRANCH   8  19
TORSDOF 3
ENDMDL
MODEL 3
REMARK VINA RESULT:      -7.9      0.662      1.275
REMARK  Name = 
REMARK  6 active torsions:
REMARK  status: ('A' for Active; 'I' for Inactive)
REMARK    1  A    between atoms: C_1  and  N_2
REMARK    2  A    between atoms: C_4  and  C_5
REMARK    3  A    between atoms: N_12  and  C_13
REMARK    4  A    between atoms: C_14  and  C_15
REMARK    5  A    between atoms: C_21  and  C_22
REMARK    6  A    between atoms: C_21  and  C_23
REMARK                            x       y       z     vdW  Elec       q    Type
REMARK                         _______ _______ _______ _____ _____    ______ ____
ROOT
ATOM      1  C   UNL     1       0.970  10.587  19.954  0.00  0.00    +0.000 A 
ATOM      2  C   UNL     1       0.253  10.202  21.079  0.00  0.00    +0.000 A 
ATOM      3  C   UNL     1       0.336   8.876  21.516  0.00  0.00    +0.000 A 
ATOM      4  C   UNL     1       1.133   7.993  20.811  0.00  0.00    +0.000 A 
ATOM      5  N   UNL     1       1.241   6.665  21.240  0.00  0.00    +0.000 N 
ATOM      6  C   UNL     1       1.985   5.661  20.676  0.00  0.00    +0.000 C 
ATOM      7  O   UNL     1       1.946   4.536  21.172  0.00  0.00    +0.000 OA
ATOM      8  N   UNL     1       2.735   5.985  19.582  0.00  0.00    +0.000 N 
ATOM      9  N   UNL     1       1.801   8.403  19.714  0.00  0.00    +0.000 NA
ATOM     10  N   UNL     1       1.727   9.697  19.281  0.00  0.00    +0.000 NA
ATOM     11  H   UNL     1       0.724   6.369  22.051  0.00  0.00    +0.000 HD
ATOM     12  H   UNL     1       2.692   6.951  19.265  0.00  0.00    +0.000 HD
ENDROOT
BRANCH   1  16
ATOM     13  C   UNL     1      -0.390  15.251  18.980  0.00  0.00    +0.000 C 
ATOM     14  N   UNL     1       0.347  14.013  19.041  0.00  0.00    +0.000 N 
ATOM     15  C   UNL     1       0.006  12.889  19.732  0.00  0.00    +0.000 A 
ATOM     16  C   UNL     1       0.977  11.945  19.449  0.00  0.00    +0.000 A 
ATOM     17  C   UNL     1       1.865  12.624  18.589  0.00  0.00    +0.000 A 
ATOM     18  N   UNL     1       1.488  13.882  18.340  0.00  0.00    +0.000 NA
ENDBRANCH   1  16
BRANCH   8  19
ATOM     19  C   UNL     1       3.517   5.070  18.818  0.00  0.00    +0.000 C 
ATOM     20  C   UNL     1       3.642   5.233  17.317  0.00  0.00    +0.000 C 
ATOM     21  C   UNL     1       2.860   4.062  17.894  0.00  0.00    +0.000 C 
ATOM     22  C   UNL     1       3.415   2.664  17.983  0.00  0.00    +0.000 C 
ATOM     23  C   UNL     1       1.376   4.100  17.609  0.00  0.00    +0.000 C 
BRANCH  20  24
ATOM     24  C   UNL     1       4.943   5.075  16.571  0.00  0.00    +0.000 A 
ATOM     25  C   UNL     1       6.174   5.023  17.250  0.00  0.00    +0.000 A 
ATOM     26  C   UNL     1       7.362   4.703  16.590  0.00  0.00    +0.000 A 
ATOM     27  C   UNL     1       7.345   4.414  15.230  0.00  0.00    +0.000 A 
ATOM     28  C   UNL     1       6.145   4.475  14.529  0.00  0.00    +0.000 A 
ATOM     29  C   UNL     1       4.960   4.808  15.192  0.00  0.00    +0.000 A 
ENDBRANCH  20  24
ENDBRANCH   8  19
TORSDOF 3
ENDMDL
MODEL 4
REMARK VINA RESULT:      -7.6      2.946      9.059
REMARK  Name = 
REMARK  6 active torsions:
REMARK  status: ('A' for Active; 'I' for Inactive)
REMARK    1  A    between atoms: C_1  and  N_2
REMARK    2  A    between atoms: C_4  and  C_5
REMARK    3  A    between atoms: N_12  and  C_13
REMARK    4  A    between atoms: C_14  and  C_15
REMARK    5  A    between atoms: C_21  and  C_22
REMARK    6  A    between atoms: C_21  and  C_23
REMARK                            x       y       z     vdW  Elec       q    Type
REMARK                         _______ _______ _______ _____ _____    ______ ____
ROOT
ATOM      1  C   UNL     1       3.634   6.291  18.088  0.00  0.00    +0.000 A 
ATOM      2  C   UNL     1       3.380   5.399  19.121  0.00  0.00    +0.000 A 
ATOM      3  C   UNL     1       2.567   5.804  20.185  0.00  0.00    +0.000 A 
ATOM      4  C   UNL     1       2.041   7.083  20.169  0.00  0.00    +0.000 A 
ATOM      5  N   UNL     1       1.214   7.505  21.216  0.00  0.00    +0.000 N 
ATOM      6  C   UNL     1       0.601   8.722  21.362  0.00  0.00    +0.000 C 
ATOM      7  O   UNL     1      -0.078   8.935  22.365  0.00  0.00    +0.000 OA
ATOM      8  N   UNL     1       0.791   9.634  20.362  0.00  0.00    +0.000 N 
ATOM      9  N   UNL     1       2.324   7.925  19.154  0.00  0.00    +0.000 NA
ATOM     10  N   UNL     1       3.116   7.536  18.110  0.00  0.00    +0.000 NA
ATOM     11  H   UNL     1       1.024   6.871  21.975  0.00  0.00    +0.000 HD
ATOM     12  H   UNL     1       1.368   9.343  19.578  0.00  0.00    +0.000 HD
ENDROOT
BRANCH   1  16
ATOM     13  C   UNL     1       6.182   3.683  14.734  0.00  0.00    +0.000 C 
ATOM     14  N   UNL     1       5.549   4.761  15.452  0.00  0.00    +0.000 N 
ATOM     15  C   UNL     1       4.764   4.658  16.562  0.00  0.00    +0.000 A 
ATOM     16  C   UNL     1       4.431   5.950  16.928  0.00  0.00    +0.000 A 
ATOM     17  C   UNL     1       5.058   6.749  15.950  0.00  0.00    +0.000 A 
ATOM     18  N   UNL     1       5.738   6.031  15.050  0.00  0.00    +0.000 NA
ENDBRANCH   1  16
BRANCH   8  19
ATOM     19  C   UNL     1       0.296  10.971  20.363  0.00  0.00    +0.000 C 
ATOM     20  C   UNL     1      -1.175  11.245  20.602  0.00  0.00    +0.000 C 
ATOM     21  C   UNL     1      -0.568  11.486  19.227  0.00  0.00    +0.000 C 
ATOM     22  C   UNL     1      -0.197  12.854  18.717  0.00  0.00    +0.000 C 
ATOM     23  C   UNL     1      -1.084  10.564  18.146  0.00  0.00    +0.000 C 
BRANCH  20  24
ATOM     24  C   UNL     1      -1.679  12.354  21.492  0.00  0.00    +0.000 A 
ATOM     25  C   UNL     1      -3.030  12.743  21.482  0.00  0.00    +0.000 A 
ATOM     26  C   UNL     1      -3.542  13.641  22.421  0.00  0.00    +0.000 A 
ATOM     27  C   UNL     1      -2.711  14.165  23.405  0.00  0.00    +0.000 A 
ATOM     28  C   UNL     1      -1.365  13.812  23.428  0.00  0.00    +0.000 A 
ATOM     29  C   UNL     1      -0.856  12.921  22.479  0.00  0.00    +0.000 A 
ENDBRANCH  20  24
ENDBRANCH   8  19
TORSDOF 3
ENDMDL
MODEL 5
REMARK VINA RESULT:      -7.4      4.038     10.192
REMARK  Name = 
REMARK  6 active torsions:
REMARK  status: ('A' for Active; 'I' for Inactive)
REMARK    1  A    between atoms: C_1  and  N_2
REMARK    2  A    between atoms: C_4  and  C_5
REMARK    3  A    between atoms: N_12  and  C_13
REMARK    4  A    between atoms: C_14  and  C_15
REMARK    5  A    between atoms: C_21  and  C_22
REMARK    6  A    between atoms: C_21  and  C_23
REMARK                            x       y       z     vdW  Elec       q    Type
REMARK                         _______ _______ _______ _____ _____    ______ ____
ROOT
ATOM      1  C   UNL     1       1.989   7.751  19.308  0.00  0.00    +0.000 A 
ATOM      2  C   UNL     1       2.388   8.299  18.097  0.00  0.00    +0.000 A 
ATOM      3  C   UNL     1       1.982   9.597  17.771  0.00  0.00    +0.000 A 
ATOM      4  C   UNL     1       1.197  10.293  18.672  0.00  0.00    +0.000 A 
ATOM      5  N   UNL     1       0.792  11.599  18.374  0.00  0.00    +0.000 N 
ATOM      6  C   UNL     1       0.026  12.435  19.144  0.00  0.00    +0.000 C 
ATOM      7  O   UNL     1      -0.259  13.551  18.714  0.00  0.00    +0.000 OA
ATOM      8  N   UNL     1      -0.374  11.962  20.361  0.00  0.00    +0.000 N 
ATOM      9  N   UNL     1       0.818   9.719  19.832  0.00  0.00    +0.000 NA
ATOM     10  N   UNL     1       1.212   8.451  20.158  0.00  0.00    +0.000 NA
ATOM     11  H   UNL     1       1.069  12.009  17.497  0.00  0.00    +0.000 HD
ATOM     12  H   UNL     1      -0.071  11.025  20.612  0.00  0.00    +0.000 HD
ENDROOT
BRANCH   1  16
ATOM     13  C   UNL     1       2.065   3.407  21.689  0.00  0.00    +0.000 C 
ATOM     14  N   UNL     1       2.391   4.507  20.816  0.00  0.00    +0.000 N 
ATOM     15  C   UNL     1       1.664   5.644  20.623  0.00  0.00    +0.000 A 
ATOM     16  C   UNL     1       2.391   6.430  19.747  0.00  0.00    +0.000 A 
ATOM     17  C   UNL     1       3.532   5.652  19.464  0.00  0.00    +0.000 A 
ATOM     18  N   UNL     1       3.536   4.481  20.109  0.00  0.00    +0.000 NA
ENDBRANCH   1  16
BRANCH   8  19
ATOM     19  C   UNL     1      -1.226  12.651  21.273  0.00  0.00    +0.000 C 
ATOM     20  C   UNL     1      -0.667  13.239  22.553  0.00  0.00    +0.000 C 
ATOM     21  C   UNL     1      -1.601  12.038  22.609  0.00  0.00    +0.000 C 
ATOM     22  C   UNL     1      -3.060  12.145  22.970  0.00  0.00    +0.000 C 
ATOM     23  C   UNL     1      -0.954  10.765  23.104  0.00  0.00    +0.000 C 
BRANCH  20  24
ATOM     24  C   UNL     1      -1.040  14.605  23.071  0.00  0.00    +0.000 A 
ATOM     25  C   UNL     1      -1.434  15.635  22.199  0.00  0.00    +0.000 A 
ATOM     26  C   UNL     1      -1.948  16.844  22.676  0.00  0.00    +0.000 A 
ATOM     27  C   UNL     1      -2.090  17.045  24.044  0.00  0.00    +0.000 A 
ATOM     28  C   UNL     1      -1.691  16.050  24.932  0.00  0.00    +0.000 A 
ATOM     29  C   UNL     1      -1.167  14.847  24.448  0.00  0.00    +0.000 A 
ENDBRANCH  20  24
ENDBRANCH   8  19
TORSDOF 3
ENDMDL
MODEL 6
REMARK VINA RESULT:      -7.4      2.621      8.827
REMARK  Name = 
REMARK  6 active torsions:
REMARK  status: ('A' for Active; 'I' for Inactive)
REMARK    1  A    between atoms: C_1  and  N_2
REMARK    2  A    between atoms: C_4  and  C_5
REMARK    3  A    between atoms: N_12  and  C_13
REMARK    4  A    between atoms: C_14  and  C_15
REMARK    5  A    between atoms: C_21  and  C_22
REMARK    6  A    between atoms: C_21  and  C_23
REMARK                            x       y       z     vdW  Elec       q    Type
REMARK                         _______ _______ _______ _____ _____    ______ ____
ROOT
ATOM      1  C   UNL     1       4.510   5.634  17.706  0.00  0.00    +0.000 A 
ATOM      2  C   UNL     1       4.194   4.668  18.652  0.00  0.00    +0.000 A 
ATOM      3  C   UNL     1       3.308   4.991  19.684  0.00  0.00    +0.000 A 
ATOM      4  C   UNL     1       2.773   6.266  19.726  0.00  0.00    +0.000 A 
ATOM      5  N   UNL     1       1.873   6.606  20.741  0.00  0.00    +0.000 N 
ATOM      6  C   UNL     1       1.241   7.808  20.934  0.00  0.00    +0.000 C 
ATOM      7  O   UNL     1       0.494   7.944  21.900  0.00  0.00    +0.000 OA
ATOM      8  N   UNL     1       1.490   8.791  20.018  0.00  0.00    +0.000 N 
ATOM      9  N   UNL     1       3.116   7.180  18.796  0.00  0.00    +0.000 NA
ATOM     10  N   UNL     1       3.981   6.872  17.783  0.00  0.00    +0.000 NA
ATOM     11  H   UNL     1       1.638   5.918  21.438  0.00  0.00    +0.000 HD
ATOM     12  H   UNL     1       2.122   8.560  19.256  0.00  0.00    +0.000 HD
ENDROOT
BRANCH   1  16
ATOM     13  C   UNL     1       6.276   3.895  13.417  0.00  0.00    +0.000 C 
ATOM     14  N   UNL     1       6.138   4.597  14.668  0.00  0.00    +0.000 N 
ATOM     15  C   UNL     1       5.037   4.636  15.470  0.00  0.00    +0.000 A 
ATOM     16  C   UNL     1       5.387   5.381  16.582  0.00  0.00    +0.000 A 
ATOM     17  C   UNL     1       6.722   5.756  16.328  0.00  0.00    +0.000 A 
ATOM     18  N   UNL     1       7.184   5.284  15.165  0.00  0.00    +0.000 NA
ENDBRANCH   1  16
BRANCH   8  19
ATOM     19  C   UNL     1       0.984  10.122  20.082  0.00  0.00    +0.000 C 
ATOM     20  C   UNL     1      -0.509  10.377  20.079  0.00  0.00    +0.000 C 
ATOM     21  C   UNL     1       0.334  10.771  18.874  0.00  0.00    +0.000 C 
ATOM     22  C   UNL     1       0.772  12.186  18.601  0.00  0.00    +0.000 C 
ATOM     23  C   UNL     1       0.036   9.984  17.619  0.00  0.00    +0.000 C 
BRANCH  20  24
ATOM     24  C   UNL     1      -1.182  11.379  20.983  0.00  0.00    +0.000 A 
ATOM     25  C   UNL     1      -0.714  11.615  22.289  0.00  0.00    +0.000 A 
ATOM     26  C   UNL     1      -1.215  12.659  23.070  0.00  0.00    +0.000 A 
ATOM     27  C   UNL     1      -2.193  13.504  22.555  0.00  0.00    +0.000 A 
ATOM     28  C   UNL     1      -2.687  13.283  21.273  0.00  0.00    +0.000 A 
ATOM     29  C   UNL     1      -2.190  12.229  20.500  0.00  0.00    +0.000 A 
ENDBRANCH  20  24
ENDBRANCH   8  19
TORSDOF 3
ENDMDL
MODEL 7
REMARK VINA RESULT:      -7.4      2.499      8.691
REMARK  Name = 
REMARK  6 active torsions:
REMARK  status: ('A' for Active; 'I' for Inactive)
REMARK    1  A    between atoms: C_1  and  N_2
REMARK    2  A    between atoms: C_4  and  C_5
REMARK    3  A    between atoms: N_12  and  C_13
REMARK    4  A    between atoms: C_14  and  C_15
REMARK    5  A    between atoms: C_21  and  C_22
REMARK    6  A    between atoms: C_21  and  C_23
REMARK                            x       y       z     vdW  Elec       q    Type
REMARK                         _______ _______ _______ _____ _____    ______ ____
ROOT
ATOM      1  C   UNL     1       4.636   5.555  17.695  0.00  0.00    +0.000 A 
ATOM      2  C   UNL     1       4.339   4.570  18.627  0.00  0.00    +0.000 A 
ATOM      3  C   UNL     1       3.430   4.856  19.651  0.00  0.00    +0.000 A 
ATOM      4  C   UNL     1       2.856   6.112  19.698  0.00  0.00    +0.000 A 
ATOM      5  N   UNL     1       1.932   6.415  20.706  0.00  0.00    +0.000 N 
ATOM      6  C   UNL     1       1.262   7.595  20.901  0.00  0.00    +0.000 C 
ATOM      7  O   UNL     1       0.499   7.698  21.860  0.00  0.00    +0.000 OA
ATOM      8  N   UNL     1       1.491   8.594  19.998  0.00  0.00    +0.000 N 
ATOM      9  N   UNL     1       3.182   7.047  18.782  0.00  0.00    +0.000 NA
ATOM     10  N   UNL     1       4.068   6.775  17.777  0.00  0.00    +0.000 NA
ATOM     11  H   UNL     1       1.710   5.713  21.392  0.00  0.00    +0.000 HD
ATOM     12  H   UNL     1       2.140   8.390  19.242  0.00  0.00    +0.000 HD
ENDROOT
BRANCH   1  16
ATOM     13  C   UNL     1       6.509   3.913  13.412  0.00  0.00    +0.000 C 
ATOM     14  N   UNL     1       6.334   4.599  14.668  0.00  0.00    +0.000 N 
ATOM     15  C   UNL     1       5.222   4.596  15.456  0.00  0.00    +0.000 A 
ATOM     16  C   UNL     1       5.534   5.340  16.579  0.00  0.00    +0.000 A 
ATOM     17  C   UNL     1       6.861   5.759  16.346  0.00  0.00    +0.000 A 
ATOM     18  N   UNL     1       7.351   5.313  15.185  0.00  0.00    +0.000 NA
ENDBRANCH   1  16
BRANCH   8  19
ATOM     19  C   UNL     1       0.945   9.908  20.069  0.00  0.00    +0.000 C 
ATOM     20  C   UNL     1      -0.184  10.321  19.145  0.00  0.00    +0.000 C 
ATOM     21  C   UNL     1       1.203  10.923  18.970  0.00  0.00    +0.000 C 
ATOM     22  C   UNL     1       1.571  12.302  19.454  0.00  0.00    +0.000 C 
ATOM     23  C   UNL     1       1.895  10.536  17.683  0.00  0.00    +0.000 C 
BRANCH  20  24
ATOM     24  C   UNL     1      -1.381  11.116  19.602  0.00  0.00    +0.000 A 
ATOM     25  C   UNL     1      -1.413  11.728  20.868  0.00  0.00    +0.000 A 
ATOM     26  C   UNL     1      -2.436  12.607  21.232  0.00  0.00    +0.000 A 
ATOM     27  C   UNL     1      -3.449  12.906  20.328  0.00  0.00    +0.000 A 
ATOM     28  C   UNL     1      -3.453  12.301  19.075  0.00  0.00    +0.000 A 
ATOM     29  C   UNL     1      -2.433  11.412  18.720  0.00  0.00    +0.000 A 
ENDBRANCH  20  24
ENDBRANCH   8  19
TORSDOF 3
ENDMDL
MODEL 8
REMARK VINA RESULT:      -7.3      2.660      8.687
REMARK  Name = 
REMARK  6 active torsions:
REMARK  status: ('A' for Active; 'I' for Inactive)
REMARK    1  A    between atoms: C_1  and  N_2
REMARK    2  A    between atoms: C_4  and  C_5
REMARK    3  A    between atoms: N_12  and  C_13
REMARK    4  A    between atoms: C_14  and  C_15
REMARK    5  A    between atoms: C_21  and  C_22
REMARK    6  A    between atoms: C_21  and  C_23
REMARK                            x       y       z     vdW  Elec       q    Type
REMARK                         _______ _______ _______ _____ _____    ______ ____
ROOT
ATOM      1  C   UNL     1       4.954   4.876  16.570  0.00  0.00    +0.000 A 
ATOM      2  C   UNL     1       4.597   3.772  17.332  0.00  0.00    +0.000 A 
ATOM      3  C   UNL     1       3.750   3.949  18.430  0.00  0.00    +0.000 A 
ATOM      4  C   UNL     1       3.294   5.222  18.719  0.00  0.00    +0.000 A 
ATOM      5  N   UNL     1       2.434   5.419  19.805  0.00  0.00    +0.000 N 
ATOM      6  C   UNL     1       1.879   6.599  20.232  0.00  0.00    +0.000 C 
ATOM      7  O   UNL     1       1.159   6.596  21.228  0.00  0.00    +0.000 OA
ATOM      8  N   UNL     1       2.171   7.718  19.505  0.00  0.00    +0.000 N 
ATOM      9  N   UNL     1       3.676   6.271  17.963  0.00  0.00    +0.000 NA
ATOM     10  N   UNL     1       4.502   6.107  16.887  0.00  0.00    +0.000 NA
ATOM     11  H   UNL     1       2.170   4.629  20.371  0.00  0.00    +0.000 HD
ATOM     12  H   UNL     1       2.774   7.596  18.695  0.00  0.00    +0.000 HD
ENDROOT
BRANCH   1  16
ATOM     13  C   UNL     1       6.691   3.565  12.119  0.00  0.00    +0.000 C 
ATOM     14  N   UNL     1       6.534   4.188  13.410  0.00  0.00    +0.000 N 
ATOM     15  C   UNL     1       5.480   4.053  14.264  0.00  0.00    +0.000 A 
ATOM     16  C   UNL     1       5.794   4.786  15.394  0.00  0.00    +0.000 A 
ATOM     17  C   UNL     1       7.057   5.338  15.096  0.00  0.00    +0.000 A 
ATOM     18  N   UNL     1       7.511   4.979  13.891  0.00  0.00    +0.000 NA
ENDBRANCH   1  16
BRANCH   8  19
ATOM     19  C   UNL     1       1.748   9.041  19.825  0.00  0.00    +0.000 C 
ATOM     20  C   UNL     1       0.273   9.381  19.891  0.00  0.00    +0.000 C 
ATOM     21  C   UNL     1       1.135   9.943  18.770  0.00  0.00    +0.000 C 
ATOM     22  C   UNL     1       1.658  11.356  18.762  0.00  0.00    +0.000 C 
ATOM     23  C   UNL     1       0.786   9.426  17.394  0.00  0.00    +0.000 C 
BRANCH  20  24
ATOM     24  C   UNL     1      -0.335  10.232  20.978  0.00  0.00    +0.000 A 
ATOM     25  C   UNL     1      -1.100  11.372  20.672  0.00  0.00    +0.000 A 
ATOM     26  C   UNL     1      -1.810  12.064  21.656  0.00  0.00    +0.000 A 
ATOM     27  C   UNL     1      -1.780  11.622  22.974  0.00  0.00    +0.000 A 
ATOM     28  C   UNL     1      -1.017  10.508  23.309  0.00  0.00    +0.000 A 
ATOM     29  C   UNL     1      -0.299   9.825  22.322  0.00  0.00    +0.000 A 
ENDBRANCH  20  24
ENDBRANCH   8  19
TORSDOF 3
ENDMDL
MODEL 9
REMARK VINA RESULT:      -7.3      2.622      8.417
REMARK  Name = 
REMARK  6 active torsions:
REMARK  status: ('A' for Active; 'I' for Inactive)
REMARK    1  A    between atoms: C_1  and  N_2
REMARK    2  A    between atoms: C_4  and  C_5
REMARK    3  A    between atoms: N_12  and  C_13
REMARK    4  A    between atoms: C_14  and  C_15
REMARK    5  A    between atoms: C_21  and  C_22
REMARK    6  A    between atoms: C_21  and  C_23
REMARK                            x       y       z     vdW  Elec       q    Type
REMARK                         _______ _______ _______ _____ _____    ______ ____
ROOT
ATOM      1  C   UNL     1       3.817   5.512  18.316  0.00  0.00    +0.000 A 
ATOM      2  C   UNL     1       3.782   4.952  19.585  0.00  0.00    +0.000 A 
ATOM      3  C   UNL     1       2.978   5.541  20.566  0.00  0.00    +0.000 A 
ATOM      4  C   UNL     1       2.242   6.664  20.235  0.00  0.00    +0.000 A 
ATOM      5  N   UNL     1       1.419   7.261  21.197  0.00  0.00    +0.000 N 
ATOM      6  C   UNL     1       0.618   8.364  21.048  0.00  0.00    +0.000 C 
ATOM      7  O   UNL     1      -0.025   8.772  22.012  0.00  0.00    +0.000 OA
ATOM      8  N   UNL     1       0.589   8.944  19.811  0.00  0.00    +0.000 N 
ATOM      9  N   UNL     1       2.315   7.187  18.995  0.00  0.00    +0.000 NA
ATOM     10  N   UNL     1       3.097   6.616  18.030  0.00  0.00    +0.000 NA
ATOM     11  H   UNL     1       1.386   6.870  22.124  0.00  0.00    +0.000 HD
ATOM     12  H   UNL     1       1.159   8.513  19.087  0.00  0.00    +0.000 HD
ENDROOT
BRANCH   1  16
ATOM     13  C   UNL     1       6.930   5.093  14.485  0.00  0.00    +0.000 C 
ATOM     14  N   UNL     1       5.985   4.798  15.532  0.00  0.00    +0.000 N 
ATOM     15  C   UNL     1       5.510   5.660  16.475  0.00  0.00    +0.000 A 
ATOM     16  C   UNL     1       4.589   4.951  17.226  0.00  0.00    +0.000 A 
ATOM     17  C   UNL     1       4.608   3.663  16.654  0.00  0.00    +0.000 A 
ATOM     18  N   UNL     1       5.456   3.563  15.625  0.00  0.00    +0.000 NA
ENDBRANCH   1  16
BRANCH   8  19
ATOM     19  C   UNL     1      -0.125  10.131  19.475  0.00  0.00    +0.000 C 
ATOM     20  C   UNL     1      -0.559  10.388  18.046  0.00  0.00    +0.000 C 
ATOM     21  C   UNL     1       0.533  11.240  18.676  0.00  0.00    +0.000 C 
ATOM     22  C   UNL     1       0.293  12.631  19.203  0.00  0.00    +0.000 C 
ATOM     23  C   UNL     1       1.900  11.063  18.056  0.00  0.00    +0.000 C 
BRANCH  20  24
ATOM     24  C   UNL     1      -1.919  10.923  17.675  0.00  0.00    +0.000 A 
ATOM     25  C   UNL     1      -2.417  10.810  16.364  0.00  0.00    +0.000 A 
ATOM     26  C   UNL     1      -3.737  11.142  16.050  0.00  0.00    +0.000 A 
ATOM     27  C   UNL     1      -4.598  11.585  17.048  0.00  0.00    +0.000 A 
ATOM     28  C   UNL     1      -4.128  11.724  18.351  0.00  0.00    +0.000 A 
ATOM     29  C   UNL     1      -2.802  11.401  18.657  0.00  0.00    +0.000 A 
ENDBRANCH  20  24
ENDBRANCH   8  19
TORSDOF 3
ENDMDL
