MODEL 1
REMARK VINA RESULT:      -8.3      0.000      0.000
REMARK  Name = 
REMARK  3 active torsions:
REMARK  status: ('A' for Active; 'I' for Inactive)
REMARK    1  A    between atoms: C_1  and  C_2
REMARK    2  A    between atoms: C_10  and  C_12
REMARK    3  A    between atoms: C_12  and  C_13
REMARK                            x       y       z     vdW  Elec       q    Type
REMARK                         _______ _______ _______ _____ _____    ______ ____
ROOT
ATOM      1  C   UNL     1       2.920  14.562  18.047  0.00  0.00    +0.000 C 
ATOM      2  C   UNL     1       1.762  14.631  18.992  0.00  0.00    +0.000 C 
ATOM      3  O   UNL     1       1.294  15.723  19.319  0.00  0.00    +0.000 OA
ATOM      4  N   UNL     1       1.206  13.437  19.396  0.00  0.00    +0.000 N 
ATOM      5  C   UNL     1       1.684  12.064  19.178  0.00  0.00    +0.000 C 
ATOM      6  C   UNL     1       0.481  11.103  19.514  0.00  0.00    +0.000 C 
ATOM      7  C   UNL     1       0.697  10.173  20.740  0.00  0.00    +0.000 C 
ATOM      8  C   UNL     1       1.178   8.736  20.518  0.00  0.00    +0.000 C 
ATOM      9  N   UNL     1       1.752   8.454  19.218  0.00  0.00    +0.000 N 
ATOM     10  C   UNL     1       2.542   7.286  19.110  0.00  0.00    +0.000 C 
ATOM     11  O   UNL     1       2.870   6.635  20.113  0.00  0.00    +0.000 OA
ATOM     12  C   UNL     1       1.044   8.973  18.065  0.00  0.00    +0.000 C 
ATOM     13  C   UNL     1       0.203  10.241  18.260  0.00  0.00    +0.000 C 
ATOM     14  C   UNL     1      -0.703  12.145  19.750  0.00  0.00    +0.000 C 
ATOM     15  C   UNL     1      -1.634  12.039  20.953  0.00  0.00    +0.000 C 
ATOM     16  O   UNL     1      -0.886  12.471  22.101  0.00  0.00    +0.000 OA
ATOM     17  C   UNL     1       0.144  13.361  21.636  0.00  0.00    +0.000 C 
ATOM     18  C   UNL     1      -0.023  13.447  20.124  0.00  0.00    +0.000 C 
ENDROOT
BRANCH  10  19
ATOM     19  C   UNL     1       2.998   6.835  17.727  0.00  0.00    +0.000 C 
BRANCH  19  20
ATOM     20  C   UNL     1       3.528   5.448  17.775  0.00  0.00    +0.000 A 
ATOM     21  N   UNL     1       4.833   5.200  17.586  0.00  0.00    +0.000 NA
ATOM     22  N   UNL     1       4.939   3.876  17.792  0.00  0.00    +0.000 N 
ATOM     23  C   UNL     1       3.753   3.253  18.070  0.00  0.00    +0.000 A 
ATOM     24  C   UNL     1       3.445   1.921  18.359  0.00  0.00    +0.000 A 
ATOM     25  C   UNL     1       2.098   1.617  18.582  0.00  0.00    +0.000 A 
ATOM     26  C   UNL     1       1.113   2.604  18.524  0.00  0.00    +0.000 A 
ATOM     27  C   UNL     1       1.447   3.935  18.255  0.00  0.00    +0.000 A 
ATOM     28  C   UNL     1       2.796   4.258  18.028  0.00  0.00    +0.000 A 
ATOM     29  H   UNL     1       5.858   3.451  17.736  0.00  0.00    +0.000 HD
ENDBRANCH  19  20
ENDBRANCH  10  19
TORSDOF 2
ENDMDL
MODEL 2
REMARK VINA RESULT:      -8.0      0.939      1.028
REMARK  Name = 
REMARK  3 active torsions:
REMARK  status: ('A' for Active; 'I' for Inactive)
REMARK    1  A    between atoms: C_1  and  C_2
REMARK    2  A    between atoms: C_10  and  C_12
REMARK    3  A    between atoms: C_12  and  C_13
REMARK                            x       y       z     vdW  Elec       q    Type
REMARK                         _______ _______ _______ _____ _____    ______ ____
ROOT
ATOM      1  C   UNL     1       3.619  14.926  17.970  0.00  0.00    +0.000 C 
ATOM      2  C   UNL     1       2.563  15.252  18.979  0.00  0.00    +0.000 C 
ATOM      3  O   UNL     1       2.339  16.425  19.284  0.00  0.00    +0.000 OA
ATOM      4  N   UNL     1       1.814  14.204  19.467  0.00  0.00    +0.000 N 
ATOM      5  C   UNL     1       2.001  12.758  19.283  0.00  0.00    +0.000 C 
ATOM      6  C   UNL     1       0.660  12.064  19.733  0.00  0.00    +0.000 C 
ATOM      7  C   UNL     1       0.772  11.149  20.984  0.00  0.00    +0.000 C 
ATOM      8  C   UNL     1       0.949   9.639  20.799  0.00  0.00    +0.000 C 
ATOM      9  N   UNL     1       1.369   9.209  19.481  0.00  0.00    +0.000 N 
ATOM     10  C   UNL     1       1.908   7.905  19.378  0.00  0.00    +0.000 C 
ATOM     11  O   UNL     1       2.170   7.235  20.388  0.00  0.00    +0.000 OA
ATOM     12  C   UNL     1       0.700   9.819  18.350  0.00  0.00    +0.000 C 
ATOM     13  C   UNL     1       0.136  11.233  18.537  0.00  0.00    +0.000 C 
ATOM     14  C   UNL     1      -0.281  13.325  19.992  0.00  0.00    +0.000 C 
ATOM     15  C   UNL     1      -1.132  13.443  21.252  0.00  0.00    +0.000 C 
ATOM     16  O   UNL     1      -0.239  13.756  22.333  0.00  0.00    +0.000 OA
ATOM     17  C   UNL     1       0.911  14.410  21.769  0.00  0.00    +0.000 C 
ATOM     18  C   UNL     1       0.662  14.479  20.267  0.00  0.00    +0.000 C 
ENDROOT
BRANCH  10  19
ATOM     19  C   UNL     1       2.174   7.329  17.992  0.00  0.00    +0.000 C 
BRANCH  19  20
ATOM     20  C   UNL     1       3.077   6.151  18.076  0.00  0.00    +0.000 A 
ATOM     21  N   UNL     1       4.409   6.304  18.123  0.00  0.00    +0.000 NA
ATOM     22  N   UNL     1       4.868   5.051  18.287  0.00  0.00    +0.000 N 
ATOM     23  C   UNL     1       3.891   4.093  18.311  0.00  0.00    +0.000 A 
ATOM     24  C   UNL     1       3.950   2.707  18.477  0.00  0.00    +0.000 A 
ATOM     25  C   UNL     1       2.736   2.013  18.432  0.00  0.00    +0.000 A 
ATOM     26  C   UNL     1       1.526   2.679  18.234  0.00  0.00    +0.000 A 
ATOM     27  C   UNL     1       1.489   4.070  18.092  0.00  0.00    +0.000 A 
ATOM     28  C   UNL     1       2.700   4.784  18.135  0.00  0.00    +0.000 A 
ATOM     29  H   UNL     1       5.868   4.913  18.385  0.00  0.00    +0.000 HD
ENDBRANCH  19  20
ENDBRANCH  10  19
TORSDOF 2
ENDMDL
MODEL 3
REMARK VINA RESULT:      -7.6      1.673      2.435
REMARK  Name = 
REMARK  3 active torsions:
REMARK  status: ('A' for Active; 'I' for Inactive)
REMARK    1  A    between atoms: C_1  and  C_2
REMARK    2  A    between atoms: C_10  and  C_12
REMARK    3  A    between atoms: C_12  and  C_13
REMARK                            x       y       z     vdW  Elec       q    Type
REMARK                         _______ _______ _______ _____ _____    ______ ____
ROOT
ATOM      1  C   UNL     1       3.051  15.025  18.232  0.00  0.00    +0.000 C 
ATOM      2  C   UNL     1       1.956  15.174  19.239  0.00  0.00    +0.000 C 
ATOM      3  O   UNL     1       1.604  16.297  19.610  0.00  0.00    +0.000 OA
ATOM      4  N   UNL     1       1.317  14.025  19.651  0.00  0.00    +0.000 N 
ATOM      5  C   UNL     1       1.659  12.622  19.383  0.00  0.00    +0.000 C 
ATOM      6  C   UNL     1       0.395  11.763  19.767  0.00  0.00    +0.000 C 
ATOM      7  C   UNL     1       0.591  10.789  20.963  0.00  0.00    +0.000 C 
ATOM      8  C   UNL     1       0.930   9.321  20.691  0.00  0.00    +0.000 C 
ATOM      9  N   UNL     1       1.407   9.020  19.357  0.00  0.00    +0.000 N 
ATOM     10  C   UNL     1       2.084   7.789  19.185  0.00  0.00    +0.000 C 
ATOM     11  O   UNL     1       2.404   7.089  20.157  0.00  0.00    +0.000 OA
ATOM     12  C   UNL     1       0.690   9.624  18.252  0.00  0.00    +0.000 C 
ATOM     13  C   UNL     1      -0.024  10.956  18.515  0.00  0.00    +0.000 C 
ATOM     14  C   UNL     1      -0.678  12.899  20.085  0.00  0.00    +0.000 C 
ATOM     15  C   UNL     1      -1.550  12.849  21.335  0.00  0.00    +0.000 C 
ATOM     16  O   UNL     1      -0.708  13.187  22.448  0.00  0.00    +0.000 OA
ATOM     17  C   UNL     1       0.372  13.993  21.944  0.00  0.00    +0.000 C 
ATOM     18  C   UNL     1       0.134  14.128  20.445  0.00  0.00    +0.000 C 
ENDROOT
BRANCH  10  19
ATOM     19  C   UNL     1       2.425   7.331  17.772  0.00  0.00    +0.000 C 
BRANCH  19  20
ATOM     20  C   UNL     1       3.305   6.134  17.805  0.00  0.00    +0.000 A 
ATOM     21  N   UNL     1       2.796   4.907  17.993  0.00  0.00    +0.000 NA
ATOM     22  N   UNL     1       3.862   4.097  17.869  0.00  0.00    +0.000 N 
ATOM     23  C   UNL     1       5.042   4.752  17.646  0.00  0.00    +0.000 A 
ATOM     24  C   UNL     1       6.344   4.283  17.446  0.00  0.00    +0.000 A 
ATOM     25  C   UNL     1       7.341   5.246  17.259  0.00  0.00    +0.000 A 
ATOM     26  C   UNL     1       7.043   6.610  17.268  0.00  0.00    +0.000 A 
ATOM     27  C   UNL     1       5.729   7.055  17.448  0.00  0.00    +0.000 A 
ATOM     28  C   UNL     1       4.715   6.100  17.637  0.00  0.00    +0.000 A 
ATOM     29  H   UNL     1       3.717   3.096  17.941  0.00  0.00    +0.000 HD
ENDBRANCH  19  20
ENDBRANCH  10  19
TORSDOF 2
ENDMDL
MODEL 4
REMARK VINA RESULT:      -7.5      1.881      2.532
REMARK  Name = 
REMARK  3 active torsions:
REMARK  status: ('A' for Active; 'I' for Inactive)
REMARK    1  A    between atoms: C_1  and  C_2
REMARK    2  A    between atoms: C_10  and  C_12
REMARK    3  A    between atoms: C_12  and  C_13
REMARK                            x       y       z     vdW  Elec       q    Type
REMARK                         _______ _______ _______ _____ _____    ______ ____
ROOT
ATOM      1  C   UNL     1       2.189  15.477  19.897  0.00  0.00    +0.000 C 
ATOM      2  C   UNL     1       0.953  15.338  20.728  0.00  0.00    +0.000 C 
ATOM      3  O   UNL     1       0.424  16.336  21.224  0.00  0.00    +0.000 OA
ATOM      4  N   UNL     1       0.401  14.080  20.832  0.00  0.00    +0.000 N 
ATOM      5  C   UNL     1       0.938  12.787  20.387  0.00  0.00    +0.000 C 
ATOM      6  C   UNL     1      -0.259  11.762  20.413  0.00  0.00    +0.000 C 
ATOM      7  C   UNL     1      -0.122  10.606  21.442  0.00  0.00    +0.000 C 
ATOM      8  C   UNL     1       0.421   9.249  20.981  0.00  0.00    +0.000 C 
ATOM      9  N   UNL     1       1.113   9.245  19.709  0.00  0.00    +0.000 N 
ATOM     10  C   UNL     1       1.945   8.133  19.440  0.00  0.00    +0.000 C 
ATOM     11  O   UNL     1       2.205   7.296  20.318  0.00  0.00    +0.000 OA
ATOM     12  C   UNL     1       0.492   9.977  18.623  0.00  0.00    +0.000 C 
ATOM     13  C   UNL     1      -0.401  11.168  18.991  0.00  0.00    +0.000 C 
ATOM     14  C   UNL     1      -1.491  12.720  20.745  0.00  0.00    +0.000 C 
ATOM     15  C   UNL     1      -2.518  12.361  21.813  0.00  0.00    +0.000 C 
ATOM     16  O   UNL     1      -1.886  12.560  23.087  0.00  0.00    +0.000 OA
ATOM     17  C   UNL     1      -0.847  13.538  22.906  0.00  0.00    +0.000 C 
ATOM     18  C   UNL     1      -0.886  13.928  21.433  0.00  0.00    +0.000 C 
ENDROOT
BRANCH  10  19
ATOM     19  C   UNL     1       2.533   7.977  18.042  0.00  0.00    +0.000 C 
BRANCH  19  20
ATOM     20  C   UNL     1       3.003   6.585  17.821  0.00  0.00    +0.000 A 
ATOM     21  N   UNL     1       2.169   5.544  17.961  0.00  0.00    +0.000 NA
ATOM     22  N   UNL     1       2.915   4.487  17.596  0.00  0.00    +0.000 N 
ATOM     23  C   UNL     1       4.205   4.797  17.262  0.00  0.00    +0.000 A 
ATOM     24  C   UNL     1       5.268   4.006  16.820  0.00  0.00    +0.000 A 
ATOM     25  C   UNL     1       6.483   4.657  16.580  0.00  0.00    +0.000 A 
ATOM     26  C   UNL     1       6.619   6.033  16.771  0.00  0.00    +0.000 A 
ATOM     27  C   UNL     1       5.534   6.808  17.192  0.00  0.00    +0.000 A 
ATOM     28  C   UNL     1       4.306   6.170  17.437  0.00  0.00    +0.000 A 
ATOM     29  H   UNL     1       2.480   3.570  17.588  0.00  0.00    +0.000 HD
ENDBRANCH  19  20
ENDBRANCH  10  19
TORSDOF 2
ENDMDL
MODEL 5
REMARK VINA RESULT:      -7.4      2.777      8.654
REMARK  Name = 
REMARK  3 active torsions:
REMARK  status: ('A' for Active; 'I' for Inactive)
REMARK    1  A    between atoms: C_1  and  C_2
REMARK    2  A    between atoms: C_10  and  C_12
REMARK    3  A    between atoms: C_12  and  C_13
REMARK                            x       y       z     vdW  Elec       q    Type
REMARK                         _______ _______ _______ _____ _____    ______ ____
ROOT
ATOM      1  C   UNL     1       2.161   3.363  21.942  0.00  0.00    +0.000 C 
ATOM      2  C   UNL     1       3.294   3.037  21.021  0.00  0.00    +0.000 C 
ATOM      3  O   UNL     1       3.953   2.009  21.189  0.00  0.00    +0.000 OA
ATOM      4  N   UNL     1       3.499   3.880  19.951  0.00  0.00    +0.000 N 
ATOM      5  C   UNL     1       2.876   5.177  19.652  0.00  0.00    +0.000 C 
ATOM      6  C   UNL     1       3.192   5.499  18.142  0.00  0.00    +0.000 C 
ATOM      7  C   UNL     1       4.099   6.738  17.903  0.00  0.00    +0.000 C 
ATOM      8  C   UNL     1       3.456   8.089  17.574  0.00  0.00    +0.000 C 
ATOM      9  N   UNL     1       2.043   8.205  17.870  0.00  0.00    +0.000 N 
ATOM     10  C   UNL     1       1.515   9.515  17.949  0.00  0.00    +0.000 C 
ATOM     11  O   UNL     1       2.255  10.510  17.939  0.00  0.00    +0.000 OA
ATOM     12  C   UNL     1       1.199   7.094  17.480  0.00  0.00    +0.000 C 
ATOM     13  C   UNL     1       1.843   5.703  17.412  0.00  0.00    +0.000 C 
ATOM     14  C   UNL     1       3.885   4.144  17.666  0.00  0.00    +0.000 C 
ATOM     15  C   UNL     1       5.181   4.148  16.862  0.00  0.00    +0.000 C 
ATOM     16  O   UNL     1       6.238   4.491  17.771  0.00  0.00    +0.000 OA
ATOM     17  C   UNL     1       5.815   4.108  19.091  0.00  0.00    +0.000 C 
ATOM     18  C   UNL     1       4.425   3.504  18.930  0.00  0.00    +0.000 C 
ENDROOT
BRANCH  10  19
ATOM     19  C   UNL     1       0.004   9.691  18.054  0.00  0.00    +0.000 C 
BRANCH  19  20
ATOM     20  C   UNL     1      -0.343  10.580  19.193  0.00  0.00    +0.000 A 
ATOM     21  N   UNL     1      -0.710  11.854  18.988  0.00  0.00    +0.000 NA
ATOM     22  N   UNL     1      -1.029  12.296  20.217  0.00  0.00    +0.000 N 
ATOM     23  C   UNL     1      -0.848  11.373  21.211  0.00  0.00    +0.000 A 
ATOM     24  C   UNL     1      -1.076  11.430  22.588  0.00  0.00    +0.000 A 
ATOM     25  C   UNL     1      -0.760  10.287  23.330  0.00  0.00    +0.000 A 
ATOM     26  C   UNL     1      -0.247   9.143  22.716  0.00  0.00    +0.000 A 
ATOM     27  C   UNL     1      -0.047   9.101  21.332  0.00  0.00    +0.000 A 
ATOM     28  C   UNL     1      -0.360  10.241  20.572  0.00  0.00    +0.000 A 
ATOM     29  H   UNL     1      -1.374  13.244  20.314  0.00  0.00    +0.000 HD
ENDBRANCH  19  20
ENDBRANCH  10  19
TORSDOF 2
ENDMDL
MODEL 6
REMARK VINA RESULT:      -7.4      2.598      4.009
REMARK  Name = 
REMARK  3 active torsions:
REMARK  status: ('A' for Active; 'I' for Inactive)
REMARK    1  A    between atoms: C_1  and  C_2
REMARK    2  A    between atoms: C_10  and  C_12
REMARK    3  A    between atoms: C_12  and  C_13
REMARK                            x       y       z     vdW  Elec       q    Type
REMARK                         _______ _______ _______ _____ _____    ______ ____
ROOT
ATOM      1  C   UNL     1      -5.168  11.866  18.877  0.00  0.00    +0.000 C 
ATOM      2  C   UNL     1      -4.586  12.864  19.826  0.00  0.00    +0.000 C 
ATOM      3  O   UNL     1      -5.310  13.707  20.361  0.00  0.00    +0.000 OA
ATOM      4  N   UNL     1      -3.248  12.737  20.132  0.00  0.00    +0.000 N 
ATOM      5  C   UNL     1      -2.233  11.861  19.531  0.00  0.00    +0.000 C 
ATOM      6  C   UNL     1      -0.998  11.856  20.509  0.00  0.00    +0.000 C 
ATOM      7  C   UNL     1       0.304  12.486  19.939  0.00  0.00    +0.000 C 
ATOM      8  C   UNL     1       1.374  11.577  19.327  0.00  0.00    +0.000 C 
ATOM      9  N   UNL     1       0.944  10.236  18.986  0.00  0.00    +0.000 N 
ATOM     10  C   UNL     1       1.764   9.514  18.087  0.00  0.00    +0.000 C 
ATOM     11  O   UNL     1       2.701  10.062  17.488  0.00  0.00    +0.000 OA
ATOM     12  C   UNL     1       0.137   9.539  19.967  0.00  0.00    +0.000 C 
ATOM     13  C   UNL     1      -0.722  10.388  20.912  0.00  0.00    +0.000 C 
ATOM     14  C   UNL     1      -1.570  12.678  21.750  0.00  0.00    +0.000 C 
ATOM     15  C   UNL     1      -0.769  13.798  22.406  0.00  0.00    +0.000 C 
ATOM     16  O   UNL     1      -0.808  14.921  21.512  0.00  0.00    +0.000 OA
ATOM     17  C   UNL     1      -2.001  14.800  20.717  0.00  0.00    +0.000 C 
ATOM     18  C   UNL     1      -2.693  13.526  21.186  0.00  0.00    +0.000 C 
ENDROOT
BRANCH  10  19
ATOM     19  C   UNL     1       1.472   8.035  17.855  0.00  0.00    +0.000 C 
BRANCH  19  20
ATOM     20  C   UNL     1       2.481   7.187  18.540  0.00  0.00    +0.000 A 
ATOM     21  N   UNL     1       2.272   6.733  19.785  0.00  0.00    +0.000 NA
ATOM     22  N   UNL     1       3.335   5.945  20.020  0.00  0.00    +0.000 N 
ATOM     23  C   UNL     1       4.239   5.900  18.994  0.00  0.00    +0.000 A 
ATOM     24  C   UNL     1       5.438   5.199  18.840  0.00  0.00    +0.000 A 
ATOM     25  C   UNL     1       6.138   5.399  17.645  0.00  0.00    +0.000 A 
ATOM     26  C   UNL     1       5.654   6.255  16.655  0.00  0.00    +0.000 A 
ATOM     27  C   UNL     1       4.440   6.929  16.822  0.00  0.00    +0.000 A 
ATOM     28  C   UNL     1       3.723   6.739  18.016  0.00  0.00    +0.000 A 
ATOM     29  H   UNL     1       3.384   5.454  20.905  0.00  0.00    +0.000 HD
ENDBRANCH  19  20
ENDBRANCH  10  19
TORSDOF 2
ENDMDL
MODEL 7
REMARK VINA RESULT:      -7.3      1.665      2.165
REMARK  Name = 
REMARK  3 active torsions:
REMARK  status: ('A' for Active; 'I' for Inactive)
REMARK    1  A    between atoms: C_1  and  C_2
REMARK    2  A    between atoms: C_10  and  C_12
REMARK    3  A    between atoms: C_12  and  C_13
REMARK                            x       y       z     vdW  Elec       q    Type
REMARK                         _______ _______ _______ _____ _____    ______ ____
ROOT
ATOM      1  C   UNL     1       0.083  15.898  18.569  0.00  0.00    +0.000 C 
ATOM      2  C   UNL     1      -0.880  15.704  19.698  0.00  0.00    +0.000 C 
ATOM      3  O   UNL     1      -1.509  16.665  20.147  0.00  0.00    +0.000 OA
ATOM      4  N   UNL     1      -1.087  14.415  20.136  0.00  0.00    +0.000 N 
ATOM      5  C   UNL     1      -0.370  13.182  19.780  0.00  0.00    +0.000 C 
ATOM      6  C   UNL     1      -1.261  11.978  20.270  0.00  0.00    +0.000 C 
ATOM      7  C   UNL     1      -0.640  11.110  21.400  0.00  0.00    +0.000 C 
ATOM      8  C   UNL     1       0.094   9.815  21.038  0.00  0.00    +0.000 C 
ATOM      9  N   UNL     1       0.480   9.676  19.648  0.00  0.00    +0.000 N 
ATOM     10  C   UNL     1       1.473   8.710  19.357  0.00  0.00    +0.000 C 
ATOM     11  O   UNL     1       2.102   8.141  20.261  0.00  0.00    +0.000 OA
ATOM     12  C   UNL     1      -0.512  10.033  18.654  0.00  0.00    +0.000 C 
ATOM     13  C   UNL     1      -1.559  11.084  19.044  0.00  0.00    +0.000 C 
ATOM     14  C   UNL     1      -2.582  12.732  20.748  0.00  0.00    +0.000 C 
ATOM     15  C   UNL     1      -3.245  12.417  22.084  0.00  0.00    +0.000 C 
ATOM     16  O   UNL     1      -2.420  12.995  23.108  0.00  0.00    +0.000 OA
ATOM     17  C   UNL     1      -1.702  14.093  22.517  0.00  0.00    +0.000 C 
ATOM     18  C   UNL     1      -2.144  14.150  21.060  0.00  0.00    +0.000 C 
ENDROOT
BRANCH  10  19
ATOM     19  C   UNL     1       1.768   8.380  17.898  0.00  0.00    +0.000 C 
BRANCH  19  20
ATOM     20  C   UNL     1       2.796   7.311  17.799  0.00  0.00    +0.000 A 
ATOM     21  N   UNL     1       4.095   7.614  17.663  0.00  0.00    +0.000 NA
ATOM     22  N   UNL     1       4.707   6.417  17.702  0.00  0.00    +0.000 N 
ATOM     23  C   UNL     1       3.855   5.354  17.821  0.00  0.00    +0.000 A 
ATOM     24  C   UNL     1       4.088   3.979  17.915  0.00  0.00    +0.000 A 
ATOM     25  C   UNL     1       2.964   3.152  18.012  0.00  0.00    +0.000 A 
ATOM     26  C   UNL     1       1.672   3.682  18.019  0.00  0.00    +0.000 A 
ATOM     27  C   UNL     1       1.464   5.063  17.947  0.00  0.00    +0.000 A 
ATOM     28  C   UNL     1       2.582   5.908  17.849  0.00  0.00    +0.000 A 
ATOM     29  H   UNL     1       5.720   6.392  17.649  0.00  0.00    +0.000 HD
ENDBRANCH  19  20
ENDBRANCH  10  19
TORSDOF 2
ENDMDL
MODEL 8
REMARK VINA RESULT:      -7.3      1.362      1.620
REMARK  Name = 
REMARK  3 active torsions:
REMARK  status: ('A' for Active; 'I' for Inactive)
REMARK    1  A    between atoms: C_1  and  C_2
REMARK    2  A    between atoms: C_10  and  C_12
REMARK    3  A    between atoms: C_12  and  C_13
REMARK                            x       y       z     vdW  Elec       q    Type
REMARK                         _______ _______ _______ _____ _____    ______ ____
ROOT
ATOM      1  C   UNL     1       3.374  14.448  18.305  0.00  0.00    +0.000 C 
ATOM      2  C   UNL     1       1.935  14.659  18.656  0.00  0.00    +0.000 C 
ATOM      3  O   UNL     1       1.448  15.791  18.621  0.00  0.00    +0.000 OA
ATOM      4  N   UNL     1       1.181  13.538  18.926  0.00  0.00    +0.000 N 
ATOM      5  C   UNL     1       1.612  12.143  19.096  0.00  0.00    +0.000 C 
ATOM      6  C   UNL     1       0.316  11.251  19.004  0.00  0.00    +0.000 C 
ATOM      7  C   UNL     1      -0.063  10.495  20.308  0.00  0.00    +0.000 C 
ATOM      8  C   UNL     1       0.367   9.035  20.484  0.00  0.00    +0.000 C 
ATOM      9  N   UNL     1       1.411   8.573  19.592  0.00  0.00    +0.000 N 
ATOM     10  C   UNL     1       2.093   7.391  19.969  0.00  0.00    +0.000 C 
ATOM     11  O   UNL     1       1.926   6.880  21.086  0.00  0.00    +0.000 OA
ATOM     12  C   UNL     1       1.287   8.936  18.195  0.00  0.00    +0.000 C 
ATOM     13  C   UNL     1       0.530  10.228  17.863  0.00  0.00    +0.000 C 
ATOM     14  C   UNL     1      -0.784  12.328  18.590  0.00  0.00    +0.000 C 
ATOM     15  C   UNL     1      -2.137  12.399  19.290  0.00  0.00    +0.000 C 
ATOM     16  O   UNL     1      -1.910  12.975  20.586  0.00  0.00    +0.000 OA
ATOM     17  C   UNL     1      -0.722  13.781  20.498  0.00  0.00    +0.000 C 
ATOM     18  C   UNL     1      -0.236  13.662  19.059  0.00  0.00    +0.000 C 
ENDROOT
BRANCH  10  19
ATOM     19  C   UNL     1       3.053   6.750  18.974  0.00  0.00    +0.000 C 
BRANCH  19  20
ATOM     20  C   UNL     1       2.535   5.435  18.516  0.00  0.00    +0.000 A 
ATOM     21  N   UNL     1       1.432   5.353  17.758  0.00  0.00    +0.000 NA
ATOM     22  N   UNL     1       1.337   4.042  17.474  0.00  0.00    +0.000 N 
ATOM     23  C   UNL     1       2.310   3.271  18.048  0.00  0.00    +0.000 A 
ATOM     24  C   UNL     1       2.569   1.899  17.985  0.00  0.00    +0.000 A 
ATOM     25  C   UNL     1       3.661   1.427  18.721  0.00  0.00    +0.000 A 
ATOM     26  C   UNL     1       4.453   2.291  19.478  0.00  0.00    +0.000 A 
ATOM     27  C   UNL     1       4.188   3.664  19.509  0.00  0.00    +0.000 A 
ATOM     28  C   UNL     1       3.095   4.156  18.773  0.00  0.00    +0.000 A 
ATOM     29  H   UNL     1       0.581   3.733  16.872  0.00  0.00    +0.000 HD
ENDBRANCH  19  20
ENDBRANCH  10  19
TORSDOF 2
ENDMDL
MODEL 9
REMARK VINA RESULT:      -7.3      1.842      2.398
REMARK  Name = 
REMARK  3 active torsions:
REMARK  status: ('A' for Active; 'I' for Inactive)
REMARK    1  A    between atoms: C_1  and  C_2
REMARK    2  A    between atoms: C_10  and  C_12
REMARK    3  A    between atoms: C_12  and  C_13
REMARK                            x       y       z     vdW  Elec       q    Type
REMARK                         _______ _______ _______ _____ _____    ______ ____
ROOT
ATOM      1  C   UNL     1       3.383  14.473  18.100  0.00  0.00    +0.000 C 
ATOM      2  C   UNL     1       2.175  14.674  18.960  0.00  0.00    +0.000 C 
ATOM      3  O   UNL     1       1.784  15.814  19.222  0.00  0.00    +0.000 OA
ATOM      4  N   UNL     1       1.489  13.547  19.357  0.00  0.00    +0.000 N 
ATOM      5  C   UNL     1       1.858  12.132  19.213  0.00  0.00    +0.000 C 
ATOM      6  C   UNL     1       0.555  11.290  19.491  0.00  0.00    +0.000 C 
ATOM      7  C   UNL     1       0.605  10.388  20.756  0.00  0.00    +0.000 C 
ATOM      8  C   UNL     1       0.971   8.908  20.610  0.00  0.00    +0.000 C 
ATOM      9  N   UNL     1       1.604   8.533  19.361  0.00  0.00    +0.000 N 
ATOM     10  C   UNL     1       2.293   7.298  19.343  0.00  0.00    +0.000 C 
ATOM     11  O   UNL     1       2.494   6.656  20.384  0.00  0.00    +0.000 OA
ATOM     12  C   UNL     1       1.024   9.071  18.147  0.00  0.00    +0.000 C 
ATOM     13  C   UNL     1       0.287  10.412  18.246  0.00  0.00    +0.000 C 
ATOM     14  C   UNL     1      -0.545  12.438  19.614  0.00  0.00    +0.000 C 
ATOM     15  C   UNL     1      -1.561  12.455  20.751  0.00  0.00    +0.000 C 
ATOM     16  O   UNL     1      -0.857  12.860  21.936  0.00  0.00    +0.000 OA
ATOM     17  C   UNL     1       0.277  13.641  21.520  0.00  0.00    +0.000 C 
ATOM     18  C   UNL     1       0.220  13.689  19.997  0.00  0.00    +0.000 C 
ENDROOT
BRANCH  10  19
ATOM     19  C   UNL     1       2.800   6.762  18.008  0.00  0.00    +0.000 C 
BRANCH  19  20
ATOM     20  C   UNL     1       4.116   6.093  18.176  0.00  0.00    +0.000 A 
ATOM     21  N   UNL     1       4.555   5.726  19.389  0.00  0.00    +0.000 NA
ATOM     22  N   UNL     1       5.708   5.084  19.131  0.00  0.00    +0.000 N 
ATOM     23  C   UNL     1       6.049   5.054  17.807  0.00  0.00    +0.000 A 
ATOM     24  C   UNL     1       7.135   4.482  17.138  0.00  0.00    +0.000 A 
ATOM     25  C   UNL     1       7.187   4.657  15.751  0.00  0.00    +0.000 A 
ATOM     26  C   UNL     1       6.195   5.366  15.072  0.00  0.00    +0.000 A 
ATOM     27  C   UNL     1       5.106   5.912  15.759  0.00  0.00    +0.000 A 
ATOM     28  C   UNL     1       5.038   5.745  17.153  0.00  0.00    +0.000 A 
ATOM     29  H   UNL     1       6.218   4.678  19.908  0.00  0.00    +0.000 HD
ENDBRANCH  19  20
ENDBRANCH  10  19
TORSDOF 2
ENDMDL
