MODEL 1
REMARK VINA RESULT:      -8.6      0.000      0.000
REMARK  Name = 
REMARK  7 active torsions:
REMARK  status: ('A' for Active; 'I' for Inactive)
REMARK    1  A    between atoms: C_1  and  C_2
REMARK    2  A    between atoms: C_2  and  C_3
REMARK    3  A    between atoms: C_2  and  C_13
REMARK    4  A    between atoms: C_3  and  C_4
REMARK    5  A    between atoms: C_8  and  C_9
REMARK    6  A    between atoms: C_17  and  N_18
REMARK    7  A    between atoms: C_23  and  C_24
REMARK                            x       y       z     vdW  Elec       q    Type
REMARK                         _______ _______ _______ _____ _____    ______ ____
ROOT
ATOM      1  C   UNL     1       2.981   4.641  19.083  0.00  0.00    +0.000 A 
ATOM      2  C   UNL     1       2.910   3.623  18.120  0.00  0.00    +0.000 A 
ATOM      3  C   UNL     1       4.048   2.940  17.711  0.00  0.00    +0.000 A 
ATOM      4  C   UNL     1       5.292   3.334  18.175  0.00  0.00    +0.000 A 
ATOM      5  C   UNL     1       5.406   4.542  18.882  0.00  0.00    +0.000 A 
ATOM      6  C   UNL     1       4.256   5.097  19.460  0.00  0.00    +0.000 A 
ENDROOT
BRANCH   5   7
ATOM      7  N   UNL     1       6.523   5.436  18.574  0.00  0.00    +0.000 N 
ATOM      8  C   UNL     1       6.014   6.645  17.875  0.00  0.00    +0.000 C 
ATOM      9  C   UNL     1       6.053   6.197  16.445  0.00  0.00    +0.000 A 
ATOM     10  C   UNL     1       5.094   6.339  15.456  0.00  0.00    +0.000 A 
ATOM     11  C   UNL     1       5.180   5.497  14.341  0.00  0.00    +0.000 A 
ATOM     12  C   UNL     1       6.227   4.556  14.223  0.00  0.00    +0.000 A 
ATOM     13  C   UNL     1       7.213   4.442  15.207  0.00  0.00    +0.000 A 
ATOM     14  C   UNL     1       7.079   5.255  16.317  0.00  0.00    +0.000 A 
ATOM     15  C   UNL     1       7.511   4.891  17.696  0.00  0.00    +0.000 C 
ATOM     16  O   UNL     1       8.387   4.091  17.943  0.00  0.00    +0.000 OA
BRANCH  12  17
ATOM     17  C   UNL     1       6.209   3.573  13.120  0.00  0.00    +0.000 C 
ATOM     18  O   UNL     1       5.298   3.532  12.303  0.00  0.00    +0.000 OA
ENDBRANCH  12  17
ENDBRANCH   5   7
BRANCH   1  20
ATOM     19  C   UNL     1       0.915   4.321  20.550  0.00  0.00    +0.000 C 
ATOM     20  C   UNL     1       1.732   5.290  19.678  0.00  0.00    +0.000 C 
BRANCH  20  21
ATOM     21  C   UNL     1       2.142   6.554  20.472  0.00  0.00    +0.000 C 
BRANCH  21  22
ATOM     22  C   UNL     1       1.786   7.845  19.797  0.00  0.00    +0.000 A 
ATOM     23  N   UNL     1       2.289   8.099  18.580  0.00  0.00    +0.000 NA
ATOM     24  N   UNL     1       1.808   9.306  18.264  0.00  0.00    +0.000 N 
ATOM     25  C   UNL     1       0.999   9.830  19.226  0.00  0.00    +0.000 A 
ATOM     26  C   UNL     1       0.950   8.901  20.254  0.00  0.00    +0.000 A 
ATOM     27  H   UNL     1       2.074   9.709  17.371  0.00  0.00    +0.000 HD
BRANCH  26  28
ATOM     28  C   UNL     1       0.193   9.003  21.526  0.00  0.00    +0.000 C 
ATOM     29  F   UNL     1      -0.500  10.170  21.643  0.00  0.00    +0.000 F 
ATOM     30  F   UNL     1      -0.715   8.004  21.648  0.00  0.00    +0.000 F 
ATOM     31  F   UNL     1       1.012   8.929  22.601  0.00  0.00    +0.000 F 
ENDBRANCH  26  28
ENDBRANCH  21  22
ENDBRANCH  20  21
ENDBRANCH   1  20
TORSDOF 6
ENDMDL
MODEL 2
REMARK VINA RESULT:      -8.6      1.853      2.039
REMARK  Name = 
REMARK  7 active torsions:
REMARK  status: ('A' for Active; 'I' for Inactive)
REMARK    1  A    between atoms: C_1  and  C_2
REMARK    2  A    between atoms: C_2  and  C_3
REMARK    3  A    between atoms: C_2  and  C_13
REMARK    4  A    between atoms: C_3  and  C_4
REMARK    5  A    between atoms: C_8  and  C_9
REMARK    6  A    between atoms: C_17  and  N_18
REMARK    7  A    between atoms: C_23  and  C_24
REMARK                            x       y       z     vdW  Elec       q    Type
REMARK                         _______ _______ _______ _____ _____    ______ ____
ROOT
ATOM      1  C   UNL     1       2.989   4.743  19.151  0.00  0.00    +0.000 A 
ATOM      2  C   UNL     1       2.845   3.814  18.108  0.00  0.00    +0.000 A 
ATOM      3  C   UNL     1       3.939   3.117  17.613  0.00  0.00    +0.000 A 
ATOM      4  C   UNL     1       5.211   3.413  18.074  0.00  0.00    +0.000 A 
ATOM      5  C   UNL     1       5.400   4.550  18.875  0.00  0.00    +0.000 A 
ATOM      6  C   UNL     1       4.292   5.107  19.529  0.00  0.00    +0.000 A 
ENDROOT
BRANCH   5   7
ATOM      7  N   UNL     1       6.551   5.414  18.612  0.00  0.00    +0.000 N 
ATOM      8  C   UNL     1       6.094   6.665  17.953  0.00  0.00    +0.000 C 
ATOM      9  C   UNL     1       6.133   6.269  16.508  0.00  0.00    +0.000 A 
ATOM     10  C   UNL     1       5.191   6.482  15.516  0.00  0.00    +0.000 A 
ATOM     11  C   UNL     1       5.259   5.678  14.371  0.00  0.00    +0.000 A 
ATOM     12  C   UNL     1       6.274   4.706  14.229  0.00  0.00    +0.000 A 
ATOM     13  C   UNL     1       7.244   4.520  15.217  0.00  0.00    +0.000 A 
ATOM     14  C   UNL     1       7.126   5.296  16.356  0.00  0.00    +0.000 A 
ATOM     15  C   UNL     1       7.529   4.866  17.724  0.00  0.00    +0.000 C 
ATOM     16  O   UNL     1       8.374   4.027  17.950  0.00  0.00    +0.000 OA
BRANCH  12  17
ATOM     17  C   UNL     1       6.233   3.765  13.089  0.00  0.00    +0.000 C 
ATOM     18  O   UNL     1       5.183   3.447  12.549  0.00  0.00    +0.000 OA
ENDBRANCH  12  17
ENDBRANCH   5   7
BRANCH   1  20
ATOM     19  C   UNL     1       0.922   4.390  20.611  0.00  0.00    +0.000 C 
ATOM     20  C   UNL     1       1.786   5.397  19.832  0.00  0.00    +0.000 C 
BRANCH  20  21
ATOM     21  C   UNL     1       2.280   6.544  20.747  0.00  0.00    +0.000 C 
BRANCH  21  22
ATOM     22  C   UNL     1       1.555   7.842  20.548  0.00  0.00    +0.000 A 
ATOM     23  N   UNL     1       0.874   8.366  21.577  0.00  0.00    +0.000 NA
ATOM     24  N   UNL     1       0.339   9.490  21.087  0.00  0.00    +0.000 N 
ATOM     25  C   UNL     1       0.665   9.715  19.784  0.00  0.00    +0.000 A 
ATOM     26  C   UNL     1       1.470   8.658  19.386  0.00  0.00    +0.000 A 
ATOM     27  H   UNL     1      -0.237  10.055  21.703  0.00  0.00    +0.000 HD
BRANCH  26  28
ATOM     28  C   UNL     1       2.090   8.448  18.055  0.00  0.00    +0.000 C 
ATOM     29  F   UNL     1       3.430   8.216  18.121  0.00  0.00    +0.000 F 
ATOM     30  F   UNL     1       1.546   7.386  17.414  0.00  0.00    +0.000 F 
ATOM     31  F   UNL     1       1.922   9.525  17.252  0.00  0.00    +0.000 F 
ENDBRANCH  26  28
ENDBRANCH  21  22
ENDBRANCH  20  21
ENDBRANCH   1  20
TORSDOF 6
ENDMDL
MODEL 3
REMARK VINA RESULT:      -8.1      4.782      8.633
REMARK  Name = 
REMARK  7 active torsions:
REMARK  status: ('A' for Active; 'I' for Inactive)
REMARK    1  A    between atoms: C_1  and  C_2
REMARK    2  A    between atoms: C_2  and  C_3
REMARK    3  A    between atoms: C_2  and  C_13
REMARK    4  A    between atoms: C_3  and  C_4
REMARK    5  A    between atoms: C_8  and  C_9
REMARK    6  A    between atoms: C_17  and  N_18
REMARK    7  A    between atoms: C_23  and  C_24
REMARK                            x       y       z     vdW  Elec       q    Type
REMARK                         _______ _______ _______ _____ _____    ______ ____
ROOT
ATOM      1  C   UNL     1       2.434   7.174  19.369  0.00  0.00    +0.000 A 
ATOM      2  C   UNL     1       2.487   7.561  18.021  0.00  0.00    +0.000 A 
ATOM      3  C   UNL     1       2.057   8.819  17.618  0.00  0.00    +0.000 A 
ATOM      4  C   UNL     1       1.465   9.671  18.536  0.00  0.00    +0.000 A 
ATOM      5  C   UNL     1       1.119   9.176  19.803  0.00  0.00    +0.000 A 
ATOM      6  C   UNL     1       1.736   8.004  20.262  0.00  0.00    +0.000 A 
ENDROOT
BRANCH   5   7
ATOM      7  N   UNL     1      -0.180   9.539  20.371  0.00  0.00    +0.000 N 
ATOM      8  C   UNL     1      -0.954  10.328  19.378  0.00  0.00    +0.000 C 
ATOM      9  C   UNL     1      -0.495  11.721  19.685  0.00  0.00    +0.000 A 
ATOM     10  C   UNL     1      -0.103  12.725  18.816  0.00  0.00    +0.000 A 
ATOM     11  C   UNL     1       0.662  13.776  19.338  0.00  0.00    +0.000 A 
ATOM     12  C   UNL     1       0.992  13.817  20.711  0.00  0.00    +0.000 A 
ATOM     13  C   UNL     1       0.563  12.820  21.591  0.00  0.00    +0.000 A 
ATOM     14  C   UNL     1      -0.152  11.772  21.039  0.00  0.00    +0.000 A 
ATOM     15  C   UNL     1      -0.121  10.368  21.535  0.00  0.00    +0.000 C 
ATOM     16  O   UNL     1       0.146  10.056  22.675  0.00  0.00    +0.000 OA
BRANCH  12  17
ATOM     17  C   UNL     1       1.929  14.847  21.209  0.00  0.00    +0.000 C 
ATOM     18  O   UNL     1       2.242  14.922  22.389  0.00  0.00    +0.000 OA
ENDBRANCH  12  17
ENDBRANCH   5   7
BRANCH   1  20
ATOM     19  C   UNL     1       2.072   5.014  20.685  0.00  0.00    +0.000 C 
ATOM     20  C   UNL     1       3.056   5.869  19.867  0.00  0.00    +0.000 C 
BRANCH  20  21
ATOM     21  C   UNL     1       3.622   5.080  18.661  0.00  0.00    +0.000 C 
BRANCH  21  22
ATOM     22  C   UNL     1       5.117   5.105  18.559  0.00  0.00    +0.000 A 
ATOM     23  N   UNL     1       5.843   4.998  19.681  0.00  0.00    +0.000 NA
ATOM     24  N   UNL     1       7.113   5.067  19.266  0.00  0.00    +0.000 N 
ATOM     25  C   UNL     1       7.230   5.199  17.916  0.00  0.00    +0.000 A 
ATOM     26  C   UNL     1       5.941   5.223  17.405  0.00  0.00    +0.000 A 
ATOM     27  H   UNL     1       7.849   5.015  19.964  0.00  0.00    +0.000 HD
BRANCH  26  28
ATOM     28  C   UNL     1       5.537   5.343  15.983  0.00  0.00    +0.000 C 
ATOM     29  F   UNL     1       4.733   4.323  15.569  0.00  0.00    +0.000 F 
ATOM     30  F   UNL     1       4.853   6.489  15.753  0.00  0.00    +0.000 F 
ATOM     31  F   UNL     1       6.611   5.349  15.159  0.00  0.00    +0.000 F 
ENDBRANCH  26  28
ENDBRANCH  21  22
ENDBRANCH  20  21
ENDBRANCH   1  20
TORSDOF 6
ENDMDL
MODEL 4
REMARK VINA RESULT:      -7.8      4.863      8.765
REMARK  Name = 
REMARK  7 active torsions:
REMARK  status: ('A' for Active; 'I' for Inactive)
REMARK    1  A    between atoms: C_1  and  C_2
REMARK    2  A    between atoms: C_2  and  C_3
REMARK    3  A    between atoms: C_2  and  C_13
REMARK    4  A    between atoms: C_3  and  C_4
REMARK    5  A    between atoms: C_8  and  C_9
REMARK    6  A    between atoms: C_17  and  N_18
REMARK    7  A    between atoms: C_23  and  C_24
REMARK                            x       y       z     vdW  Elec       q    Type
REMARK                         _______ _______ _______ _____ _____    ______ ____
ROOT
ATOM      1  C   UNL     1       2.194   7.566  19.413  0.00  0.00    +0.000 A 
ATOM      2  C   UNL     1       2.255   7.951  18.064  0.00  0.00    +0.000 A 
ATOM      3  C   UNL     1       1.845   9.214  17.659  0.00  0.00    +0.000 A 
ATOM      4  C   UNL     1       1.265  10.077  18.574  0.00  0.00    +0.000 A 
ATOM      5  C   UNL     1       0.909   9.589  19.842  0.00  0.00    +0.000 A 
ATOM      6  C   UNL     1       1.507   8.408  20.303  0.00  0.00    +0.000 A 
ENDROOT
BRANCH   5   7
ATOM      7  N   UNL     1      -0.385   9.973  20.407  0.00  0.00    +0.000 N 
ATOM      8  C   UNL     1      -1.134  10.795  19.422  0.00  0.00    +0.000 C 
ATOM      9  C   UNL     1      -0.645  12.172  19.753  0.00  0.00    +0.000 A 
ATOM     10  C   UNL     1      -0.224  13.181  18.902  0.00  0.00    +0.000 A 
ATOM     11  C   UNL     1       0.560  14.205  19.446  0.00  0.00    +0.000 A 
ATOM     12  C   UNL     1       0.883  14.218  20.821  0.00  0.00    +0.000 A 
ATOM     13  C   UNL     1       0.425  13.217  21.682  0.00  0.00    +0.000 A 
ATOM     14  C   UNL     1      -0.310  12.195  21.110  0.00  0.00    +0.000 A 
ATOM     15  C   UNL     1      -0.315  10.782  21.584  0.00  0.00    +0.000 C 
ATOM     16  O   UNL     1      -0.063  10.447  22.721  0.00  0.00    +0.000 OA
BRANCH  12  17
ATOM     17  C   UNL     1       1.839  15.218  21.341  0.00  0.00    +0.000 C 
ATOM     18  O   UNL     1       1.965  15.434  22.538  0.00  0.00    +0.000 OA
ENDBRANCH  12  17
ENDBRANCH   5   7
BRANCH   1  20
ATOM     19  C   UNL     1       1.749   5.328  20.560  0.00  0.00    +0.000 C 
ATOM     20  C   UNL     1       2.795   6.253  19.914  0.00  0.00    +0.000 C 
BRANCH  20  21
ATOM     21  C   UNL     1       3.527   5.548  18.746  0.00  0.00    +0.000 C 
BRANCH  21  22
ATOM     22  C   UNL     1       3.930   4.134  19.039  0.00  0.00    +0.000 A 
ATOM     23  N   UNL     1       5.074   3.913  19.702  0.00  0.00    +0.000 NA
ATOM     24  N   UNL     1       5.157   2.581  19.791  0.00  0.00    +0.000 N 
ATOM     25  C   UNL     1       4.099   1.938  19.224  0.00  0.00    +0.000 A 
ATOM     26  C   UNL     1       3.260   2.921  18.719  0.00  0.00    +0.000 A 
ATOM     27  H   UNL     1       5.966   2.181  20.256  0.00  0.00    +0.000 HD
BRANCH  26  28
ATOM     28  C   UNL     1       1.969   2.729  18.015  0.00  0.00    +0.000 C 
ATOM     29  F   UNL     1       0.948   2.393  18.853  0.00  0.00    +0.000 F 
ATOM     30  F   UNL     1       1.581   3.856  17.370  0.00  0.00    +0.000 F 
ATOM     31  F   UNL     1       2.048   1.747  17.087  0.00  0.00    +0.000 F 
ENDBRANCH  26  28
ENDBRANCH  21  22
ENDBRANCH  20  21
ENDBRANCH   1  20
TORSDOF 6
ENDMDL
MODEL 5
REMARK VINA RESULT:      -7.7      2.247      4.486
REMARK  Name = 
REMARK  7 active torsions:
REMARK  status: ('A' for Active; 'I' for Inactive)
REMARK    1  A    between atoms: C_1  and  C_2
REMARK    2  A    between atoms: C_2  and  C_3
REMARK    3  A    between atoms: C_2  and  C_13
REMARK    4  A    between atoms: C_3  and  C_4
REMARK    5  A    between atoms: C_8  and  C_9
REMARK    6  A    between atoms: C_17  and  N_18
REMARK    7  A    between atoms: C_23  and  C_24
REMARK                            x       y       z     vdW  Elec       q    Type
REMARK                         _______ _______ _______ _____ _____    ______ ____
ROOT
ATOM      1  C   UNL     1       3.116   6.846  17.989  0.00  0.00    +0.000 A 
ATOM      2  C   UNL     1       3.962   7.775  17.363  0.00  0.00    +0.000 A 
ATOM      3  C   UNL     1       4.867   7.377  16.387  0.00  0.00    +0.000 A 
ATOM      4  C   UNL     1       5.020   6.032  16.096  0.00  0.00    +0.000 A 
ATOM      5  C   UNL     1       4.416   5.079  16.933  0.00  0.00    +0.000 A 
ATOM      6  C   UNL     1       3.359   5.481  17.761  0.00  0.00    +0.000 A 
ENDROOT
BRANCH   5   7
ATOM      7  N   UNL     1       5.183   3.894  17.320  0.00  0.00    +0.000 N 
ATOM      8  C   UNL     1       4.519   2.676  16.788  0.00  0.00    +0.000 C 
ATOM      9  C   UNL     1       3.565   2.352  17.897  0.00  0.00    +0.000 A 
ATOM     10  C   UNL     1       2.227   2.002  17.827  0.00  0.00    +0.000 A 
ATOM     11  C   UNL     1       1.455   2.148  18.987  0.00  0.00    +0.000 A 
ATOM     12  C   UNL     1       2.036   2.608  20.189  0.00  0.00    +0.000 A 
ATOM     13  C   UNL     1       3.395   2.925  20.264  0.00  0.00    +0.000 A 
ATOM     14  C   UNL     1       4.122   2.814  19.093  0.00  0.00    +0.000 A 
ATOM     15  C   UNL     1       5.284   3.673  18.729  0.00  0.00    +0.000 C 
ATOM     16  O   UNL     1       5.991   4.236  19.536  0.00  0.00    +0.000 OA
BRANCH  12  17
ATOM     17  C   UNL     1       1.174   2.904  21.353  0.00  0.00    +0.000 C 
ATOM     18  O   UNL     1       1.424   2.474  22.471  0.00  0.00    +0.000 OA
ENDBRANCH  12  17
ENDBRANCH   5   7
BRANCH   1  20
ATOM     19  C   UNL     1       1.949   6.428  20.223  0.00  0.00    +0.000 C 
ATOM     20  C   UNL     1       1.996   7.273  18.938  0.00  0.00    +0.000 C 
BRANCH  20  21
ATOM     21  C   UNL     1       2.147   8.780  19.259  0.00  0.00    +0.000 C 
BRANCH  21  22
ATOM     22  C   UNL     1       0.871   9.560  19.156  0.00  0.00    +0.000 A 
ATOM     23  N   UNL     1       0.567  10.153  17.992  0.00  0.00    +0.000 NA
ATOM     24  N   UNL     1      -0.598  10.767  18.223  0.00  0.00    +0.000 N 
ATOM     25  C   UNL     1      -1.063  10.577  19.488  0.00  0.00    +0.000 A 
ATOM     26  C   UNL     1      -0.132   9.784  20.140  0.00  0.00    +0.000 A 
ATOM     27  H   UNL     1      -1.018  11.297  17.465  0.00  0.00    +0.000 HD
BRANCH  26  28
ATOM     28  C   UNL     1      -0.188   9.291  21.538  0.00  0.00    +0.000 C 
ATOM     29  F   UNL     1      -0.734   8.047  21.645  0.00  0.00    +0.000 F 
ATOM     30  F   UNL     1       1.047   9.217  22.091  0.00  0.00    +0.000 F 
ATOM     31  F   UNL     1      -0.926  10.108  22.325  0.00  0.00    +0.000 F 
ENDBRANCH  26  28
ENDBRANCH  21  22
ENDBRANCH  20  21
ENDBRANCH   1  20
TORSDOF 6
ENDMDL
MODEL 6
REMARK VINA RESULT:      -7.7      4.836      8.843
REMARK  Name = 
REMARK  7 active torsions:
REMARK  status: ('A' for Active; 'I' for Inactive)
REMARK    1  A    between atoms: C_1  and  C_2
REMARK    2  A    between atoms: C_2  and  C_3
REMARK    3  A    between atoms: C_2  and  C_13
REMARK    4  A    between atoms: C_3  and  C_4
REMARK    5  A    between atoms: C_8  and  C_9
REMARK    6  A    between atoms: C_17  and  N_18
REMARK    7  A    between atoms: C_23  and  C_24
REMARK                            x       y       z     vdW  Elec       q    Type
REMARK                         _______ _______ _______ _____ _____    ______ ____
ROOT
ATOM      1  C   UNL     1       2.046   7.732  19.355  0.00  0.00    +0.000 A 
ATOM      2  C   UNL     1       2.124   8.220  18.041  0.00  0.00    +0.000 A 
ATOM      3  C   UNL     1       1.762   9.527  17.738  0.00  0.00    +0.000 A 
ATOM      4  C   UNL     1       1.215  10.335  18.720  0.00  0.00    +0.000 A 
ATOM      5  C   UNL     1       0.839   9.763  19.946  0.00  0.00    +0.000 A 
ATOM      6  C   UNL     1       1.391   8.526  20.311  0.00  0.00    +0.000 A 
ENDROOT
BRANCH   5   7
ATOM      7  N   UNL     1      -0.440  10.149  20.542  0.00  0.00    +0.000 N 
ATOM      8  C   UNL     1      -1.214  10.968  19.573  0.00  0.00    +0.000 C 
ATOM      9  C   UNL     1      -0.716  12.346  19.886  0.00  0.00    +0.000 A 
ATOM     10  C   UNL     1      -0.316  13.351  19.020  0.00  0.00    +0.000 A 
ATOM     11  C   UNL     1       0.483  14.377  19.540  0.00  0.00    +0.000 A 
ATOM     12  C   UNL     1       0.840  14.395  20.907  0.00  0.00    +0.000 A 
ATOM     13  C   UNL     1       0.403  13.398  21.783  0.00  0.00    +0.000 A 
ATOM     14  C   UNL     1      -0.346  12.374  21.234  0.00  0.00    +0.000 A 
ATOM     15  C   UNL     1      -0.340  10.963  21.714  0.00  0.00    +0.000 C 
ATOM     16  O   UNL     1      -0.059  10.632  22.845  0.00  0.00    +0.000 OA
BRANCH  12  17
ATOM     17  C   UNL     1       1.810  15.396  21.398  0.00  0.00    +0.000 C 
ATOM     18  O   UNL     1       2.058  15.529  22.589  0.00  0.00    +0.000 OA
ENDBRANCH  12  17
ENDBRANCH   5   7
BRANCH   1  20
ATOM     19  C   UNL     1       1.652   5.589  20.688  0.00  0.00    +0.000 C 
ATOM     20  C   UNL     1       2.595   6.361  19.749  0.00  0.00    +0.000 C 
BRANCH  20  21
ATOM     21  C   UNL     1       2.906   5.549  18.468  0.00  0.00    +0.000 C 
BRANCH  21  22
ATOM     22  C   UNL     1       4.287   4.965  18.432  0.00  0.00    +0.000 A 
ATOM     23  N   UNL     1       4.522   3.821  19.089  0.00  0.00    +0.000 NA
ATOM     24  N   UNL     1       5.820   3.577  18.881  0.00  0.00    +0.000 N 
ATOM     25  C   UNL     1       6.425   4.514  18.099  0.00  0.00    +0.000 A 
ATOM     26  C   UNL     1       5.452   5.448  17.774  0.00  0.00    +0.000 A 
ATOM     27  H   UNL     1       6.226   2.747  19.304  0.00  0.00    +0.000 HD
BRANCH  26  28
ATOM     28  C   UNL     1       5.611   6.658  16.932  0.00  0.00    +0.000 C 
ATOM     29  F   UNL     1       4.919   6.589  15.760  0.00  0.00    +0.000 F 
ATOM     30  F   UNL     1       5.175   7.771  17.571  0.00  0.00    +0.000 F 
ATOM     31  F   UNL     1       6.907   6.871  16.605  0.00  0.00    +0.000 F 
ENDBRANCH  26  28
ENDBRANCH  21  22
ENDBRANCH  20  21
ENDBRANCH   1  20
TORSDOF 6
ENDMDL
MODEL 7
REMARK VINA RESULT:      -7.7      5.204      9.582
REMARK  Name = 
REMARK  7 active torsions:
REMARK  status: ('A' for Active; 'I' for Inactive)
REMARK    1  A    between atoms: C_1  and  C_2
REMARK    2  A    between atoms: C_2  and  C_3
REMARK    3  A    between atoms: C_2  and  C_13
REMARK    4  A    between atoms: C_3  and  C_4
REMARK    5  A    between atoms: C_8  and  C_9
REMARK    6  A    between atoms: C_17  and  N_18
REMARK    7  A    between atoms: C_23  and  C_24
REMARK                            x       y       z     vdW  Elec       q    Type
REMARK                         _______ _______ _______ _____ _____    ______ ____
ROOT
ATOM      1  C   UNL     1       1.189   8.742  19.908  0.00  0.00    +0.000 A 
ATOM      2  C   UNL     1       1.341   8.399  21.261  0.00  0.00    +0.000 A 
ATOM      3  C   UNL     1       0.660   9.088  22.257  0.00  0.00    +0.000 A 
ATOM      4  C   UNL     1      -0.098  10.200  21.930  0.00  0.00    +0.000 A 
ATOM      5  C   UNL     1      -0.000  10.737  20.637  0.00  0.00    +0.000 A 
ATOM      6  C   UNL     1       0.506   9.932  19.607  0.00  0.00    +0.000 A 
ENDROOT
BRANCH   5   7
ATOM      7  N   UNL     1       0.088  12.190  20.482  0.00  0.00    +0.000 N 
ATOM      8  C   UNL     1      -0.056  12.841  21.810  0.00  0.00    +0.000 C 
ATOM      9  C   UNL     1      -1.543  12.998  21.903  0.00  0.00    +0.000 A 
ATOM     10  C   UNL     1      -2.389  12.722  22.965  0.00  0.00    +0.000 A 
ATOM     11  C   UNL     1      -3.751  12.559  22.686  0.00  0.00    +0.000 A 
ATOM     12  C   UNL     1      -4.242  12.699  21.369  0.00  0.00    +0.000 A 
ATOM     13  C   UNL     1      -3.390  13.014  20.307  0.00  0.00    +0.000 A 
ATOM     14  C   UNL     1      -2.044  13.126  20.604  0.00  0.00    +0.000 A 
ATOM     15  C   UNL     1      -0.936  12.775  19.672  0.00  0.00    +0.000 C 
ATOM     16  O   UNL     1      -1.036  12.782  18.465  0.00  0.00    +0.000 OA
BRANCH  12  17
ATOM     17  C   UNL     1      -5.652  12.367  21.073  0.00  0.00    +0.000 C 
ATOM     18  O   UNL     1      -6.413  11.944  21.933  0.00  0.00    +0.000 OA
ENDBRANCH  12  17
ENDBRANCH   5   7
BRANCH   1  20
ATOM     19  C   UNL     1       2.399   8.753  17.659  0.00  0.00    +0.000 C 
ATOM     20  C   UNL     1       1.786   7.898  18.781  0.00  0.00    +0.000 C 
BRANCH  20  21
ATOM     21  C   UNL     1       2.825   6.916  19.375  0.00  0.00    +0.000 C 
BRANCH  21  22
ATOM     22  C   UNL     1       2.771   5.538  18.787  0.00  0.00    +0.000 A 
ATOM     23  N   UNL     1       3.370   5.314  17.608  0.00  0.00    +0.000 NA
ATOM     24  N   UNL     1       3.135   4.023  17.353  0.00  0.00    +0.000 N 
ATOM     25  C   UNL     1       2.421   3.403  18.333  0.00  0.00    +0.000 A 
ATOM     26  C   UNL     1       2.162   4.360  19.303  0.00  0.00    +0.000 A 
ATOM     27  H   UNL     1       3.497   3.631  16.489  0.00  0.00    +0.000 HD
BRANCH  26  28
ATOM     28  C   UNL     1       1.423   4.177  20.575  0.00  0.00    +0.000 C 
ATOM     29  F   UNL     1       0.893   2.929  20.711  0.00  0.00    +0.000 F 
ATOM     30  F   UNL     1       2.224   4.374  21.651  0.00  0.00    +0.000 F 
ATOM     31  F   UNL     1       0.392   5.048  20.683  0.00  0.00    +0.000 F 
ENDBRANCH  26  28
ENDBRANCH  21  22
ENDBRANCH  20  21
ENDBRANCH   1  20
TORSDOF 6
ENDMDL
MODEL 8
REMARK VINA RESULT:      -7.7      4.931      9.188
REMARK  Name = 
REMARK  7 active torsions:
REMARK  status: ('A' for Active; 'I' for Inactive)
REMARK    1  A    between atoms: C_1  and  C_2
REMARK    2  A    between atoms: C_2  and  C_3
REMARK    3  A    between atoms: C_2  and  C_13
REMARK    4  A    between atoms: C_3  and  C_4
REMARK    5  A    between atoms: C_8  and  C_9
REMARK    6  A    between atoms: C_17  and  N_18
REMARK    7  A    between atoms: C_23  and  C_24
REMARK                            x       y       z     vdW  Elec       q    Type
REMARK                         _______ _______ _______ _____ _____    ______ ____
ROOT
ATOM      1  C   UNL     1       1.638   8.260  19.393  0.00  0.00    +0.000 A 
ATOM      2  C   UNL     1       1.607   7.954  20.763  0.00  0.00    +0.000 A 
ATOM      3  C   UNL     1       0.869   8.724  21.653  0.00  0.00    +0.000 A 
ATOM      4  C   UNL     1       0.239   9.875  21.211  0.00  0.00    +0.000 A 
ATOM      5  C   UNL     1       0.525  10.359  19.924  0.00  0.00    +0.000 A 
ATOM      6  C   UNL     1       1.085   9.484  18.983  0.00  0.00    +0.000 A 
ENDROOT
BRANCH   5   7
ATOM      7  N   UNL     1       0.738  11.795  19.743  0.00  0.00    +0.000 N 
ATOM      8  C   UNL     1       0.958  12.436  21.066  0.00  0.00    +0.000 C 
ATOM      9  C   UNL     1      -0.448  12.755  21.476  0.00  0.00    +0.000 A 
ATOM     10  C   UNL     1      -1.070  12.556  22.698  0.00  0.00    +0.000 A 
ATOM     11  C   UNL     1      -2.470  12.548  22.721  0.00  0.00    +0.000 A 
ATOM     12  C   UNL     1      -3.215  12.764  21.540  0.00  0.00    +0.000 A 
ATOM     13  C   UNL     1      -2.582  13.000  20.317  0.00  0.00    +0.000 A 
ATOM     14  C   UNL     1      -1.200  12.958  20.315  0.00  0.00    +0.000 A 
ATOM     15  C   UNL     1      -0.364  12.503  19.169  0.00  0.00    +0.000 C 
ATOM     16  O   UNL     1      -0.721  12.541  18.012  0.00  0.00    +0.000 OA
BRANCH  12  17
ATOM     17  C   UNL     1      -4.683  12.594  21.559  0.00  0.00    +0.000 C 
ATOM     18  O   UNL     1      -5.290  12.305  22.581  0.00  0.00    +0.000 OA
ENDBRANCH  12  17
ENDBRANCH   5   7
BRANCH   1  20
ATOM     19  C   UNL     1       3.179   8.098  17.362  0.00  0.00    +0.000 C 
ATOM     20  C   UNL     1       2.296   7.337  18.367  0.00  0.00    +0.000 C 
BRANCH  20  21
ATOM     21  C   UNL     1       3.100   6.241  19.108  0.00  0.00    +0.000 C 
BRANCH  21  22
ATOM     22  C   UNL     1       2.786   4.844  18.662  0.00  0.00    +0.000 A 
ATOM     23  N   UNL     1       3.243   4.427  17.473  0.00  0.00    +0.000 NA
ATOM     24  N   UNL     1       2.792   3.173  17.362  0.00  0.00    +0.000 N 
ATOM     25  C   UNL     1       2.076   2.763  18.445  0.00  0.00    +0.000 A 
ATOM     26  C   UNL     1       2.048   3.829  19.331  0.00  0.00    +0.000 A 
ATOM     27  H   UNL     1       3.017   2.656  16.517  0.00  0.00    +0.000 HD
BRANCH  26  28
ATOM     28  C   UNL     1       1.398   3.877  20.663  0.00  0.00    +0.000 C 
ATOM     29  F   UNL     1       2.280   4.085  21.681  0.00  0.00    +0.000 F 
ATOM     30  F   UNL     1       0.484   4.875  20.737  0.00  0.00    +0.000 F 
ATOM     31  F   UNL     1       0.748   2.723  20.943  0.00  0.00    +0.000 F 
ENDBRANCH  26  28
ENDBRANCH  21  22
ENDBRANCH  20  21
ENDBRANCH   1  20
TORSDOF 6
ENDMDL
MODEL 9
REMARK VINA RESULT:      -7.7      5.462      7.438
REMARK  Name = 
REMARK  7 active torsions:
REMARK  status: ('A' for Active; 'I' for Inactive)
REMARK    1  A    between atoms: C_1  and  C_2
REMARK    2  A    between atoms: C_2  and  C_3
REMARK    3  A    between atoms: C_2  and  C_13
REMARK    4  A    between atoms: C_3  and  C_4
REMARK    5  A    between atoms: C_8  and  C_9
REMARK    6  A    between atoms: C_17  and  N_18
REMARK    7  A    between atoms: C_23  and  C_24
REMARK                            x       y       z     vdW  Elec       q    Type
REMARK                         _______ _______ _______ _____ _____    ______ ____
ROOT
ATOM      1  C   UNL     1       8.095   7.891  18.008  0.00  0.00    +0.000 A 
ATOM      2  C   UNL     1       8.111   7.012  19.103  0.00  0.00    +0.000 A 
ATOM      3  C   UNL     1       7.786   5.670  18.950  0.00  0.00    +0.000 A 
ATOM      4  C   UNL     1       7.334   5.205  17.726  0.00  0.00    +0.000 A 
ATOM      5  C   UNL     1       7.013   6.130  16.720  0.00  0.00    +0.000 A 
ATOM      6  C   UNL     1       7.535   7.429  16.805  0.00  0.00    +0.000 A 
ENDROOT
BRANCH   5   7
ATOM      7  N   UNL     1       5.791   5.928  15.941  0.00  0.00    +0.000 N 
ATOM      8  C   UNL     1       4.688   6.733  16.528  0.00  0.00    +0.000 C 
ATOM      9  C   UNL     1       4.133   5.779  17.541  0.00  0.00    +0.000 A 
ATOM     10  C   UNL     1       3.777   6.010  18.860  0.00  0.00    +0.000 A 
ATOM     11  C   UNL     1       3.676   4.902  19.710  0.00  0.00    +0.000 A 
ATOM     12  C   UNL     1       3.902   3.594  19.225  0.00  0.00    +0.000 A 
ATOM     13  C   UNL     1       4.225   3.364  17.885  0.00  0.00    +0.000 A 
ATOM     14  C   UNL     1       4.362   4.480  17.079  0.00  0.00    +0.000 A 
ATOM     15  C   UNL     1       5.298   4.586  15.925  0.00  0.00    +0.000 C 
ATOM     16  O   UNL     1       5.705   3.636  15.292  0.00  0.00    +0.000 OA
BRANCH  12  17
ATOM     17  C   UNL     1       3.946   2.459  20.170  0.00  0.00    +0.000 C 
ATOM     18  O   UNL     1       3.526   2.553  21.316  0.00  0.00    +0.000 OA
ENDBRANCH  12  17
ENDBRANCH   5   7
BRANCH   1  20
ATOM     19  C   UNL     1       7.518  10.373  17.828  0.00  0.00    +0.000 C 
ATOM     20  C   UNL     1       8.611   9.327  18.108  0.00  0.00    +0.000 C 
BRANCH  20  21
ATOM     21  C   UNL     1       9.255   9.541  19.499  0.00  0.00    +0.000 C 
BRANCH  21  22
ATOM     22  C   UNL     1       9.415  10.981  19.885  0.00  0.00    +0.000 A 
ATOM     23  N   UNL     1       8.646  11.477  20.865  0.00  0.00    +0.000 NA
ATOM     24  N   UNL     1       9.009  12.760  20.959  0.00  0.00    +0.000 N 
ATOM     25  C   UNL     1       9.995  13.105  20.085  0.00  0.00    +0.000 A 
ATOM     26  C   UNL     1      10.299  11.964  19.358  0.00  0.00    +0.000 A 
ATOM     27  H   UNL     1       8.540  13.342  21.646  0.00  0.00    +0.000 HD
BRANCH  26  28
ATOM     28  C   UNL     1      11.316  11.821  18.287  0.00  0.00    +0.000 C 
ATOM     29  F   UNL     1      11.880  13.007  17.925  0.00  0.00    +0.000 F 
ATOM     30  F   UNL     1      12.333  11.012  18.670  0.00  0.00    +0.000 F 
ATOM     31  F   UNL     1      10.784  11.285  17.163  0.00  0.00    +0.000 F 
ENDBRANCH  26  28
ENDBRANCH  21  22
ENDBRANCH  20  21
ENDBRANCH   1  20
TORSDOF 6
ENDMDL
