MODEL 1
REMARK VINA RESULT:      -7.8      0.000      0.000
REMARK  Name = 
REMARK  2 active torsions:
REMARK  status: ('A' for Active; 'I' for Inactive)
REMARK    1  A    between atoms: C_2  and  C_3
REMARK    2  A    between atoms: C_24  and  C_25
REMARK                            x       y       z     vdW  Elec       q    Type
REMARK                         _______ _______ _______ _____ _____    ______ ____
ROOT
ATOM      1  O   UNL     1      -0.278  11.206  23.007  0.00  0.00    +0.000 OA
ATOM      2  C   UNL     1      -1.030  11.448  22.059  0.00  0.00    +0.000 C 
ATOM      3  N   UNL     1      -0.729  11.076  20.752  0.00  0.00    +0.000 N 
ATOM      4  C   UNL     1      -1.639  11.138  19.606  0.00  0.00    +0.000 C 
ATOM      5  C   UNL     1      -1.351  12.314  18.650  0.00  0.00    +0.000 C 
ATOM      6  C   UNL     1      -0.120  13.117  19.017  0.00  0.00    +0.000 A 
ATOM      7  C   UNL     1      -0.085  14.493  18.745  0.00  0.00    +0.000 A 
ATOM      8  C   UNL     1       0.942  15.285  19.258  0.00  0.00    +0.000 A 
ATOM      9  C   UNL     1       1.992  14.699  19.961  0.00  0.00    +0.000 A 
ATOM     10  C   UNL     1       1.995  13.324  20.199  0.00  0.00    +0.000 A 
ATOM     11  C   UNL     1       0.913  12.531  19.782  0.00  0.00    +0.000 A 
ATOM     12  C   UNL     1       0.694  11.146  20.403  0.00  0.00    +0.000 C 
ENDROOT
BRANCH   2  13
ATOM     13  C   UNL     1      -2.174  12.325  22.372  0.00  0.00    +0.000 A 
ATOM     14  C   UNL     1      -3.005  11.999  23.445  0.00  0.00    +0.000 A 
ATOM     15  N   UNL     1      -3.768  12.896  24.116  0.00  0.00    +0.000 NA
ATOM     16  C   UNL     1      -3.612  14.190  23.771  0.00  0.00    +0.000 A 
ATOM     17  N   UNL     1      -4.106  15.149  24.642  0.00  0.00    +0.000 N 
ATOM     18  C   UNL     1      -3.764  16.463  24.574  0.00  0.00    +0.000 A 
ATOM     19  O   UNL     1      -4.069  17.258  25.450  0.00  0.00    +0.000 OA
ATOM     20  N   UNL     1      -3.022  16.841  23.491  0.00  0.00    +0.000 N 
ATOM     21  C   UNL     1      -2.621  16.029  22.472  0.00  0.00    +0.000 A 
ATOM     22  O   UNL     1      -2.061  16.447  21.459  0.00  0.00    +0.000 OA
ATOM     23  C   UNL     1      -2.858  14.595  22.681  0.00  0.00    +0.000 A 
ATOM     24  C   UNL     1      -2.161  13.651  21.954  0.00  0.00    +0.000 A 
ATOM     25  H   UNL     1      -4.591  14.820  25.469  0.00  0.00    +0.000 HD
ATOM     26  H   UNL     1      -2.768  17.823  23.432  0.00  0.00    +0.000 HD
ENDBRANCH   2  13
BRANCH  12  27
ATOM     27  C   UNL     1       1.190   9.916  19.664  0.00  0.00    +0.000 A 
ATOM     28  C   UNL     1       1.361   8.730  20.407  0.00  0.00    +0.000 A 
ATOM     29  C   UNL     1       1.961   7.607  19.842  0.00  0.00    +0.000 A 
ATOM     30  C   UNL     1       2.368   7.641  18.511  0.00  0.00    +0.000 A 
ATOM     31  C   UNL     1       2.109   8.769  17.734  0.00  0.00    +0.000 A 
ATOM     32  C   UNL     1       1.514   9.899  18.302  0.00  0.00    +0.000 A 
ENDBRANCH  12  27
TORSDOF 2
ENDMDL
MODEL 2
REMARK VINA RESULT:      -7.6      6.975     12.088
REMARK  Name = 
REMARK  2 active torsions:
REMARK  status: ('A' for Active; 'I' for Inactive)
REMARK    1  A    between atoms: C_2  and  C_3
REMARK    2  A    between atoms: C_24  and  C_25
REMARK                            x       y       z     vdW  Elec       q    Type
REMARK                         _______ _______ _______ _____ _____    ______ ____
ROOT
ATOM      1  O   UNL     1       5.483   5.980  19.766  0.00  0.00    +0.000 OA
ATOM      2  C   UNL     1       4.771   5.705  18.796  0.00  0.00    +0.000 C 
ATOM      3  N   UNL     1       3.448   6.128  18.695  0.00  0.00    +0.000 N 
ATOM      4  C   UNL     1       2.598   6.027  17.508  0.00  0.00    +0.000 C 
ATOM      5  C   UNL     1       1.551   4.897  17.591  0.00  0.00    +0.000 C 
ATOM      6  C   UNL     1       1.528   4.178  18.924  0.00  0.00    +0.000 A 
ATOM      7  C   UNL     1       1.198   2.815  18.970  0.00  0.00    +0.000 A 
ATOM      8  C   UNL     1       1.372   2.089  20.147  0.00  0.00    +0.000 A 
ATOM      9  C   UNL     1       1.782   2.733  21.312  0.00  0.00    +0.000 A 
ATOM     10  C   UNL     1       2.067   4.099  21.294  0.00  0.00    +0.000 A 
ATOM     11  C   UNL     1       2.001   4.820  20.091  0.00  0.00    +0.000 A 
ATOM     12  C   UNL     1       2.717   6.171  19.966  0.00  0.00    +0.000 C 
ENDROOT
BRANCH   2  13
ATOM     13  C   UNL     1       5.351   4.740  17.843  0.00  0.00    +0.000 A 
ATOM     14  C   UNL     1       4.626   3.594  17.512  0.00  0.00    +0.000 A 
ATOM     15  N   UNL     1       4.796   2.891  16.366  0.00  0.00    +0.000 NA
ATOM     16  C   UNL     1       5.648   3.416  15.464  0.00  0.00    +0.000 A 
ATOM     17  N   UNL     1       5.594   2.923  14.169  0.00  0.00    +0.000 N 
ATOM     18  C   UNL     1       6.169   3.549  13.108  0.00  0.00    +0.000 A 
ATOM     19  O   UNL     1       5.965   3.195  11.958  0.00  0.00    +0.000 OA
ATOM     20  N   UNL     1       6.959   4.627  13.396  0.00  0.00    +0.000 N 
ATOM     21  C   UNL     1       7.236   5.107  14.642  0.00  0.00    +0.000 A 
ATOM     22  O   UNL     1       8.052   6.002  14.852  0.00  0.00    +0.000 OA
ATOM     23  C   UNL     1       6.452   4.512  15.733  0.00  0.00    +0.000 A 
ATOM     24  C   UNL     1       6.327   5.159  16.946  0.00  0.00    +0.000 A 
ATOM     25  H   UNL     1       4.943   2.168  13.987  0.00  0.00    +0.000 HD
ATOM     26  H   UNL     1       7.396   5.096  12.609  0.00  0.00    +0.000 HD
ENDBRANCH   2  13
BRANCH  12  27
ATOM     27  C   UNL     1       1.922   7.450  20.155  0.00  0.00    +0.000 A 
ATOM     28  C   UNL     1       1.132   7.564  21.318  0.00  0.00    +0.000 A 
ATOM     29  C   UNL     1       0.252   8.631  21.488  0.00  0.00    +0.000 A 
ATOM     30  C   UNL     1       0.175   9.621  20.514  0.00  0.00    +0.000 A 
ATOM     31  C   UNL     1       1.026   9.578  19.411  0.00  0.00    +0.000 A 
ATOM     32  C   UNL     1       1.904   8.505  19.235  0.00  0.00    +0.000 A 
ENDBRANCH  12  27
TORSDOF 2
ENDMDL
MODEL 3
REMARK VINA RESULT:      -7.2      2.251      2.714
REMARK  Name = 
REMARK  2 active torsions:
REMARK  status: ('A' for Active; 'I' for Inactive)
REMARK    1  A    between atoms: C_2  and  C_3
REMARK    2  A    between atoms: C_24  and  C_25
REMARK                            x       y       z     vdW  Elec       q    Type
REMARK                         _______ _______ _______ _____ _____    ______ ____
ROOT
ATOM      1  O   UNL     1      -0.495  11.585  22.985  0.00  0.00    +0.000 OA
ATOM      2  C   UNL     1      -1.134  11.850  21.963  0.00  0.00    +0.000 C 
ATOM      3  N   UNL     1      -0.765  11.379  20.706  0.00  0.00    +0.000 N 
ATOM      4  C   UNL     1      -1.563  11.470  19.482  0.00  0.00    +0.000 C 
ATOM      5  C   UNL     1      -1.073  12.557  18.503  0.00  0.00    +0.000 C 
ATOM      6  C   UNL     1       0.202  13.249  18.942  0.00  0.00    +0.000 A 
ATOM      7  C   UNL     1       0.407  14.597  18.612  0.00  0.00    +0.000 A 
ATOM      8  C   UNL     1       1.465  15.307  19.178  0.00  0.00    +0.000 A 
ATOM      9  C   UNL     1       2.383  14.656  19.998  0.00  0.00    +0.000 A 
ATOM     10  C   UNL     1       2.220  13.303  20.298  0.00  0.00    +0.000 A 
ATOM     11  C   UNL     1       1.099  12.603  19.822  0.00  0.00    +0.000 A 
ATOM     12  C   UNL     1       0.681  11.283  20.484  0.00  0.00    +0.000 C 
ENDROOT
BRANCH   2  13
ATOM     13  C   UNL     1      -2.200  12.855  22.132  0.00  0.00    +0.000 A 
ATOM     14  C   UNL     1      -1.933  14.188  21.818  0.00  0.00    +0.000 A 
ATOM     15  N   UNL     1      -2.881  15.098  21.486  0.00  0.00    +0.000 NA
ATOM     16  C   UNL     1      -4.138  14.629  21.355  0.00  0.00    +0.000 A 
ATOM     17  N   UNL     1      -5.057  15.434  20.699  0.00  0.00    +0.000 N 
ATOM     18  C   UNL     1      -6.253  14.978  20.239  0.00  0.00    +0.000 A 
ATOM     19  O   UNL     1      -6.969  15.653  19.516  0.00  0.00    +0.000 OA
ATOM     20  N   UNL     1      -6.594  13.704  20.597  0.00  0.00    +0.000 N 
ATOM     21  C   UNL     1      -5.858  12.870  21.386  0.00  0.00    +0.000 A 
ATOM     22  O   UNL     1      -6.270  11.779  21.779  0.00  0.00    +0.000 OA
ATOM     23  C   UNL     1      -4.503  13.339  21.704  0.00  0.00    +0.000 A 
ATOM     24  C   UNL     1      -3.532  12.454  22.130  0.00  0.00    +0.000 A 
ATOM     25  H   UNL     1      -4.739  16.345  20.391  0.00  0.00    +0.000 HD
ATOM     26  H   UNL     1      -7.488  13.360  20.262  0.00  0.00    +0.000 HD
ENDBRANCH   2  13
BRANCH  12  27
ATOM     27  C   UNL     1       1.103   9.971  19.848  0.00  0.00    +0.000 A 
ATOM     28  C   UNL     1       1.198   8.840  20.684  0.00  0.00    +0.000 A 
ATOM     29  C   UNL     1       1.731   7.641  20.215  0.00  0.00    +0.000 A 
ATOM     30  C   UNL     1       2.145   7.544  18.890  0.00  0.00    +0.000 A 
ATOM     31  C   UNL     1       1.959   8.620  18.024  0.00  0.00    +0.000 A 
ATOM     32  C   UNL     1       1.432   9.826  18.496  0.00  0.00    +0.000 A 
ENDBRANCH  12  27
TORSDOF 2
ENDMDL
MODEL 4
REMARK VINA RESULT:      -7.0      2.466      4.475
REMARK  Name = 
REMARK  2 active torsions:
REMARK  status: ('A' for Active; 'I' for Inactive)
REMARK    1  A    between atoms: C_2  and  C_3
REMARK    2  A    between atoms: C_24  and  C_25
REMARK                            x       y       z     vdW  Elec       q    Type
REMARK                         _______ _______ _______ _____ _____    ______ ____
ROOT
ATOM      1  O   UNL     1      -1.871  15.288  20.785  0.00  0.00    +0.000 OA
ATOM      2  C   UNL     1      -1.393  14.282  21.318  0.00  0.00    +0.000 C 
ATOM      3  N   UNL     1      -0.172  13.739  20.929  0.00  0.00    +0.000 N 
ATOM      4  C   UNL     1       0.565  12.683  21.627  0.00  0.00    +0.000 C 
ATOM      5  C   UNL     1       0.469  11.304  20.942  0.00  0.00    +0.000 C 
ATOM      6  C   UNL     1      -0.277  11.324  19.623  0.00  0.00    +0.000 A 
ATOM      7  C   UNL     1      -1.021  10.201  19.231  0.00  0.00    +0.000 A 
ATOM      8  C   UNL     1      -1.877  10.273  18.132  0.00  0.00    +0.000 A 
ATOM      9  C   UNL     1      -1.924  11.430  17.358  0.00  0.00    +0.000 A 
ATOM     10  C   UNL     1      -1.153  12.540  17.708  0.00  0.00    +0.000 A 
ATOM     11  C   UNL     1      -0.370  12.518  18.873  0.00  0.00    +0.000 A 
ATOM     12  C   UNL     1       0.116  13.834  19.494  0.00  0.00    +0.000 C 
ENDROOT
BRANCH   2  13
ATOM     13  C   UNL     1      -2.287  13.584  22.260  0.00  0.00    +0.000 A 
ATOM     14  C   UNL     1      -2.325  13.997  23.593  0.00  0.00    +0.000 A 
ATOM     15  N   UNL     1      -3.374  13.787  24.425  0.00  0.00    +0.000 NA
ATOM     16  C   UNL     1      -4.474  13.237  23.874  0.00  0.00    +0.000 A 
ATOM     17  N   UNL     1      -5.658  13.318  24.589  0.00  0.00    +0.000 N 
ATOM     18  C   UNL     1      -6.879  13.080  24.040  0.00  0.00    +0.000 A 
ATOM     19  O   UNL     1      -7.917  13.323  24.636  0.00  0.00    +0.000 OA
ATOM     20  N   UNL     1      -6.884  12.591  22.764  0.00  0.00    +0.000 N 
ATOM     21  C   UNL     1      -5.784  12.301  22.013  0.00  0.00    +0.000 A 
ATOM     22  O   UNL     1      -5.845  11.746  20.916  0.00  0.00    +0.000 OA
ATOM     23  C   UNL     1      -4.503  12.743  22.579  0.00  0.00    +0.000 A 
ATOM     24  C   UNL     1      -3.388  12.886  21.777  0.00  0.00    +0.000 A 
ATOM     25  H   UNL     1      -5.619  13.751  25.505  0.00  0.00    +0.000 HD
ATOM     26  H   UNL     1      -7.793  12.406  22.350  0.00  0.00    +0.000 HD
ENDBRANCH   2  13
BRANCH  12  27
ATOM     27  C   UNL     1       1.524  14.316  19.197  0.00  0.00    +0.000 A 
ATOM     28  C   UNL     1       1.927  15.547  19.756  0.00  0.00    +0.000 A 
ATOM     29  C   UNL     1       3.139  16.135  19.403  0.00  0.00    +0.000 A 
ATOM     30  C   UNL     1       3.987  15.484  18.512  0.00  0.00    +0.000 A 
ATOM     31  C   UNL     1       3.651  14.218  18.034  0.00  0.00    +0.000 A 
ATOM     32  C   UNL     1       2.431  13.630  18.381  0.00  0.00    +0.000 A 
ENDBRANCH  12  27
TORSDOF 2
ENDMDL
MODEL 5
REMARK VINA RESULT:      -7.0      3.559      7.728
REMARK  Name = 
REMARK  2 active torsions:
REMARK  status: ('A' for Active; 'I' for Inactive)
REMARK    1  A    between atoms: C_2  and  C_3
REMARK    2  A    between atoms: C_24  and  C_25
REMARK                            x       y       z     vdW  Elec       q    Type
REMARK                         _______ _______ _______ _____ _____    ______ ____
ROOT
ATOM      1  O   UNL     1       2.526  12.752  19.485  0.00  0.00    +0.000 OA
ATOM      2  C   UNL     1       1.447  12.425  18.983  0.00  0.00    +0.000 C 
ATOM      3  N   UNL     1       0.396  13.323  18.819  0.00  0.00    +0.000 N 
ATOM      4  C   UNL     1      -0.832  13.084  18.058  0.00  0.00    +0.000 C 
ATOM      5  C   UNL     1      -2.064  12.805  18.944  0.00  0.00    +0.000 C 
ATOM      6  C   UNL     1      -1.795  12.937  20.429  0.00  0.00    +0.000 A 
ATOM      7  C   UNL     1      -2.493  12.124  21.334  0.00  0.00    +0.000 A 
ATOM      8  C   UNL     1      -2.117  12.081  22.676  0.00  0.00    +0.000 A 
ATOM      9  C   UNL     1      -1.108  12.918  23.146  0.00  0.00    +0.000 A 
ATOM     10  C   UNL     1      -0.436  13.769  22.266  0.00  0.00    +0.000 A 
ATOM     11  C   UNL     1      -0.731  13.743  20.894  0.00  0.00    +0.000 A 
ATOM     12  C   UNL     1       0.267  14.323  19.884  0.00  0.00    +0.000 C 
ENDROOT
BRANCH   2  13
ATOM     13  C   UNL     1       1.276  10.980  18.746  0.00  0.00    +0.000 A 
ATOM     14  C   UNL     1       1.933  10.386  17.667  0.00  0.00    +0.000 A 
ATOM     15  N   UNL     1       2.242   9.068  17.595  0.00  0.00    +0.000 NA
ATOM     16  C   UNL     1       1.981   8.333  18.693  0.00  0.00    +0.000 A 
ATOM     17  N   UNL     1       2.579   7.086  18.787  0.00  0.00    +0.000 N 
ATOM     18  C   UNL     1       2.647   6.376  19.945  0.00  0.00    +0.000 A 
ATOM     19  O   UNL     1       3.325   5.366  20.048  0.00  0.00    +0.000 OA
ATOM     20  N   UNL     1       1.944   6.877  21.005  0.00  0.00    +0.000 N 
ATOM     21  C   UNL     1       1.172   8.001  20.994  0.00  0.00    +0.000 A 
ATOM     22  O   UNL     1       0.462   8.339  21.940  0.00  0.00    +0.000 OA
ATOM     23  C   UNL     1       1.277   8.824  19.782  0.00  0.00    +0.000 A 
ATOM     24  C   UNL     1       0.891  10.150  19.793  0.00  0.00    +0.000 A 
ATOM     25  H   UNL     1       3.148   6.784  18.004  0.00  0.00    +0.000 HD
ATOM     26  H   UNL     1       1.986   6.349  21.871  0.00  0.00    +0.000 HD
ENDBRANCH   2  13
BRANCH  12  27
ATOM     27  C   UNL     1       0.056  15.732  19.359  0.00  0.00    +0.000 A 
ATOM     28  C   UNL     1      -1.147  16.383  19.698  0.00  0.00    +0.000 A 
ATOM     29  C   UNL     1      -1.488  17.608  19.128  0.00  0.00    +0.000 A 
ATOM     30  C   UNL     1      -0.612  18.219  18.236  0.00  0.00    +0.000 A 
ATOM     31  C   UNL     1       0.629  17.639  17.974  0.00  0.00    +0.000 A 
ATOM     32  C   UNL     1       0.968  16.407  18.539  0.00  0.00    +0.000 A 
ENDBRANCH  12  27
TORSDOF 2
ENDMDL
MODEL 6
REMARK VINA RESULT:      -6.9      3.291      7.183
REMARK  Name = 
REMARK  2 active torsions:
REMARK  status: ('A' for Active; 'I' for Inactive)
REMARK    1  A    between atoms: C_2  and  C_3
REMARK    2  A    between atoms: C_24  and  C_25
REMARK                            x       y       z     vdW  Elec       q    Type
REMARK                         _______ _______ _______ _____ _____    ______ ____
ROOT
ATOM      1  O   UNL     1      -3.581  14.918  20.169  0.00  0.00    +0.000 OA
ATOM      2  C   UNL     1      -3.521  13.819  20.727  0.00  0.00    +0.000 C 
ATOM      3  N   UNL     1      -2.981  13.656  22.000  0.00  0.00    +0.000 N 
ATOM      4  C   UNL     1      -3.049  12.442  22.817  0.00  0.00    +0.000 C 
ATOM      5  C   UNL     1      -1.726  11.650  22.860  0.00  0.00    +0.000 C 
ATOM      6  C   UNL     1      -0.579  12.330  22.140  0.00  0.00    +0.000 A 
ATOM      7  C   UNL     1       0.402  11.550  21.509  0.00  0.00    +0.000 A 
ATOM      8  C   UNL     1       1.344  12.147  20.672  0.00  0.00    +0.000 A 
ATOM      9  C   UNL     1       1.377  13.533  20.533  0.00  0.00    +0.000 A 
ATOM     10  C   UNL     1       0.436  14.326  21.192  0.00  0.00    +0.000 A 
ATOM     11  C   UNL     1      -0.583  13.731  21.952  0.00  0.00    +0.000 A 
ATOM     12  C   UNL     1      -1.844  14.531  22.304  0.00  0.00    +0.000 C 
ENDROOT
BRANCH   2  13
ATOM     13  C   UNL     1      -3.880  12.665  19.883  0.00  0.00    +0.000 A 
ATOM     14  C   UNL     1      -5.138  12.629  19.281  0.00  0.00    +0.000 A 
ATOM     15  N   UNL     1      -5.429  11.916  18.166  0.00  0.00    +0.000 NA
ATOM     16  C   UNL     1      -4.392  11.300  17.564  0.00  0.00    +0.000 A 
ATOM     17  N   UNL     1      -4.578  10.855  16.264  0.00  0.00    +0.000 N 
ATOM     18  C   UNL     1      -3.554  10.493  15.446  0.00  0.00    +0.000 A 
ATOM     19  O   UNL     1      -3.722  10.272  14.257  0.00  0.00    +0.000 OA
ATOM     20  N   UNL     1      -2.315  10.431  16.019  0.00  0.00    +0.000 N 
ATOM     21  C   UNL     1      -2.024  10.673  17.329  0.00  0.00    +0.000 A 
ATOM     22  O   UNL     1      -0.912  10.481  17.818  0.00  0.00    +0.000 OA
ATOM     23  C   UNL     1      -3.126  11.232  18.123  0.00  0.00    +0.000 A 
ATOM     24  C   UNL     1      -2.876  11.890  19.311  0.00  0.00    +0.000 A 
ATOM     25  H   UNL     1      -5.497  10.984  15.856  0.00  0.00    +0.000 HD
ATOM     26  H   UNL     1      -1.546  10.156  15.414  0.00  0.00    +0.000 HD
ENDBRANCH   2  13
BRANCH  12  27
ATOM     27  C   UNL     1      -1.945  15.190  23.668  0.00  0.00    +0.000 A 
ATOM     28  C   UNL     1      -3.013  16.084  23.885  0.00  0.00    +0.000 A 
ATOM     29  C   UNL     1      -3.086  16.850  25.047  0.00  0.00    +0.000 A 
ATOM     30  C   UNL     1      -2.109  16.707  26.028  0.00  0.00    +0.000 A 
ATOM     31  C   UNL     1      -1.106  15.750  25.874  0.00  0.00    +0.000 A 
ATOM     32  C   UNL     1      -1.028  14.987  24.706  0.00  0.00    +0.000 A 
ENDBRANCH  12  27
TORSDOF 2
ENDMDL
MODEL 7
REMARK VINA RESULT:      -6.8      2.145      2.745
REMARK  Name = 
REMARK  2 active torsions:
REMARK  status: ('A' for Active; 'I' for Inactive)
REMARK    1  A    between atoms: C_2  and  C_3
REMARK    2  A    between atoms: C_24  and  C_25
REMARK                            x       y       z     vdW  Elec       q    Type
REMARK                         _______ _______ _______ _____ _____    ______ ____
ROOT
ATOM      1  O   UNL     1      -0.103  11.295  22.880  0.00  0.00    +0.000 OA
ATOM      2  C   UNL     1      -0.849  11.374  21.900  0.00  0.00    +0.000 C 
ATOM      3  N   UNL     1      -0.502  10.861  20.653  0.00  0.00    +0.000 N 
ATOM      4  C   UNL     1      -1.392  10.728  19.498  0.00  0.00    +0.000 C 
ATOM      5  C   UNL     1      -1.152  11.791  18.406  0.00  0.00    +0.000 C 
ATOM      6  C   UNL     1       0.025  12.703  18.685  0.00  0.00    +0.000 A 
ATOM      7  C   UNL     1      -0.010  14.034  18.243  0.00  0.00    +0.000 A 
ATOM      8  C   UNL     1       0.961  14.941  18.665  0.00  0.00    +0.000 A 
ATOM      9  C   UNL     1       2.028  14.508  19.449  0.00  0.00    +0.000 A 
ATOM     10  C   UNL     1       2.103  13.175  19.857  0.00  0.00    +0.000 A 
ATOM     11  C   UNL     1       1.075  12.276  19.529  0.00  0.00    +0.000 A 
ATOM     12  C   UNL     1       0.921  10.968  20.316  0.00  0.00    +0.000 C 
ENDROOT
BRANCH   2  13
ATOM     13  C   UNL     1      -2.045  12.216  22.087  0.00  0.00    +0.000 A 
ATOM     14  C   UNL     1      -2.912  12.412  21.011  0.00  0.00    +0.000 A 
ATOM     15  N   UNL     1      -4.219  12.746  21.137  0.00  0.00    +0.000 NA
ATOM     16  C   UNL     1      -4.709  12.778  22.392  0.00  0.00    +0.000 A 
ATOM     17  N   UNL     1      -6.087  12.778  22.542  0.00  0.00    +0.000 N 
ATOM     18  C   UNL     1      -6.709  12.512  23.722  0.00  0.00    +0.000 A 
ATOM     19  O   UNL     1      -7.916  12.346  23.796  0.00  0.00    +0.000 OA
ATOM     20  N   UNL     1      -5.902  12.398  24.819  0.00  0.00    +0.000 N 
ATOM     21  C   UNL     1      -4.547  12.551  24.837  0.00  0.00    +0.000 A 
ATOM     22  O   UNL     1      -3.885  12.561  25.873  0.00  0.00    +0.000 OA
ATOM     23  C   UNL     1      -3.910  12.656  23.518  0.00  0.00    +0.000 A 
ATOM     24  C   UNL     1      -2.560  12.408  23.364  0.00  0.00    +0.000 A 
ATOM     25  H   UNL     1      -6.646  12.794  21.697  0.00  0.00    +0.000 HD
ATOM     26  H   UNL     1      -6.360  12.205  25.705  0.00  0.00    +0.000 HD
ENDBRANCH   2  13
BRANCH  12  27
ATOM     27  C   UNL     1       1.498   9.687  19.742  0.00  0.00    +0.000 A 
ATOM     28  C   UNL     1       1.974   9.720  18.415  0.00  0.00    +0.000 A 
ATOM     29  C   UNL     1       2.368   8.554  17.763  0.00  0.00    +0.000 A 
ATOM     30  C   UNL     1       2.327   7.339  18.440  0.00  0.00    +0.000 A 
ATOM     31  C   UNL     1       1.960   7.306  19.785  0.00  0.00    +0.000 A 
ATOM     32  C   UNL     1       1.557   8.474  20.438  0.00  0.00    +0.000 A 
ENDBRANCH  12  27
TORSDOF 2
ENDMDL
MODEL 8
REMARK VINA RESULT:      -6.7      3.200      7.686
REMARK  Name = 
REMARK  2 active torsions:
REMARK  status: ('A' for Active; 'I' for Inactive)
REMARK    1  A    between atoms: C_2  and  C_3
REMARK    2  A    between atoms: C_24  and  C_25
REMARK                            x       y       z     vdW  Elec       q    Type
REMARK                         _______ _______ _______ _____ _____    ______ ____
ROOT
ATOM      1  O   UNL     1      -1.481  10.568  18.611  0.00  0.00    +0.000 OA
ATOM      2  C   UNL     1      -1.072  10.716  19.766  0.00  0.00    +0.000 C 
ATOM      3  N   UNL     1      -1.610  11.661  20.635  0.00  0.00    +0.000 N 
ATOM      4  C   UNL     1      -1.334  11.772  22.068  0.00  0.00    +0.000 C 
ATOM      5  C   UNL     1      -0.384  12.933  22.428  0.00  0.00    +0.000 C 
ATOM      6  C   UNL     1      -0.004  13.804  21.247  0.00  0.00    +0.000 A 
ATOM      7  C   UNL     1       1.263  14.405  21.210  0.00  0.00    +0.000 A 
ATOM      8  C   UNL     1       1.709  15.034  20.048  0.00  0.00    +0.000 A 
ATOM      9  C   UNL     1       0.862  15.154  18.949  0.00  0.00    +0.000 A 
ATOM     10  C   UNL     1      -0.419  14.602  18.988  0.00  0.00    +0.000 A 
ATOM     11  C   UNL     1      -0.842  13.872  20.111  0.00  0.00    +0.000 A 
ATOM     12  C   UNL     1      -2.033  12.913  19.998  0.00  0.00    +0.000 C 
ENDROOT
BRANCH   2  13
ATOM     13  C   UNL     1       0.150   9.961  20.102  0.00  0.00    +0.000 A 
ATOM     14  C   UNL     1       0.172   9.189  21.265  0.00  0.00    +0.000 A 
ATOM     15  N   UNL     1       0.993   8.129  21.459  0.00  0.00    +0.000 NA
ATOM     16  C   UNL     1       1.747   7.756  20.406  0.00  0.00    +0.000 A 
ATOM     17  N   UNL     1       2.332   6.500  20.449  0.00  0.00    +0.000 N 
ATOM     18  C   UNL     1       2.858   5.885  19.357  0.00  0.00    +0.000 A 
ATOM     19  O   UNL     1       3.210   4.716  19.378  0.00  0.00    +0.000 OA
ATOM     20  N   UNL     1       2.935   6.635  18.217  0.00  0.00    +0.000 N 
ATOM     21  C   UNL     1       2.557   7.938  18.090  0.00  0.00    +0.000 A 
ATOM     22  O   UNL     1       2.763   8.602  17.075  0.00  0.00    +0.000 OA
ATOM     23  C   UNL     1       1.832   8.498  19.238  0.00  0.00    +0.000 A 
ATOM     24  C   UNL     1       1.054   9.629  19.099  0.00  0.00    +0.000 A 
ATOM     25  H   UNL     1       2.191   5.951  21.290  0.00  0.00    +0.000 HD
ATOM     26  H   UNL     1       3.332   6.183  17.400  0.00  0.00    +0.000 HD
ENDBRANCH   2  13
BRANCH  12  27
ATOM     27  C   UNL     1      -3.405  13.380  20.451  0.00  0.00    +0.000 A 
ATOM     28  C   UNL     1      -3.493  14.637  21.084  0.00  0.00    +0.000 A 
ATOM     29  C   UNL     1      -4.682  15.066  21.670  0.00  0.00    +0.000 A 
ATOM     30  C   UNL     1      -5.813  14.259  21.600  0.00  0.00    +0.000 A 
ATOM     31  C   UNL     1      -5.770  13.063  20.885  0.00  0.00    +0.000 A 
ATOM     32  C   UNL     1      -4.576  12.628  20.304  0.00  0.00    +0.000 A 
ENDBRANCH  12  27
TORSDOF 2
ENDMDL
MODEL 9
REMARK VINA RESULT:      -6.6      3.443      7.128
REMARK  Name = 
REMARK  2 active torsions:
REMARK  status: ('A' for Active; 'I' for Inactive)
REMARK    1  A    between atoms: C_2  and  C_3
REMARK    2  A    between atoms: C_24  and  C_25
REMARK                            x       y       z     vdW  Elec       q    Type
REMARK                         _______ _______ _______ _____ _____    ______ ____
ROOT
ATOM      1  O   UNL     1      -4.895  14.614  20.246  0.00  0.00    +0.000 OA
ATOM      2  C   UNL     1      -4.266  13.594  20.541  0.00  0.00    +0.000 C 
ATOM      3  N   UNL     1      -3.316  13.569  21.558  0.00  0.00    +0.000 N 
ATOM      4  C   UNL     1      -2.674  12.374  22.110  0.00  0.00    +0.000 C 
ATOM      5  C   UNL     1      -1.221  12.177  21.633  0.00  0.00    +0.000 C 
ATOM      6  C   UNL     1      -0.697  13.309  20.772  0.00  0.00    +0.000 A 
ATOM      7  C   UNL     1       0.231  13.035  19.756  0.00  0.00    +0.000 A 
ATOM      8  C   UNL     1       0.565  14.017  18.825  0.00  0.00    +0.000 A 
ATOM      9  C   UNL     1       0.054  15.306  18.955  0.00  0.00    +0.000 A 
ATOM     10  C   UNL     1      -0.834  15.607  19.989  0.00  0.00    +0.000 A 
ATOM     11  C   UNL     1      -1.263  14.600  20.869  0.00  0.00    +0.000 A 
ATOM     12  C   UNL     1      -2.535  14.801  21.703  0.00  0.00    +0.000 C 
ENDROOT
BRANCH   2  13
ATOM     13  C   UNL     1      -4.445  12.456  19.620  0.00  0.00    +0.000 A 
ATOM     14  C   UNL     1      -5.609  12.380  18.854  0.00  0.00    +0.000 A 
ATOM     15  N   UNL     1      -5.710  11.697  17.688  0.00  0.00    +0.000 NA
ATOM     16  C   UNL     1      -4.571  11.159  17.210  0.00  0.00    +0.000 A 
ATOM     17  N   UNL     1      -4.559  10.756  15.884  0.00  0.00    +0.000 N 
ATOM     18  C   UNL     1      -3.417  10.480  15.199  0.00  0.00    +0.000 A 
ATOM     19  O   UNL     1      -3.414  10.297  13.992  0.00  0.00    +0.000 OA
ATOM     20  N   UNL     1      -2.262  10.459  15.929  0.00  0.00    +0.000 N 
ATOM     21  C   UNL     1      -2.161  10.665  17.273  0.00  0.00    +0.000 A 
ATOM     22  O   UNL     1      -1.114  10.511  17.900  0.00  0.00    +0.000 OA
ATOM     23  C   UNL     1      -3.387  11.134  17.931  0.00  0.00    +0.000 A 
ATOM     24  C   UNL     1      -3.333  11.758  19.162  0.00  0.00    +0.000 A 
ATOM     25  H   UNL     1      -5.422  10.853  15.361  0.00  0.00    +0.000 HD
ATOM     26  H   UNL     1      -1.407  10.248  15.424  0.00  0.00    +0.000 HD
ENDBRANCH   2  13
BRANCH  12  27
ATOM     27  C   UNL     1      -2.409  15.265  23.143  0.00  0.00    +0.000 A 
ATOM     28  C   UNL     1      -1.113  15.369  23.687  0.00  0.00    +0.000 A 
ATOM     29  C   UNL     1      -0.919  15.631  25.042  0.00  0.00    +0.000 A 
ATOM     30  C   UNL     1      -2.021  15.828  25.868  0.00  0.00    +0.000 A 
ATOM     31  C   UNL     1      -3.305  15.834  25.325  0.00  0.00    +0.000 A 
ATOM     32  C   UNL     1      -3.501  15.564  23.967  0.00  0.00    +0.000 A 
ENDBRANCH  12  27
TORSDOF 2
ENDMDL
