MODEL 1
REMARK VINA RESULT:      -9.0      0.000      0.000
REMARK  Name = 
REMARK  6 active torsions:
REMARK  status: ('A' for Active; 'I' for Inactive)
REMARK    1  A    between atoms: C_1  and  N_2
REMARK    2  A    between atoms: C_4  and  C_5
REMARK    3  A    between atoms: C_5  and  C_6
REMARK    4  A    between atoms: N_8  and  C_9
REMARK    5  A    between atoms: C_12  and  O_13
REMARK    6  A    between atoms: O_13  and  C_14
REMARK                            x       y       z     vdW  Elec       q    Type
REMARK                         _______ _______ _______ _____ _____    ______ ____
ROOT
ATOM      1  C   UNL     1      -1.248  10.543  17.969  0.00  0.00    +0.000 C 
ATOM      2  O   UNL     1      -1.528   9.503  17.378  0.00  0.00    +0.000 OA
ATOM      3  N   UNL     1      -0.159  10.747  18.809  0.00  0.00    +0.000 N 
ATOM      4  H   UNL     1      -0.203  11.535  19.443  0.00  0.00    +0.000 HD
ENDROOT
BRANCH   3   5
ATOM      5  C   UNL     1       0.793   9.736  19.090  0.00  0.00    +0.000 A 
ATOM      6  C   UNL     1       1.602   9.200  18.085  0.00  0.00    +0.000 A 
ATOM      7  C   UNL     1       2.343   8.046  18.305  0.00  0.00    +0.000 A 
ATOM      8  C   UNL     1       2.334   7.446  19.558  0.00  0.00    +0.000 A 
ATOM      9  C   UNL     1       1.627   8.044  20.607  0.00  0.00    +0.000 A 
ATOM     10  C   UNL     1       0.880   9.209  20.382  0.00  0.00    +0.000 A 
BRANCH   8  11
ATOM     11  O   UNL     1       2.955   6.225  19.612  0.00  0.00    +0.000 OA
BRANCH  11  12
ATOM     12  C   UNL     1       2.242   5.069  19.419  0.00  0.00    +0.000 A 
ATOM     13  C   UNL     1       1.324   4.586  20.356  0.00  0.00    +0.000 A 
ATOM     14  C   UNL     1       0.672   3.372  20.133  0.00  0.00    +0.000 A 
ATOM     15  C   UNL     1       0.960   2.625  18.996  0.00  0.00    +0.000 A 
ATOM     16  C   UNL     1       1.893   3.088  18.069  0.00  0.00    +0.000 A 
ATOM     17  C   UNL     1       2.537   4.310  18.280  0.00  0.00    +0.000 A 
ATOM     18 CL   UNL     1       3.694   4.840  17.111  0.00  0.00    +0.000 Cl
ENDBRANCH  11  12
ENDBRANCH   8  11
ENDBRANCH   3   5
BRANCH   1  19
ATOM     19  C   UNL     1      -2.157  11.727  17.798  0.00  0.00    +0.000 C 
BRANCH  19  23
ATOM     20  C   UNL     1      -2.125  13.045  22.367  0.00  0.00    +0.000 C 
ATOM     21  N   UNL     1      -2.948  12.701  21.225  0.00  0.00    +0.000 N 
ATOM     22  N   UNL     1      -2.283  12.364  20.082  0.00  0.00    +0.000 NA
ATOM     23  C   UNL     1      -2.966  12.038  19.028  0.00  0.00    +0.000 A 
ATOM     24  C   UNL     1      -4.443  11.942  19.009  0.00  0.00    +0.000 A 
ATOM     25  C   UNL     1      -5.179  11.469  17.914  0.00  0.00    +0.000 A 
ATOM     26  C   UNL     1      -6.574  11.378  17.995  0.00  0.00    +0.000 A 
ATOM     27  C   UNL     1      -7.238  11.771  19.155  0.00  0.00    +0.000 A 
ATOM     28  C   UNL     1      -6.509  12.249  20.243  0.00  0.00    +0.000 A 
ATOM     29  C   UNL     1      -5.110  12.319  20.172  0.00  0.00    +0.000 A 
ATOM     30  C   UNL     1      -4.333  12.747  21.351  0.00  0.00    +0.000 A 
ATOM     31  O   UNL     1      -4.915  13.091  22.377  0.00  0.00    +0.000 OA
ENDBRANCH  19  23
ENDBRANCH   1  19
TORSDOF 5
ENDMDL
MODEL 2
REMARK VINA RESULT:      -8.7      1.955      2.812
REMARK  Name = 
REMARK  6 active torsions:
REMARK  status: ('A' for Active; 'I' for Inactive)
REMARK    1  A    between atoms: C_1  and  N_2
REMARK    2  A    between atoms: C_4  and  C_5
REMARK    3  A    between atoms: C_5  and  C_6
REMARK    4  A    between atoms: N_8  and  C_9
REMARK    5  A    between atoms: C_12  and  O_13
REMARK    6  A    between atoms: O_13  and  C_14
REMARK                            x       y       z     vdW  Elec       q    Type
REMARK                         _______ _______ _______ _____ _____    ______ ____
ROOT
ATOM      1  C   UNL     1       0.586  11.631  19.378  0.00  0.00    +0.000 C 
ATOM      2  O   UNL     1       1.642  12.128  18.996  0.00  0.00    +0.000 OA
ATOM      3  N   UNL     1       0.304  10.274  19.484  0.00  0.00    +0.000 N 
ATOM      4  H   UNL     1      -0.671  10.005  19.533  0.00  0.00    +0.000 HD
ENDROOT
BRANCH   3   5
ATOM      5  C   UNL     1       1.242   9.266  19.151  0.00  0.00    +0.000 A 
ATOM      6  C   UNL     1       1.774   9.165  17.862  0.00  0.00    +0.000 A 
ATOM      7  C   UNL     1       2.485   8.039  17.470  0.00  0.00    +0.000 A 
ATOM      8  C   UNL     1       2.731   7.023  18.385  0.00  0.00    +0.000 A 
ATOM      9  C   UNL     1       2.313   7.169  19.713  0.00  0.00    +0.000 A 
ATOM     10  C   UNL     1       1.595   8.307  20.105  0.00  0.00    +0.000 A 
BRANCH   8  11
ATOM     11  O   UNL     1       3.285   5.890  17.847  0.00  0.00    +0.000 OA
BRANCH  11  12
ATOM     12  C   UNL     1       2.848   4.648  18.229  0.00  0.00    +0.000 A 
ATOM     13  C   UNL     1       1.544   4.203  17.995  0.00  0.00    +0.000 A 
ATOM     14  C   UNL     1       1.138   2.951  18.461  0.00  0.00    +0.000 A 
ATOM     15  C   UNL     1       2.020   2.160  19.188  0.00  0.00    +0.000 A 
ATOM     16  C   UNL     1       3.315   2.606  19.448  0.00  0.00    +0.000 A 
ATOM     17  C   UNL     1       3.731   3.852  18.970  0.00  0.00    +0.000 A 
ATOM     18 CL   UNL     1       5.341   4.370  19.324  0.00  0.00    +0.000 Cl
ENDBRANCH  11  12
ENDBRANCH   8  11
ENDBRANCH   3   5
BRANCH   1  19
ATOM     19  C   UNL     1      -0.536  12.552  19.765  0.00  0.00    +0.000 C 
BRANCH  19  23
ATOM     20  C   UNL     1      -2.714  10.975  15.844  0.00  0.00    +0.000 C 
ATOM     21  N   UNL     1      -2.886  11.429  17.209  0.00  0.00    +0.000 N 
ATOM     22  N   UNL     1      -1.749  11.793  17.871  0.00  0.00    +0.000 NA
ATOM     23  C   UNL     1      -1.840  12.216  19.094  0.00  0.00    +0.000 A 
ATOM     24  C   UNL     1      -3.127  12.396  19.803  0.00  0.00    +0.000 A 
ATOM     25  C   UNL     1      -3.241  12.973  21.076  0.00  0.00    +0.000 A 
ATOM     26  C   UNL     1      -4.503  13.138  21.658  0.00  0.00    +0.000 A 
ATOM     27  C   UNL     1      -5.648  12.717  20.986  0.00  0.00    +0.000 A 
ATOM     28  C   UNL     1      -5.537  12.137  19.723  0.00  0.00    +0.000 A 
ATOM     29  C   UNL     1      -4.276  11.993  19.128  0.00  0.00    +0.000 A 
ATOM     30  C   UNL     1      -4.165  11.455  17.759  0.00  0.00    +0.000 A 
ATOM     31  O   UNL     1      -5.172  11.086  17.160  0.00  0.00    +0.000 OA
ENDBRANCH  19  23
ENDBRANCH   1  19
TORSDOF 5
ENDMDL
MODEL 3
REMARK VINA RESULT:      -8.6      1.005      1.173
REMARK  Name = 
REMARK  6 active torsions:
REMARK  status: ('A' for Active; 'I' for Inactive)
REMARK    1  A    between atoms: C_1  and  N_2
REMARK    2  A    between atoms: C_4  and  C_5
REMARK    3  A    between atoms: C_5  and  C_6
REMARK    4  A    between atoms: N_8  and  C_9
REMARK    5  A    between atoms: C_12  and  O_13
REMARK    6  A    between atoms: O_13  and  C_14
REMARK                            x       y       z     vdW  Elec       q    Type
REMARK                         _______ _______ _______ _____ _____    ______ ____
ROOT
ATOM      1  C   UNL     1      -1.129  10.738  18.601  0.00  0.00    +0.000 C 
ATOM      2  O   UNL     1      -1.690   9.714  18.218  0.00  0.00    +0.000 OA
ATOM      3  N   UNL     1       0.173  10.835  19.079  0.00  0.00    +0.000 N 
ATOM      4  H   UNL     1       0.410  11.659  19.617  0.00  0.00    +0.000 HD
ENDROOT
BRANCH   3   5
ATOM      5  C   UNL     1       1.038   9.718  19.181  0.00  0.00    +0.000 A 
ATOM      6  C   UNL     1       1.790   9.279  18.088  0.00  0.00    +0.000 A 
ATOM      7  C   UNL     1       2.432   8.047  18.113  0.00  0.00    +0.000 A 
ATOM      8  C   UNL     1       2.384   7.265  19.260  0.00  0.00    +0.000 A 
ATOM      9  C   UNL     1       1.740   7.751  20.404  0.00  0.00    +0.000 A 
ATOM     10  C   UNL     1       1.093   8.994  20.375  0.00  0.00    +0.000 A 
BRANCH   8  11
ATOM     11  O   UNL     1       2.899   6.003  19.113  0.00  0.00    +0.000 OA
BRANCH  11  12
ATOM     12  C   UNL     1       2.327   4.935  19.756  0.00  0.00    +0.000 A 
ATOM     13  C   UNL     1       2.592   4.631  21.095  0.00  0.00    +0.000 A 
ATOM     14  C   UNL     1       2.027   3.496  21.679  0.00  0.00    +0.000 A 
ATOM     15  C   UNL     1       1.228   2.648  20.921  0.00  0.00    +0.000 A 
ATOM     16  C   UNL     1       0.978   2.930  19.578  0.00  0.00    +0.000 A 
ATOM     17  C   UNL     1       1.530   4.073  18.993  0.00  0.00    +0.000 A 
ATOM     18 CL   UNL     1       1.204   4.378  17.323  0.00  0.00    +0.000 Cl
ENDBRANCH  11  12
ENDBRANCH   8  11
ENDBRANCH   3   5
BRANCH   1  19
ATOM     19  C   UNL     1      -1.901  12.026  18.574  0.00  0.00    +0.000 C 
BRANCH  19  23
ATOM     20  C   UNL     1      -1.417  13.095  23.182  0.00  0.00    +0.000 C 
ATOM     21  N   UNL     1      -2.349  12.879  22.094  0.00  0.00    +0.000 N 
ATOM     22  N   UNL     1      -1.802  12.551  20.888  0.00  0.00    +0.000 NA
ATOM     23  C   UNL     1      -2.587  12.336  19.877  0.00  0.00    +0.000 A 
ATOM     24  C   UNL     1      -4.064  12.360  19.970  0.00  0.00    +0.000 A 
ATOM     25  C   UNL     1      -4.917  12.004  18.916  0.00  0.00    +0.000 A 
ATOM     26  C   UNL     1      -6.304  12.021  19.102  0.00  0.00    +0.000 A 
ATOM     27  C   UNL     1      -6.845  12.404  20.328  0.00  0.00    +0.000 A 
ATOM     28  C   UNL     1      -5.999  12.765  21.376  0.00  0.00    +0.000 A 
ATOM     29  C   UNL     1      -4.609  12.726  21.198  0.00  0.00    +0.000 A 
ATOM     30  C   UNL     1      -3.713  13.028  22.331  0.00  0.00    +0.000 A 
ATOM     31  O   UNL     1      -4.185  13.363  23.414  0.00  0.00    +0.000 OA
ENDBRANCH  19  23
ENDBRANCH   1  19
TORSDOF 5
ENDMDL
MODEL 4
REMARK VINA RESULT:      -8.6      1.133      2.458
REMARK  Name = 
REMARK  6 active torsions:
REMARK  status: ('A' for Active; 'I' for Inactive)
REMARK    1  A    between atoms: C_1  and  N_2
REMARK    2  A    between atoms: C_4  and  C_5
REMARK    3  A    between atoms: C_5  and  C_6
REMARK    4  A    between atoms: N_8  and  C_9
REMARK    5  A    between atoms: C_12  and  O_13
REMARK    6  A    between atoms: O_13  and  C_14
REMARK                            x       y       z     vdW  Elec       q    Type
REMARK                         _______ _______ _______ _____ _____    ______ ____
ROOT
ATOM      1  C   UNL     1      -1.320  10.478  18.151  0.00  0.00    +0.000 C 
ATOM      2  O   UNL     1      -1.891   9.396  18.258  0.00  0.00    +0.000 OA
ATOM      3  N   UNL     1       0.030  10.723  18.377  0.00  0.00    +0.000 N 
ATOM      4  H   UNL     1       0.308  11.684  18.532  0.00  0.00    +0.000 HD
ENDROOT
BRANCH   3   5
ATOM      5  C   UNL     1       0.939   9.710  18.772  0.00  0.00    +0.000 A 
ATOM      6  C   UNL     1       1.783   9.091  17.847  0.00  0.00    +0.000 A 
ATOM      7  C   UNL     1       2.480   7.936  18.177  0.00  0.00    +0.000 A 
ATOM      8  C   UNL     1       2.391   7.419  19.463  0.00  0.00    +0.000 A 
ATOM      9  C   UNL     1       1.648   8.100  20.434  0.00  0.00    +0.000 A 
ATOM     10  C   UNL     1       0.946   9.266  20.097  0.00  0.00    +0.000 A 
BRANCH   8  11
ATOM     11  O   UNL     1       2.975   6.189  19.627  0.00  0.00    +0.000 OA
BRANCH  11  12
ATOM     12  C   UNL     1       2.255   5.041  19.419  0.00  0.00    +0.000 A 
ATOM     13  C   UNL     1       1.317   4.562  20.339  0.00  0.00    +0.000 A 
ATOM     14  C   UNL     1       0.658   3.355  20.101  0.00  0.00    +0.000 A 
ATOM     15  C   UNL     1       0.958   2.609  18.967  0.00  0.00    +0.000 A 
ATOM     16  C   UNL     1       1.911   3.066  18.057  0.00  0.00    +0.000 A 
ATOM     17  C   UNL     1       2.562   4.282  18.283  0.00  0.00    +0.000 A 
ATOM     18 CL   UNL     1       3.743   4.805  17.135  0.00  0.00    +0.000 Cl
ENDBRANCH  11  12
ENDBRANCH   8  11
ENDBRANCH   3   5
BRANCH   1  19
ATOM     19  C   UNL     1      -2.131  11.676  17.750  0.00  0.00    +0.000 C 
BRANCH  19  23
ATOM     20  C   UNL     1      -6.844  11.290  18.251  0.00  0.00    +0.000 C 
ATOM     21  N   UNL     1      -5.601  11.692  18.879  0.00  0.00    +0.000 N 
ATOM     22  N   UNL     1      -4.472  11.553  18.125  0.00  0.00    +0.000 NA
ATOM     23  C   UNL     1      -3.330  11.906  18.630  0.00  0.00    +0.000 A 
ATOM     24  C   UNL     1      -3.183  12.520  19.968  0.00  0.00    +0.000 A 
ATOM     25  C   UNL     1      -1.972  13.019  20.468  0.00  0.00    +0.000 A 
ATOM     26  C   UNL     1      -1.930  13.618  21.732  0.00  0.00    +0.000 A 
ATOM     27  C   UNL     1      -3.085  13.708  22.507  0.00  0.00    +0.000 A 
ATOM     28  C   UNL     1      -4.290  13.206  22.015  0.00  0.00    +0.000 A 
ATOM     29  C   UNL     1      -4.338  12.627  20.739  0.00  0.00    +0.000 A 
ATOM     30  C   UNL     1      -5.627  12.171  20.186  0.00  0.00    +0.000 A 
ATOM     31  O   UNL     1      -6.649  12.251  20.863  0.00  0.00    +0.000 OA
ENDBRANCH  19  23
ENDBRANCH   1  19
TORSDOF 5
ENDMDL
MODEL 5
REMARK VINA RESULT:      -8.6      1.888      2.791
REMARK  Name = 
REMARK  6 active torsions:
REMARK  status: ('A' for Active; 'I' for Inactive)
REMARK    1  A    between atoms: C_1  and  N_2
REMARK    2  A    between atoms: C_4  and  C_5
REMARK    3  A    between atoms: C_5  and  C_6
REMARK    4  A    between atoms: N_8  and  C_9
REMARK    5  A    between atoms: C_12  and  O_13
REMARK    6  A    between atoms: O_13  and  C_14
REMARK                            x       y       z     vdW  Elec       q    Type
REMARK                         _______ _______ _______ _____ _____    ______ ____
ROOT
ATOM      1  C   UNL     1       0.319  11.630  19.231  0.00  0.00    +0.000 C 
ATOM      2  O   UNL     1       0.767  11.737  20.369  0.00  0.00    +0.000 OA
ATOM      3  N   UNL     1       0.557  10.583  18.347  0.00  0.00    +0.000 N 
ATOM      4  H   UNL     1       0.369  10.751  17.367  0.00  0.00    +0.000 HD
ENDROOT
BRANCH   3   5
ATOM      5  C   UNL     1       1.376   9.474  18.673  0.00  0.00    +0.000 A 
ATOM      6  C   UNL     1       2.264   8.929  17.742  0.00  0.00    +0.000 A 
ATOM      7  C   UNL     1       2.871   7.701  17.969  0.00  0.00    +0.000 A 
ATOM      8  C   UNL     1       2.647   7.029  19.164  0.00  0.00    +0.000 A 
ATOM      9  C   UNL     1       1.860   7.624  20.156  0.00  0.00    +0.000 A 
ATOM     10  C   UNL     1       1.249   8.864  19.923  0.00  0.00    +0.000 A 
BRANCH   8  11
ATOM     11  O   UNL     1       3.153   5.755  19.208  0.00  0.00    +0.000 OA
BRANCH  11  12
ATOM     12  C   UNL     1       2.462   4.750  19.835  0.00  0.00    +0.000 A 
ATOM     13  C   UNL     1       2.688   4.401  21.170  0.00  0.00    +0.000 A 
ATOM     14  C   UNL     1       1.997   3.330  21.739  0.00  0.00    +0.000 A 
ATOM     15  C   UNL     1       1.109   2.587  20.969  0.00  0.00    +0.000 A 
ATOM     16  C   UNL     1       0.896   2.913  19.630  0.00  0.00    +0.000 A 
ATOM     17  C   UNL     1       1.575   3.994  19.060  0.00  0.00    +0.000 A 
ATOM     18 CL   UNL     1       1.289   4.356  17.395  0.00  0.00    +0.000 Cl
ENDBRANCH  11  12
ENDBRANCH   8  11
ENDBRANCH   3   5
BRANCH   1  19
ATOM     19  C   UNL     1      -0.567  12.723  18.707  0.00  0.00    +0.000 C 
BRANCH  19  23
ATOM     20  C   UNL     1      -3.717  10.690  15.783  0.00  0.00    +0.000 C 
ATOM     21  N   UNL     1      -3.502  11.279  17.089  0.00  0.00    +0.000 N 
ATOM     22  N   UNL     1      -2.243  11.739  17.343  0.00  0.00    +0.000 NA
ATOM     23  C   UNL     1      -1.991  12.285  18.492  0.00  0.00    +0.000 A 
ATOM     24  C   UNL     1      -3.018  12.504  19.536  0.00  0.00    +0.000 A 
ATOM     25  C   UNL     1      -2.782  13.206  20.726  0.00  0.00    +0.000 A 
ATOM     26  C   UNL     1      -3.822  13.397  21.643  0.00  0.00    +0.000 A 
ATOM     27  C   UNL     1      -5.089  12.878  21.387  0.00  0.00    +0.000 A 
ATOM     28  C   UNL     1      -5.325  12.173  20.208  0.00  0.00    +0.000 A 
ATOM     29  C   UNL     1      -4.290  12.002  19.277  0.00  0.00    +0.000 A 
ATOM     30  C   UNL     1      -4.560  11.327  17.993  0.00  0.00    +0.000 A 
ATOM     31  O   UNL     1      -5.677  10.871  17.762  0.00  0.00    +0.000 OA
ENDBRANCH  19  23
ENDBRANCH   1  19
TORSDOF 5
ENDMDL
MODEL 6
REMARK VINA RESULT:      -8.4      1.155      1.249
REMARK  Name = 
REMARK  6 active torsions:
REMARK  status: ('A' for Active; 'I' for Inactive)
REMARK    1  A    between atoms: C_1  and  N_2
REMARK    2  A    between atoms: C_4  and  C_5
REMARK    3  A    between atoms: C_5  and  C_6
REMARK    4  A    between atoms: N_8  and  C_9
REMARK    5  A    between atoms: C_12  and  O_13
REMARK    6  A    between atoms: O_13  and  C_14
REMARK                            x       y       z     vdW  Elec       q    Type
REMARK                         _______ _______ _______ _____ _____    ______ ____
ROOT
ATOM      1  C   UNL     1       0.029  11.640  19.322  0.00  0.00    +0.000 C 
ATOM      2  O   UNL     1       0.770  11.981  20.241  0.00  0.00    +0.000 OA
ATOM      3  N   UNL     1       0.069  10.430  18.637  0.00  0.00    +0.000 N 
ATOM      4  H   UNL     1      -0.392  10.391  17.737  0.00  0.00    +0.000 HD
ENDROOT
BRANCH   3   5
ATOM      5  C   UNL     1       1.005   9.410  18.934  0.00  0.00    +0.000 A 
ATOM      6  C   UNL     1       1.835   8.874  17.946  0.00  0.00    +0.000 A 
ATOM      7  C   UNL     1       2.560   7.712  18.175  0.00  0.00    +0.000 A 
ATOM      8  C   UNL     1       2.515   7.104  19.423  0.00  0.00    +0.000 A 
ATOM      9  C   UNL     1       1.787   7.700  20.459  0.00  0.00    +0.000 A 
ATOM     10  C   UNL     1       1.056   8.872  20.223  0.00  0.00    +0.000 A 
BRANCH   8  11
ATOM     11  O   UNL     1       3.124   5.877  19.483  0.00  0.00    +0.000 OA
BRANCH  11  12
ATOM     12  C   UNL     1       2.413   4.730  19.237  0.00  0.00    +0.000 A 
ATOM     13  C   UNL     1       1.403   4.273  20.089  0.00  0.00    +0.000 A 
ATOM     14  C   UNL     1       0.754   3.067  19.819  0.00  0.00    +0.000 A 
ATOM     15  C   UNL     1       1.135   2.302  18.722  0.00  0.00    +0.000 A 
ATOM     16  C   UNL     1       2.158   2.738  17.882  0.00  0.00    +0.000 A 
ATOM     17  C   UNL     1       2.801   3.952  18.139  0.00  0.00    +0.000 A 
ATOM     18 CL   UNL     1       4.071   4.449  17.078  0.00  0.00    +0.000 Cl
ENDBRANCH  11  12
ENDBRANCH   8  11
ENDBRANCH   3   5
BRANCH   1  19
ATOM     19  C   UNL     1      -1.025  12.605  18.860  0.00  0.00    +0.000 C 
BRANCH  19  23
ATOM     20  C   UNL     1      -3.119  13.151  23.093  0.00  0.00    +0.000 C 
ATOM     21  N   UNL     1      -3.310  12.815  21.697  0.00  0.00    +0.000 N 
ATOM     22  N   UNL     1      -2.191  12.825  20.916  0.00  0.00    +0.000 NA
ATOM     23  C   UNL     1      -2.297  12.524  19.658  0.00  0.00    +0.000 A 
ATOM     24  C   UNL     1      -3.565  12.098  19.024  0.00  0.00    +0.000 A 
ATOM     25  C   UNL     1      -3.662  11.649  17.700  0.00  0.00    +0.000 A 
ATOM     26  C   UNL     1      -4.897  11.231  17.191  0.00  0.00    +0.000 A 
ATOM     27  C   UNL     1      -6.038  11.273  17.991  0.00  0.00    +0.000 A 
ATOM     28  C   UNL     1      -5.946  11.725  19.306  0.00  0.00    +0.000 A 
ATOM     29  C   UNL     1      -4.705  12.122  19.824  0.00  0.00    +0.000 A 
ATOM     30  C   UNL     1      -4.592  12.523  21.240  0.00  0.00    +0.000 A 
ATOM     31  O   UNL     1      -5.595  12.558  21.949  0.00  0.00    +0.000 OA
ENDBRANCH  19  23
ENDBRANCH   1  19
TORSDOF 5
ENDMDL
MODEL 7
REMARK VINA RESULT:      -8.4      1.476      2.081
REMARK  Name = 
REMARK  6 active torsions:
REMARK  status: ('A' for Active; 'I' for Inactive)
REMARK    1  A    between atoms: C_1  and  N_2
REMARK    2  A    between atoms: C_4  and  C_5
REMARK    3  A    between atoms: C_5  and  C_6
REMARK    4  A    between atoms: N_8  and  C_9
REMARK    5  A    between atoms: C_12  and  O_13
REMARK    6  A    between atoms: O_13  and  C_14
REMARK                            x       y       z     vdW  Elec       q    Type
REMARK                         _______ _______ _______ _____ _____    ______ ____
ROOT
ATOM      1  C   UNL     1       0.667  11.680  19.040  0.00  0.00    +0.000 C 
ATOM      2  O   UNL     1       1.402  11.986  19.975  0.00  0.00    +0.000 OA
ATOM      3  N   UNL     1       0.617  10.446  18.401  0.00  0.00    +0.000 N 
ATOM      4  H   UNL     1       0.187  10.415  17.485  0.00  0.00    +0.000 HD
ENDROOT
BRANCH   3   5
ATOM      5  C   UNL     1       1.442   9.355  18.771  0.00  0.00    +0.000 A 
ATOM      6  C   UNL     1       2.314   8.760  17.856  0.00  0.00    +0.000 A 
ATOM      7  C   UNL     1       2.925   7.545  18.138  0.00  0.00    +0.000 A 
ATOM      8  C   UNL     1       2.720   6.938  19.371  0.00  0.00    +0.000 A 
ATOM      9  C   UNL     1       1.949   7.586  20.343  0.00  0.00    +0.000 A 
ATOM     10  C   UNL     1       1.334   8.812  20.054  0.00  0.00    +0.000 A 
BRANCH   8  11
ATOM     11  O   UNL     1       3.226   5.668  19.474  0.00  0.00    +0.000 OA
BRANCH  11  12
ATOM     12  C   UNL     1       2.425   4.577  19.255  0.00  0.00    +0.000 A 
ATOM     13  C   UNL     1       1.428   4.181  20.152  0.00  0.00    +0.000 A 
ATOM     14  C   UNL     1       0.684   3.027  19.906  0.00  0.00    +0.000 A 
ATOM     15  C   UNL     1       0.955   2.250  18.786  0.00  0.00    +0.000 A 
ATOM     16  C   UNL     1       1.963   2.623  17.898  0.00  0.00    +0.000 A 
ATOM     17  C   UNL     1       2.701   3.786  18.133  0.00  0.00    +0.000 A 
ATOM     18 CL   UNL     1       3.949   4.205  17.012  0.00  0.00    +0.000 Cl
ENDBRANCH  11  12
ENDBRANCH   8  11
ENDBRANCH   3   5
BRANCH   1  19
ATOM     19  C   UNL     1      -0.274  12.719  18.503  0.00  0.00    +0.000 C 
BRANCH  19  23
ATOM     20  C   UNL     1      -3.783  12.922  21.705  0.00  0.00    +0.000 C 
ATOM     21  N   UNL     1      -3.416  12.557  20.352  0.00  0.00    +0.000 N 
ATOM     22  N   UNL     1      -2.109  12.749  20.009  0.00  0.00    +0.000 NA
ATOM     23  C   UNL     1      -1.718  12.433  18.813  0.00  0.00    +0.000 A 
ATOM     24  C   UNL     1      -2.601  11.804  17.804  0.00  0.00    +0.000 A 
ATOM     25  C   UNL     1      -2.155  11.344  16.558  0.00  0.00    +0.000 A 
ATOM     26  C   UNL     1      -3.053  10.729  15.677  0.00  0.00    +0.000 A 
ATOM     27  C   UNL     1      -4.394  10.585  16.027  0.00  0.00    +0.000 A 
ATOM     28  C   UNL     1      -4.841  11.048  17.263  0.00  0.00    +0.000 A 
ATOM     29  C   UNL     1      -3.939  11.643  18.156  0.00  0.00    +0.000 A 
ATOM     30  C   UNL     1      -4.394  12.059  19.496  0.00  0.00    +0.000 A 
ATOM     31  O   UNL     1      -5.575  11.931  19.810  0.00  0.00    +0.000 OA
ENDBRANCH  19  23
ENDBRANCH   1  19
TORSDOF 5
ENDMDL
MODEL 8
REMARK VINA RESULT:      -8.3      3.350      3.739
REMARK  Name = 
REMARK  6 active torsions:
REMARK  status: ('A' for Active; 'I' for Inactive)
REMARK    1  A    between atoms: C_1  and  N_2
REMARK    2  A    between atoms: C_4  and  C_5
REMARK    3  A    between atoms: C_5  and  C_6
REMARK    4  A    between atoms: N_8  and  C_9
REMARK    5  A    between atoms: C_12  and  O_13
REMARK    6  A    between atoms: O_13  and  C_14
REMARK                            x       y       z     vdW  Elec       q    Type
REMARK                         _______ _______ _______ _____ _____    ______ ____
ROOT
ATOM      1  C   UNL     1       0.160   9.758  22.536  0.00  0.00    +0.000 C 
ATOM      2  O   UNL     1       1.175   9.592  23.208  0.00  0.00    +0.000 OA
ATOM      3  N   UNL     1      -0.038   9.339  21.225  0.00  0.00    +0.000 N 
ATOM      4  H   UNL     1      -0.787   9.780  20.705  0.00  0.00    +0.000 HD
ENDROOT
BRANCH   3   5
ATOM      5  C   UNL     1       0.948   8.643  20.484  0.00  0.00    +0.000 A 
ATOM      6  C   UNL     1       1.384   9.106  19.240  0.00  0.00    +0.000 A 
ATOM      7  C   UNL     1       2.149   8.300  18.407  0.00  0.00    +0.000 A 
ATOM      8  C   UNL     1       2.545   7.040  18.836  0.00  0.00    +0.000 A 
ATOM      9  C   UNL     1       2.221   6.615  20.130  0.00  0.00    +0.000 A 
ATOM     10  C   UNL     1       1.448   7.431  20.967  0.00  0.00    +0.000 A 
BRANCH   8  11
ATOM     11  O   UNL     1       3.143   6.269  17.873  0.00  0.00    +0.000 OA
BRANCH  11  12
ATOM     12  C   UNL     1       3.176   4.903  17.991  0.00  0.00    +0.000 A 
ATOM     13  C   UNL     1       2.133   4.084  17.551  0.00  0.00    +0.000 A 
ATOM     14  C   UNL     1       2.195   2.704  17.752  0.00  0.00    +0.000 A 
ATOM     15  C   UNL     1       3.279   2.146  18.420  0.00  0.00    +0.000 A 
ATOM     16  C   UNL     1       4.313   2.959  18.885  0.00  0.00    +0.000 A 
ATOM     17  C   UNL     1       4.262   4.339  18.672  0.00  0.00    +0.000 A 
ATOM     18 CL   UNL     1       5.559   5.310  19.274  0.00  0.00    +0.000 Cl
ENDBRANCH  11  12
ENDBRANCH   8  11
ENDBRANCH   3   5
BRANCH   1  19
ATOM     19  C   UNL     1      -0.994  10.491  23.157  0.00  0.00    +0.000 C 
BRANCH  19  23
ATOM     20  C   UNL     1       1.086  14.141  20.930  0.00  0.00    +0.000 C 
ATOM     21  N   UNL     1      -0.108  13.672  21.604  0.00  0.00    +0.000 N 
ATOM     22  N   UNL     1      -0.068  12.395  22.082  0.00  0.00    +0.000 NA
ATOM     23  C   UNL     1      -1.104  11.922  22.703  0.00  0.00    +0.000 A 
ATOM     24  C   UNL     1      -2.320  12.717  22.988  0.00  0.00    +0.000 A 
ATOM     25  C   UNL     1      -3.389  12.254  23.768  0.00  0.00    +0.000 A 
ATOM     26  C   UNL     1      -4.486  13.087  24.017  0.00  0.00    +0.000 A 
ATOM     27  C   UNL     1      -4.529  14.372  23.480  0.00  0.00    +0.000 A 
ATOM     28  C   UNL     1      -3.470  14.833  22.698  0.00  0.00    +0.000 A 
ATOM     29  C   UNL     1      -2.361  14.008  22.468  0.00  0.00    +0.000 A 
ATOM     30  C   UNL     1      -1.205  14.524  21.710  0.00  0.00    +0.000 A 
ATOM     31  O   UNL     1      -1.237  15.657  21.237  0.00  0.00    +0.000 OA
ENDBRANCH  19  23
ENDBRANCH   1  19
TORSDOF 5
ENDMDL
MODEL 9
REMARK VINA RESULT:      -8.3      0.953      1.238
REMARK  Name = 
REMARK  6 active torsions:
REMARK  status: ('A' for Active; 'I' for Inactive)
REMARK    1  A    between atoms: C_1  and  N_2
REMARK    2  A    between atoms: C_4  and  C_5
REMARK    3  A    between atoms: C_5  and  C_6
REMARK    4  A    between atoms: N_8  and  C_9
REMARK    5  A    between atoms: C_12  and  O_13
REMARK    6  A    between atoms: O_13  and  C_14
REMARK                            x       y       z     vdW  Elec       q    Type
REMARK                         _______ _______ _______ _____ _____    ______ ____
ROOT
ATOM      1  C   UNL     1      -1.259  10.525  18.009  0.00  0.00    +0.000 C 
ATOM      2  O   UNL     1      -1.613   9.453  17.527  0.00  0.00    +0.000 OA
ATOM      3  N   UNL     1      -0.098  10.759  18.738  0.00  0.00    +0.000 N 
ATOM      4  H   UNL     1      -0.068  11.594  19.309  0.00  0.00    +0.000 HD
ENDROOT
BRANCH   3   5
ATOM      5  C   UNL     1       0.850   9.744  19.017  0.00  0.00    +0.000 A 
ATOM      6  C   UNL     1       1.739   9.291  18.039  0.00  0.00    +0.000 A 
ATOM      7  C   UNL     1       2.483   8.134  18.231  0.00  0.00    +0.000 A 
ATOM      8  C   UNL     1       2.396   7.448  19.436  0.00  0.00    +0.000 A 
ATOM      9  C   UNL     1       1.606   7.962  20.470  0.00  0.00    +0.000 A 
ATOM     10  C   UNL     1       0.856   9.129  20.272  0.00  0.00    +0.000 A 
BRANCH   8  11
ATOM     11  O   UNL     1       3.034   6.234  19.451  0.00  0.00    +0.000 OA
BRANCH  11  12
ATOM     12  C   UNL     1       2.364   5.088  19.108  0.00  0.00    +0.000 A 
ATOM     13  C   UNL     1       1.967   4.810  17.797  0.00  0.00    +0.000 A 
ATOM     14  C   UNL     1       1.234   3.655  17.518  0.00  0.00    +0.000 A 
ATOM     15  C   UNL     1       0.869   2.797  18.549  0.00  0.00    +0.000 A 
ATOM     16  C   UNL     1       1.241   3.078  19.863  0.00  0.00    +0.000 A 
ATOM     17  C   UNL     1       1.987   4.226  20.145  0.00  0.00    +0.000 A 
ATOM     18 CL   UNL     1       2.416   4.541  21.789  0.00  0.00    +0.000 Cl
ENDBRANCH  11  12
ENDBRANCH   8  11
ENDBRANCH   3   5
BRANCH   1  19
ATOM     19  C   UNL     1      -2.150  11.719  17.823  0.00  0.00    +0.000 C 
BRANCH  19  23
ATOM     20  C   UNL     1      -2.117  13.209  22.339  0.00  0.00    +0.000 C 
ATOM     21  N   UNL     1      -2.940  12.802  21.218  0.00  0.00    +0.000 N 
ATOM     22  N   UNL     1      -2.275  12.440  20.082  0.00  0.00    +0.000 NA
ATOM     23  C   UNL     1      -2.958  12.057  19.047  0.00  0.00    +0.000 A 
ATOM     24  C   UNL     1      -4.432  11.922  19.045  0.00  0.00    +0.000 A 
ATOM     25  C   UNL     1      -5.164  11.389  17.975  0.00  0.00    +0.000 A 
ATOM     26  C   UNL     1      -6.555  11.266  18.071  0.00  0.00    +0.000 A 
ATOM     27  C   UNL     1      -7.220  11.685  19.221  0.00  0.00    +0.000 A 
ATOM     28  C   UNL     1      -6.495  12.223  20.284  0.00  0.00    +0.000 A 
ATOM     29  C   UNL     1      -5.100  12.325  20.198  0.00  0.00    +0.000 A 
ATOM     30  C   UNL     1      -4.325  12.817  21.354  0.00  0.00    +0.000 A 
ATOM     31  O   UNL     1      -4.907  13.185  22.371  0.00  0.00    +0.000 OA
ENDBRANCH  19  23
ENDBRANCH   1  19
TORSDOF 5
ENDMDL
