MODEL 1
REMARK VINA RESULT:      -8.8      0.000      0.000
REMARK  Name = 
REMARK  6 active torsions:
REMARK  status: ('A' for Active; 'I' for Inactive)
REMARK    1  A    between atoms: C_1  and  C_2
REMARK    2  A    between atoms: C_7  and  C_9
REMARK    3  A    between atoms: C_12  and  N_13
REMARK    4  A    between atoms: N_13  and  S_14
REMARK    5  A    between atoms: S_14  and  C_17
REMARK    6  A    between atoms: C_23  and  C_24
REMARK                            x       y       z     vdW  Elec       q    Type
REMARK                         _______ _______ _______ _____ _____    ______ ____
ROOT
ATOM      1  C   UNL     1       1.570   8.352  19.638  0.00  0.00    +0.000 A 
ATOM      2  C   UNL     1       2.148   8.144  18.375  0.00  0.00    +0.000 A 
ATOM      3  C   UNL     1       2.687   6.896  18.031  0.00  0.00    +0.000 A 
ATOM      4  C   UNL     1       2.636   5.849  18.948  0.00  0.00    +0.000 A 
ATOM      5  C   UNL     1       2.064   6.052  20.206  0.00  0.00    +0.000 A 
ATOM      6  C   UNL     1       1.544   7.299  20.559  0.00  0.00    +0.000 A 
ENDROOT
BRANCH   1  13
ATOM      7  C   UNL     1      -1.703  14.602  23.362  0.00  0.00    +0.000 C 
ATOM      8  C   UNL     1      -1.211  13.306  22.801  0.00  0.00    +0.000 A 
ATOM      9  C   UNL     1      -1.557  12.072  23.348  0.00  0.00    +0.000 A 
ATOM     10  C   UNL     1      -1.062  10.898  22.770  0.00  0.00    +0.000 A 
ATOM     11  C   UNL     1      -0.232  10.987  21.657  0.00  0.00    +0.000 A 
ATOM     12  N   UNL     1       0.258   9.793  21.102  0.00  0.00    +0.000 N 
ATOM     13  C   UNL     1       1.073   9.718  19.984  0.00  0.00    +0.000 C 
ATOM     14  O   UNL     1       1.410  10.636  19.245  0.00  0.00    +0.000 OA
ATOM     15  N   UNL     1       0.116  12.171  21.130  0.00  0.00    +0.000 NA
ATOM     16  C   UNL     1      -0.373  13.294  21.697  0.00  0.00    +0.000 A 
ATOM     17  H   UNL     1      -0.046   8.940  21.541  0.00  0.00    +0.000 HD
ENDBRANCH   1  13
BRANCH   4  18
ATOM     18  N   UNL     1       3.217   4.578  18.665  0.00  0.00    +0.000 N 
ATOM     19  H   UNL     1       2.985   4.159  17.764  0.00  0.00    +0.000 HD
BRANCH  18  20
ATOM     20  S   UNL     1       4.872   4.361  18.986  0.00  0.00    +0.000 S 
ATOM     21  O   UNL     1       5.299   5.523  19.733  0.00  0.00    +0.000 OA
ATOM     22  O   UNL     1       5.062   3.034  19.537  0.00  0.00    +0.000 OA
BRANCH  20  23
ATOM     23  C   UNL     1       5.613   4.411  17.355  0.00  0.00    +0.000 A 
ATOM     24  C   UNL     1       4.739   4.224  16.267  0.00  0.00    +0.000 A 
ATOM     25  C   UNL     1       5.201   4.347  14.959  0.00  0.00    +0.000 A 
ATOM     26  C   UNL     1       6.538   4.635  14.738  0.00  0.00    +0.000 A 
ATOM     27  F   UNL     1       6.983   4.783  13.484  0.00  0.00    +0.000 F 
ATOM     28  C   UNL     1       7.427   4.773  15.801  0.00  0.00    +0.000 A 
ATOM     29  C   UNL     1       6.985   4.656  17.133  0.00  0.00    +0.000 A 
ATOM     30  C   UNL     1       8.012   4.753  18.225  0.00  0.00    +0.000 C 
ENDBRANCH  20  23
ENDBRANCH  18  20
ENDBRANCH   4  18
TORSDOF 4
ENDMDL
MODEL 2
REMARK VINA RESULT:      -8.6      1.035      1.180
REMARK  Name = 
REMARK  6 active torsions:
REMARK  status: ('A' for Active; 'I' for Inactive)
REMARK    1  A    between atoms: C_1  and  C_2
REMARK    2  A    between atoms: C_7  and  C_9
REMARK    3  A    between atoms: C_12  and  N_13
REMARK    4  A    between atoms: N_13  and  S_14
REMARK    5  A    between atoms: S_14  and  C_17
REMARK    6  A    between atoms: C_23  and  C_24
REMARK                            x       y       z     vdW  Elec       q    Type
REMARK                         _______ _______ _______ _____ _____    ______ ____
ROOT
ATOM      1  C   UNL     1       1.504   8.044  20.481  0.00  0.00    +0.000 A 
ATOM      2  C   UNL     1       2.055   8.209  19.199  0.00  0.00    +0.000 A 
ATOM      3  C   UNL     1       2.604   7.119  18.510  0.00  0.00    +0.000 A 
ATOM      4  C   UNL     1       2.593   5.856  19.100  0.00  0.00    +0.000 A 
ATOM      5  C   UNL     1       2.048   5.688  20.375  0.00  0.00    +0.000 A 
ATOM      6  C   UNL     1       1.517   6.776  21.072  0.00  0.00    +0.000 A 
ENDROOT
BRANCH   1  13
ATOM      7  C   UNL     1      -2.678  14.482  22.648  0.00  0.00    +0.000 C 
ATOM      8  C   UNL     1      -1.977  13.311  22.039  0.00  0.00    +0.000 A 
ATOM      9  C   UNL     1      -2.181  12.917  20.718  0.00  0.00    +0.000 A 
ATOM     10  C   UNL     1      -1.488  11.812  20.213  0.00  0.00    +0.000 A 
ATOM     11  C   UNL     1      -0.606  11.127  21.042  0.00  0.00    +0.000 A 
ATOM     12  N   UNL     1       0.071  10.015  20.512  0.00  0.00    +0.000 N 
ATOM     13  C   UNL     1       0.994   9.249  21.204  0.00  0.00    +0.000 C 
ATOM     14  O   UNL     1       1.448   9.460  22.322  0.00  0.00    +0.000 OA
ATOM     15  N   UNL     1      -0.411  11.492  22.319  0.00  0.00    +0.000 NA
ATOM     16  C   UNL     1      -1.084  12.562  22.790  0.00  0.00    +0.000 A 
ATOM     17  H   UNL     1      -0.116   9.800  19.546  0.00  0.00    +0.000 HD
ENDBRANCH   1  13
BRANCH   4  18
ATOM     18  N   UNL     1       3.187   4.728  18.463  0.00  0.00    +0.000 N 
ATOM     19  H   UNL     1       3.027   4.632  17.460  0.00  0.00    +0.000 HD
BRANCH  18  20
ATOM     20  S   UNL     1       4.808   4.363  18.821  0.00  0.00    +0.000 S 
ATOM     21  O   UNL     1       5.301   5.451  19.637  0.00  0.00    +0.000 OA
ATOM     22  O   UNL     1       4.874   3.001  19.310  0.00  0.00    +0.000 OA
BRANCH  20  23
ATOM     23  C   UNL     1       5.604   4.430  17.217  0.00  0.00    +0.000 A 
ATOM     24  C   UNL     1       4.762   4.296  16.097  0.00  0.00    +0.000 A 
ATOM     25  C   UNL     1       5.270   4.436  14.807  0.00  0.00    +0.000 A 
ATOM     26  C   UNL     1       6.622   4.689  14.638  0.00  0.00    +0.000 A 
ATOM     27  F   UNL     1       7.112   4.852  13.403  0.00  0.00    +0.000 F 
ATOM     28  C   UNL     1       7.479   4.774  15.732  0.00  0.00    +0.000 A 
ATOM     29  C   UNL     1       6.990   4.638  17.046  0.00  0.00    +0.000 A 
ATOM     30  C   UNL     1       7.982   4.677  18.173  0.00  0.00    +0.000 C 
ENDBRANCH  20  23
ENDBRANCH  18  20
ENDBRANCH   4  18
TORSDOF 4
ENDMDL
MODEL 3
REMARK VINA RESULT:      -8.3      1.934      2.483
REMARK  Name = 
REMARK  6 active torsions:
REMARK  status: ('A' for Active; 'I' for Inactive)
REMARK    1  A    between atoms: C_1  and  C_2
REMARK    2  A    between atoms: C_7  and  C_9
REMARK    3  A    between atoms: C_12  and  N_13
REMARK    4  A    between atoms: N_13  and  S_14
REMARK    5  A    between atoms: S_14  and  C_17
REMARK    6  A    between atoms: C_23  and  C_24
REMARK                            x       y       z     vdW  Elec       q    Type
REMARK                         _______ _______ _______ _____ _____    ______ ____
ROOT
ATOM      1  C   UNL     1       1.597   8.543  19.239  0.00  0.00    +0.000 A 
ATOM      2  C   UNL     1       2.133   8.183  17.991  0.00  0.00    +0.000 A 
ATOM      3  C   UNL     1       2.654   6.899  17.780  0.00  0.00    +0.000 A 
ATOM      4  C   UNL     1       2.629   5.967  18.815  0.00  0.00    +0.000 A 
ATOM      5  C   UNL     1       2.099   6.322  20.058  0.00  0.00    +0.000 A 
ATOM      6  C   UNL     1       1.596   7.607  20.278  0.00  0.00    +0.000 A 
ENDROOT
BRANCH   1  13
ATOM      7  C   UNL     1       0.676  16.457  18.834  0.00  0.00    +0.000 C 
ATOM      8  C   UNL     1       1.053  15.010  18.832  0.00  0.00    +0.000 A 
ATOM      9  C   UNL     1       2.266  14.551  18.322  0.00  0.00    +0.000 A 
ATOM     10  C   UNL     1       2.554  13.183  18.355  0.00  0.00    +0.000 A 
ATOM     11  C   UNL     1       1.621  12.305  18.899  0.00  0.00    +0.000 A 
ATOM     12  N   UNL     1       1.932  10.935  18.912  0.00  0.00    +0.000 N 
ATOM     13  C   UNL     1       1.118   9.945  19.437  0.00  0.00    +0.000 C 
ATOM     14  O   UNL     1       0.072  10.093  20.058  0.00  0.00    +0.000 OA
ATOM     15  N   UNL     1       0.446  12.736  19.382  0.00  0.00    +0.000 NA
ATOM     16  C   UNL     1       0.184  14.060  19.346  0.00  0.00    +0.000 A 
ATOM     17  H   UNL     1       2.833  10.679  18.540  0.00  0.00    +0.000 HD
ENDBRANCH   1  13
BRANCH   4  18
ATOM     18  N   UNL     1       3.195   4.668  18.665  0.00  0.00    +0.000 N 
ATOM     19  H   UNL     1       2.953   4.158  17.815  0.00  0.00    +0.000 HD
BRANCH  18  20
ATOM     20  S   UNL     1       4.849   4.466  19.001  0.00  0.00    +0.000 S 
ATOM     21  O   UNL     1       5.269   5.654  19.711  0.00  0.00    +0.000 OA
ATOM     22  O   UNL     1       5.040   3.159  19.597  0.00  0.00    +0.000 OA
BRANCH  20  23
ATOM     23  C   UNL     1       5.597   4.464  17.373  0.00  0.00    +0.000 A 
ATOM     24  C   UNL     1       4.728   4.239  16.288  0.00  0.00    +0.000 A 
ATOM     25  C   UNL     1       5.196   4.319  14.978  0.00  0.00    +0.000 A 
ATOM     26  C   UNL     1       6.534   4.603  14.754  0.00  0.00    +0.000 A 
ATOM     27  F   UNL     1       6.984   4.709  13.498  0.00  0.00    +0.000 F 
ATOM     28  C   UNL     1       7.417   4.778  15.816  0.00  0.00    +0.000 A 
ATOM     29  C   UNL     1       6.970   4.704  17.149  0.00  0.00    +0.000 A 
ATOM     30  C   UNL     1       7.991   4.840  18.242  0.00  0.00    +0.000 C 
ENDBRANCH  20  23
ENDBRANCH  18  20
ENDBRANCH   4  18
TORSDOF 4
ENDMDL
MODEL 4
REMARK VINA RESULT:      -8.3      1.270      1.672
REMARK  Name = 
REMARK  6 active torsions:
REMARK  status: ('A' for Active; 'I' for Inactive)
REMARK    1  A    between atoms: C_1  and  C_2
REMARK    2  A    between atoms: C_7  and  C_9
REMARK    3  A    between atoms: C_12  and  N_13
REMARK    4  A    between atoms: N_13  and  S_14
REMARK    5  A    between atoms: S_14  and  C_17
REMARK    6  A    between atoms: C_23  and  C_24
REMARK                            x       y       z     vdW  Elec       q    Type
REMARK                         _______ _______ _______ _____ _____    ______ ____
ROOT
ATOM      1  C   UNL     1       1.558   8.173  20.072  0.00  0.00    +0.000 A 
ATOM      2  C   UNL     1       2.174   8.111  18.810  0.00  0.00    +0.000 A 
ATOM      3  C   UNL     1       2.720   6.910  18.338  0.00  0.00    +0.000 A 
ATOM      4  C   UNL     1       2.640   5.762  19.124  0.00  0.00    +0.000 A 
ATOM      5  C   UNL     1       2.031   5.820  20.380  0.00  0.00    +0.000 A 
ATOM      6  C   UNL     1       1.503   7.020  20.861  0.00  0.00    +0.000 A 
ENDROOT
BRANCH   1  13
ATOM      7  C   UNL     1      -1.431  15.557  20.494  0.00  0.00    +0.000 C 
ATOM      8  C   UNL     1      -0.823  14.222  20.204  0.00  0.00    +0.000 A 
ATOM      9  C   UNL     1      -0.391  13.855  18.932  0.00  0.00    +0.000 A 
ATOM     10  C   UNL     1       0.172  12.590  18.733  0.00  0.00    +0.000 A 
ATOM     11  C   UNL     1       0.290  11.722  19.814  0.00  0.00    +0.000 A 
ATOM     12  N   UNL     1       0.851  10.454  19.585  0.00  0.00    +0.000 N 
ATOM     13  C   UNL     1       1.055   9.492  20.561  0.00  0.00    +0.000 C 
ATOM     14  O   UNL     1       0.889   9.611  21.769  0.00  0.00    +0.000 OA
ATOM     15  N   UNL     1      -0.133  12.062  21.041  0.00  0.00    +0.000 NA
ATOM     16  C   UNL     1      -0.671  13.288  21.217  0.00  0.00    +0.000 A 
ATOM     17  H   UNL     1       1.154  10.265  18.643  0.00  0.00    +0.000 HD
ENDBRANCH   1  13
BRANCH   4  18
ATOM     18  N   UNL     1       3.227   4.531  18.711  0.00  0.00    +0.000 N 
ATOM     19  H   UNL     1       2.996   4.206  17.772  0.00  0.00    +0.000 HD
BRANCH  18  20
ATOM     20  S   UNL     1       4.883   4.289  19.008  0.00  0.00    +0.000 S 
ATOM     21  O   UNL     1       5.333   5.434  19.768  0.00  0.00    +0.000 OA
ATOM     22  O   UNL     1       5.063   2.951  19.536  0.00  0.00    +0.000 OA
BRANCH  20  23
ATOM     23  C   UNL     1       5.604   4.356  17.370  0.00  0.00    +0.000 A 
ATOM     24  C   UNL     1       4.722   4.153  16.291  0.00  0.00    +0.000 A 
ATOM     25  C   UNL     1       5.167   4.286  14.978  0.00  0.00    +0.000 A 
ATOM     26  C   UNL     1       6.496   4.601  14.743  0.00  0.00    +0.000 A 
ATOM     27  F   UNL     1       6.923   4.759  13.484  0.00  0.00    +0.000 F 
ATOM     28  C   UNL     1       7.393   4.756  15.796  0.00  0.00    +0.000 A 
ATOM     29  C   UNL     1       6.969   4.628  17.132  0.00  0.00    +0.000 A 
ATOM     30  C   UNL     1       8.006   4.745  18.214  0.00  0.00    +0.000 C 
ENDBRANCH  20  23
ENDBRANCH  18  20
ENDBRANCH   4  18
TORSDOF 4
ENDMDL
MODEL 5
REMARK VINA RESULT:      -8.2      1.995      2.593
REMARK  Name = 
REMARK  6 active torsions:
REMARK  status: ('A' for Active; 'I' for Inactive)
REMARK    1  A    between atoms: C_1  and  C_2
REMARK    2  A    between atoms: C_7  and  C_9
REMARK    3  A    between atoms: C_12  and  N_13
REMARK    4  A    between atoms: N_13  and  S_14
REMARK    5  A    between atoms: S_14  and  C_17
REMARK    6  A    between atoms: C_23  and  C_24
REMARK                            x       y       z     vdW  Elec       q    Type
REMARK                         _______ _______ _______ _____ _____    ______ ____
ROOT
ATOM      1  C   UNL     1       1.668   8.604  19.101  0.00  0.00    +0.000 A 
ATOM      2  C   UNL     1       1.598   7.682  20.159  0.00  0.00    +0.000 A 
ATOM      3  C   UNL     1       2.150   6.400  20.029  0.00  0.00    +0.000 A 
ATOM      4  C   UNL     1       2.785   6.042  18.841  0.00  0.00    +0.000 A 
ATOM      5  C   UNL     1       2.856   6.955  17.787  0.00  0.00    +0.000 A 
ATOM      6  C   UNL     1       2.290   8.227  17.907  0.00  0.00    +0.000 A 
ENDROOT
BRANCH   1  13
ATOM      7  C   UNL     1      -0.105  16.375  18.784  0.00  0.00    +0.000 C 
ATOM      8  C   UNL     1       0.435  14.981  18.799  0.00  0.00    +0.000 A 
ATOM      9  C   UNL     1       1.757  14.686  18.474  0.00  0.00    +0.000 A 
ATOM     10  C   UNL     1       2.196  13.358  18.513  0.00  0.00    +0.000 A 
ATOM     11  C   UNL     1       1.301  12.357  18.877  0.00  0.00    +0.000 A 
ATOM     12  N   UNL     1       1.765  11.031  18.900  0.00  0.00    +0.000 N 
ATOM     13  C   UNL     1       1.003   9.933  19.262  0.00  0.00    +0.000 C 
ATOM     14  O   UNL     1      -0.136   9.934  19.714  0.00  0.00    +0.000 OA
ATOM     15  N   UNL     1       0.023  12.631  19.181  0.00  0.00    +0.000 NA
ATOM     16  C   UNL     1      -0.384  13.917  19.143  0.00  0.00    +0.000 A 
ATOM     17  H   UNL     1       2.736  10.896  18.667  0.00  0.00    +0.000 HD
ENDBRANCH   1  13
BRANCH   4  18
ATOM     18  N   UNL     1       3.315   4.734  18.642  0.00  0.00    +0.000 N 
ATOM     19  H   UNL     1       3.072   4.269  17.767  0.00  0.00    +0.000 HD
BRANCH  18  20
ATOM     20  S   UNL     1       4.957   4.469  18.994  0.00  0.00    +0.000 S 
ATOM     21  O   UNL     1       5.381   5.575  19.823  0.00  0.00    +0.000 OA
ATOM     22  O   UNL     1       5.112   3.107  19.466  0.00  0.00    +0.000 OA
BRANCH  20  23
ATOM     23  C   UNL     1       5.743   4.607  17.390  0.00  0.00    +0.000 A 
ATOM     24  C   UNL     1       5.154   3.876  16.341  0.00  0.00    +0.000 A 
ATOM     25  C   UNL     1       5.630   3.998  15.037  0.00  0.00    +0.000 A 
ATOM     26  C   UNL     1       6.707   4.833  14.787  0.00  0.00    +0.000 A 
ATOM     27  F   UNL     1       7.151   4.977  13.532  0.00  0.00    +0.000 F 
ATOM     28  C   UNL     1       7.334   5.525  15.820  0.00  0.00    +0.000 A 
ATOM     29  C   UNL     1       6.872   5.420  17.145  0.00  0.00    +0.000 A 
ATOM     30  C   UNL     1       7.637   6.144  18.217  0.00  0.00    +0.000 C 
ENDBRANCH  20  23
ENDBRANCH  18  20
ENDBRANCH   4  18
TORSDOF 4
ENDMDL
MODEL 6
REMARK VINA RESULT:      -8.2      5.079      7.745
REMARK  Name = 
REMARK  6 active torsions:
REMARK  status: ('A' for Active; 'I' for Inactive)
REMARK    1  A    between atoms: C_1  and  C_2
REMARK    2  A    between atoms: C_7  and  C_9
REMARK    3  A    between atoms: C_12  and  N_13
REMARK    4  A    between atoms: N_13  and  S_14
REMARK    5  A    between atoms: S_14  and  C_17
REMARK    6  A    between atoms: C_23  and  C_24
REMARK                            x       y       z     vdW  Elec       q    Type
REMARK                         _______ _______ _______ _____ _____    ______ ____
ROOT
ATOM      1  C   UNL     1       7.627   7.232  18.028  0.00  0.00    +0.000 A 
ATOM      2  C   UNL     1       7.718   6.516  19.233  0.00  0.00    +0.000 A 
ATOM      3  C   UNL     1       7.086   5.273  19.377  0.00  0.00    +0.000 A 
ATOM      4  C   UNL     1       6.370   4.738  18.308  0.00  0.00    +0.000 A 
ATOM      5  C   UNL     1       6.276   5.448  17.108  0.00  0.00    +0.000 A 
ATOM      6  C   UNL     1       6.888   6.695  16.969  0.00  0.00    +0.000 A 
ENDROOT
BRANCH   1  13
ATOM      7  C   UNL     1      11.549  13.973  19.708  0.00  0.00    +0.000 C 
ATOM      8  C   UNL     1      10.794  12.686  19.613  0.00  0.00    +0.000 A 
ATOM      9  C   UNL     1      10.440  11.938  20.734  0.00  0.00    +0.000 A 
ATOM     10  C   UNL     1       9.731  10.744  20.570  0.00  0.00    +0.000 A 
ATOM     11  C   UNL     1       9.391  10.326  19.287  0.00  0.00    +0.000 A 
ATOM     12  N   UNL     1       8.685   9.119  19.151  0.00  0.00    +0.000 N 
ATOM     13  C   UNL     1       8.258   8.585  17.947  0.00  0.00    +0.000 C 
ATOM     14  O   UNL     1       8.321   9.104  16.839  0.00  0.00    +0.000 OA
ATOM     15  N   UNL     1       9.736  11.033  18.201  0.00  0.00    +0.000 NA
ATOM     16  C   UNL     1      10.418  12.186  18.376  0.00  0.00    +0.000 A 
ATOM     17  H   UNL     1       8.451   8.641  20.007  0.00  0.00    +0.000 HD
ENDBRANCH   1  13
BRANCH   4  18
ATOM     18  N   UNL     1       5.667   3.503  18.422  0.00  0.00    +0.000 N 
ATOM     19  H   UNL     1       5.752   3.009  19.311  0.00  0.00    +0.000 HD
BRANCH  18  20
ATOM     20  S   UNL     1       4.056   3.442  17.885  0.00  0.00    +0.000 S 
ATOM     21  O   UNL     1       4.052   3.984  16.543  0.00  0.00    +0.000 OA
ATOM     22  O   UNL     1       3.540   2.111  18.131  0.00  0.00    +0.000 OA
BRANCH  20  23
ATOM     23  C   UNL     1       3.219   4.588  18.979  0.00  0.00    +0.000 A 
ATOM     24  C   UNL     1       3.083   5.909  18.512  0.00  0.00    +0.000 A 
ATOM     25  C   UNL     1       2.359   6.848  19.244  0.00  0.00    +0.000 A 
ATOM     26  C   UNL     1       1.790   6.471  20.450  0.00  0.00    +0.000 A 
ATOM     27  F   UNL     1       1.069   7.360  21.145  0.00  0.00    +0.000 F 
ATOM     28  C   UNL     1       1.957   5.183  20.951  0.00  0.00    +0.000 A 
ATOM     29  C   UNL     1       2.682   4.215  20.230  0.00  0.00    +0.000 A 
ATOM     30  C   UNL     1       2.875   2.866  20.862  0.00  0.00    +0.000 C 
ENDBRANCH  20  23
ENDBRANCH  18  20
ENDBRANCH   4  18
TORSDOF 4
ENDMDL
MODEL 7
REMARK VINA RESULT:      -8.2      2.994      3.503
REMARK  Name = 
REMARK  6 active torsions:
REMARK  status: ('A' for Active; 'I' for Inactive)
REMARK    1  A    between atoms: C_1  and  C_2
REMARK    2  A    between atoms: C_7  and  C_9
REMARK    3  A    between atoms: C_12  and  N_13
REMARK    4  A    between atoms: N_13  and  S_14
REMARK    5  A    between atoms: S_14  and  C_17
REMARK    6  A    between atoms: C_23  and  C_24
REMARK                            x       y       z     vdW  Elec       q    Type
REMARK                         _______ _______ _______ _____ _____    ______ ____
ROOT
ATOM      1  C   UNL     1       1.329   8.750  18.758  0.00  0.00    +0.000 A 
ATOM      2  C   UNL     1       1.535   7.909  19.864  0.00  0.00    +0.000 A 
ATOM      3  C   UNL     1       2.599   6.997  19.883  0.00  0.00    +0.000 A 
ATOM      4  C   UNL     1       3.469   6.934  18.796  0.00  0.00    +0.000 A 
ATOM      5  C   UNL     1       3.267   7.767  17.693  0.00  0.00    +0.000 A 
ATOM      6  C   UNL     1       2.196   8.663  17.664  0.00  0.00    +0.000 A 
ENDROOT
BRANCH   1  13
ATOM      7  C   UNL     1      -5.561  12.344  16.959  0.00  0.00    +0.000 C 
ATOM      8  C   UNL     1      -4.272  11.599  17.087  0.00  0.00    +0.000 A 
ATOM      9  C   UNL     1      -3.761  10.803  16.064  0.00  0.00    +0.000 A 
ATOM     10  C   UNL     1      -2.546  10.135  16.251  0.00  0.00    +0.000 A 
ATOM     11  C   UNL     1      -1.870  10.281  17.459  0.00  0.00    +0.000 A 
ATOM     12  N   UNL     1      -0.656   9.593  17.623  0.00  0.00    +0.000 N 
ATOM     13  C   UNL     1       0.140   9.655  18.755  0.00  0.00    +0.000 C 
ATOM     14  O   UNL     1      -0.011  10.379  19.732  0.00  0.00    +0.000 OA
ATOM     15  N   UNL     1      -2.359  11.036  18.453  0.00  0.00    +0.000 NA
ATOM     16  C   UNL     1      -3.531  11.677  18.255  0.00  0.00    +0.000 A 
ATOM     17  H   UNL     1      -0.343   9.048  16.836  0.00  0.00    +0.000 HD
ENDBRANCH   1  13
BRANCH   4  18
ATOM     18  N   UNL     1       4.533   5.987  18.746  0.00  0.00    +0.000 N 
ATOM     19  H   UNL     1       5.065   5.849  19.605  0.00  0.00    +0.000 HD
BRANCH  18  20
ATOM     20  S   UNL     1       4.238   4.484  18.009  0.00  0.00    +0.000 S 
ATOM     21  O   UNL     1       4.709   3.476  18.934  0.00  0.00    +0.000 OA
ATOM     22  O   UNL     1       2.864   4.460  17.548  0.00  0.00    +0.000 OA
BRANCH  20  23
ATOM     23  C   UNL     1       5.317   4.513  16.579  0.00  0.00    +0.000 A 
ATOM     24  C   UNL     1       4.704   4.292  15.331  0.00  0.00    +0.000 A 
ATOM     25  C   UNL     1       5.439   4.396  14.152  0.00  0.00    +0.000 A 
ATOM     26  C   UNL     1       6.790   4.700  14.223  0.00  0.00    +0.000 A 
ATOM     27  F   UNL     1       7.496   4.830  13.093  0.00  0.00    +0.000 F 
ATOM     28  C   UNL     1       7.423   4.872  15.451  0.00  0.00    +0.000 A 
ATOM     29  C   UNL     1       6.703   4.774  16.656  0.00  0.00    +0.000 A 
ATOM     30  C   UNL     1       7.465   4.907  17.944  0.00  0.00    +0.000 C 
ENDBRANCH  20  23
ENDBRANCH  18  20
ENDBRANCH   4  18
TORSDOF 4
ENDMDL
MODEL 8
REMARK VINA RESULT:      -8.1      3.434      3.764
REMARK  Name = 
REMARK  6 active torsions:
REMARK  status: ('A' for Active; 'I' for Inactive)
REMARK    1  A    between atoms: C_1  and  C_2
REMARK    2  A    between atoms: C_7  and  C_9
REMARK    3  A    between atoms: C_12  and  N_13
REMARK    4  A    between atoms: N_13  and  S_14
REMARK    5  A    between atoms: S_14  and  C_17
REMARK    6  A    between atoms: C_23  and  C_24
REMARK                            x       y       z     vdW  Elec       q    Type
REMARK                         _______ _______ _______ _____ _____    ______ ____
ROOT
ATOM      1  C   UNL     1      -0.138   9.871  19.188  0.00  0.00    +0.000 A 
ATOM      2  C   UNL     1       0.394   9.727  17.895  0.00  0.00    +0.000 A 
ATOM      3  C   UNL     1       1.524   8.928  17.670  0.00  0.00    +0.000 A 
ATOM      4  C   UNL     1       2.118   8.261  18.739  0.00  0.00    +0.000 A 
ATOM      5  C   UNL     1       1.593   8.403  20.026  0.00  0.00    +0.000 A 
ATOM      6  C   UNL     1       0.479   9.214  20.257  0.00  0.00    +0.000 A 
ENDROOT
BRANCH   1  13
ATOM      7  C   UNL     1      -7.154  13.610  18.531  0.00  0.00    +0.000 C 
ATOM      8  C   UNL     1      -5.872  12.845  18.445  0.00  0.00    +0.000 A 
ATOM      9  C   UNL     1      -5.528  12.082  17.332  0.00  0.00    +0.000 A 
ATOM     10  C   UNL     1      -4.310  11.393  17.318  0.00  0.00    +0.000 A 
ATOM     11  C   UNL     1      -3.464  11.486  18.419  0.00  0.00    +0.000 A 
ATOM     12  N   UNL     1      -2.252  10.778  18.382  0.00  0.00    +0.000 N 
ATOM     13  C   UNL     1      -1.299  10.790  19.388  0.00  0.00    +0.000 C 
ATOM     14  O   UNL     1      -1.296  11.478  20.402  0.00  0.00    +0.000 OA
ATOM     15  N   UNL     1      -3.792  12.210  19.500  0.00  0.00    +0.000 NA
ATOM     16  C   UNL     1      -4.969  12.872  19.496  0.00  0.00    +0.000 A 
ATOM     17  H   UNL     1      -2.064  10.260  17.539  0.00  0.00    +0.000 HD
ENDBRANCH   1  13
BRANCH   4  18
ATOM     18  N   UNL     1       3.298   7.480  18.570  0.00  0.00    +0.000 N 
ATOM     19  H   UNL     1       4.112   7.755  19.120  0.00  0.00    +0.000 HD
BRANCH  18  20
ATOM     20  S   UNL     1       3.150   5.787  18.575  0.00  0.00    +0.000 S 
ATOM     21  O   UNL     1       3.679   5.334  19.843  0.00  0.00    +0.000 OA
ATOM     22  O   UNL     1       1.795   5.443  18.190  0.00  0.00    +0.000 OA
BRANCH  20  23
ATOM     23  C   UNL     1       4.260   5.278  17.264  0.00  0.00    +0.000 A 
ATOM     24  C   UNL     1       4.861   6.311  16.520  0.00  0.00    +0.000 A 
ATOM     25  C   UNL     1       5.816   6.020  15.548  0.00  0.00    +0.000 A 
ATOM     26  C   UNL     1       6.154   4.698  15.307  0.00  0.00    +0.000 A 
ATOM     27  F   UNL     1       7.091   4.413  14.394  0.00  0.00    +0.000 F 
ATOM     28  C   UNL     1       5.533   3.661  15.998  0.00  0.00    +0.000 A 
ATOM     29  C   UNL     1       4.566   3.928  16.986  0.00  0.00    +0.000 A 
ATOM     30  C   UNL     1       3.893   2.758  17.645  0.00  0.00    +0.000 C 
ENDBRANCH  20  23
ENDBRANCH  18  20
ENDBRANCH   4  18
TORSDOF 4
ENDMDL
MODEL 9
REMARK VINA RESULT:      -8.0      3.454      3.916
REMARK  Name = 
REMARK  6 active torsions:
REMARK  status: ('A' for Active; 'I' for Inactive)
REMARK    1  A    between atoms: C_1  and  C_2
REMARK    2  A    between atoms: C_7  and  C_9
REMARK    3  A    between atoms: C_12  and  N_13
REMARK    4  A    between atoms: N_13  and  S_14
REMARK    5  A    between atoms: S_14  and  C_17
REMARK    6  A    between atoms: C_23  and  C_24
REMARK                            x       y       z     vdW  Elec       q    Type
REMARK                         _______ _______ _______ _____ _____    ______ ____
ROOT
ATOM      1  C   UNL     1       0.110   9.646  19.495  0.00  0.00    +0.000 A 
ATOM      2  C   UNL     1       0.399   8.963  20.689  0.00  0.00    +0.000 A 
ATOM      3  C   UNL     1       1.465   8.055  20.755  0.00  0.00    +0.000 A 
ATOM      4  C   UNL     1       2.253   7.837  19.627  0.00  0.00    +0.000 A 
ATOM      5  C   UNL     1       1.969   8.512  18.438  0.00  0.00    +0.000 A 
ATOM      6  C   UNL     1       0.895   9.403  18.364  0.00  0.00    +0.000 A 
ENDROOT
BRANCH   1  13
ATOM      7  C   UNL     1      -6.832  13.096  17.616  0.00  0.00    +0.000 C 
ATOM      8  C   UNL     1      -5.539  12.361  17.765  0.00  0.00    +0.000 A 
ATOM      9  C   UNL     1      -5.057  11.486  16.794  0.00  0.00    +0.000 A 
ATOM     10  C   UNL     1      -3.837  10.833  16.999  0.00  0.00    +0.000 A 
ATOM     11  C   UNL     1      -3.126  11.073  18.171  0.00  0.00    +0.000 A 
ATOM     12  N   UNL     1      -1.908  10.398  18.355  0.00  0.00    +0.000 N 
ATOM     13  C   UNL     1      -1.079  10.549  19.455  0.00  0.00    +0.000 C 
ATOM     14  O   UNL     1      -1.203  11.348  20.376  0.00  0.00    +0.000 OA
ATOM     15  N   UNL     1      -3.588  11.906  19.116  0.00  0.00    +0.000 NA
ATOM     16  C   UNL     1      -4.765  12.530  18.902  0.00  0.00    +0.000 A 
ATOM     17  H   UNL     1      -1.616   9.793  17.604  0.00  0.00    +0.000 HD
ENDBRANCH   1  13
BRANCH   4  18
ATOM     18  N   UNL     1       3.315   6.886  19.629  0.00  0.00    +0.000 N 
ATOM     19  H   UNL     1       3.903   6.858  20.462  0.00  0.00    +0.000 HD
BRANCH  18  20
ATOM     20  S   UNL     1       2.975   5.301  19.116  0.00  0.00    +0.000 S 
ATOM     21  O   UNL     1       3.508   4.420  20.131  0.00  0.00    +0.000 OA
ATOM     22  O   UNL     1       1.574   5.227  18.753  0.00  0.00    +0.000 OA
BRANCH  20  23
ATOM     23  C   UNL     1       3.958   5.137  17.627  0.00  0.00    +0.000 A 
ATOM     24  C   UNL     1       4.454   6.333  17.072  0.00  0.00    +0.000 A 
ATOM     25  C   UNL     1       5.311   6.302  15.975  0.00  0.00    +0.000 A 
ATOM     26  C   UNL     1       5.656   5.080  15.420  0.00  0.00    +0.000 A 
ATOM     27  F   UNL     1       6.501   5.041  14.383  0.00  0.00    +0.000 F 
ATOM     28  C   UNL     1       5.134   3.891  15.924  0.00  0.00    +0.000 A 
ATOM     29  C   UNL     1       4.267   3.894  17.033  0.00  0.00    +0.000 A 
ATOM     30  C   UNL     1       3.694   2.580  17.482  0.00  0.00    +0.000 C 
ENDBRANCH  20  23
ENDBRANCH  18  20
ENDBRANCH   4  18
TORSDOF 4
ENDMDL
