MODEL 1
REMARK VINA RESULT:      -9.0      0.000      0.000
REMARK  Name = 
REMARK  7 active torsions:
REMARK  status: ('A' for Active; 'I' for Inactive)
REMARK    1  A    between atoms: C_1  and  O_2
REMARK    2  A    between atoms: O_2  and  C_3
REMARK    3  A    between atoms: C_10  and  C_11
REMARK    4  A    between atoms: C_11  and  C_12
REMARK    5  A    between atoms: N_14  and  C_15
REMARK    6  A    between atoms: C_19  and  C_20
REMARK    7  A    between atoms: C_23  and  C_24
REMARK                            x       y       z     vdW  Elec       q    Type
REMARK                         _______ _______ _______ _____ _____    ______ ____
ROOT
ATOM      1  C   UNL     1       1.880   8.260  18.835  0.00  0.00    +0.000 C 
ATOM      2  O   UNL     1       1.938   8.302  17.606  0.00  0.00    +0.000 OA
ATOM      3  N   UNL     1       1.218   9.166  19.653  0.00  0.00    +0.000 N 
ATOM      4  H   UNL     1       1.296   9.029  20.653  0.00  0.00    +0.000 HD
ENDROOT
BRANCH   3   5
ATOM      5  C   UNL     1       0.469  10.298  19.247  0.00  0.00    +0.000 A 
ATOM      6  C   UNL     1       0.781  11.604  19.638  0.00  0.00    +0.000 A 
ATOM      7  C   UNL     1       0.004  12.683  19.216  0.00  0.00    +0.000 A 
ATOM      8  C   UNL     1      -1.087  12.474  18.379  0.00  0.00    +0.000 A 
ATOM      9  C   UNL     1      -1.414  11.182  17.948  0.00  0.00    +0.000 A 
ATOM     10  C   UNL     1      -0.636  10.097  18.400  0.00  0.00    +0.000 A 
BRANCH   9  11
ATOM     11  C   UNL     1      -2.530  10.984  17.026  0.00  0.00    +0.000 A 
ATOM     12  N   UNL     1      -3.795  11.351  17.296  0.00  0.00    +0.000 NA
ATOM     13  N   UNL     1      -4.436  11.015  16.170  0.00  0.00    +0.000 N 
ATOM     14  C   UNL     1      -3.589  10.454  15.261  0.00  0.00    +0.000 A 
ATOM     15  C   UNL     1      -4.024   9.985  13.932  0.00  0.00    +0.000 C 
ATOM     16  N   UNL     1      -2.377  10.422  15.773  0.00  0.00    +0.000 NA
ATOM     17  H   UNL     1      -5.431  11.199  16.091  0.00  0.00    +0.000 HD
ENDBRANCH   9  11
ENDBRANCH   3   5
BRANCH   1  18
ATOM     18  C   UNL     1       2.571   7.124  19.582  0.00  0.00    +0.000 C 
BRANCH  18  26
ATOM     19  C   UNL     1       5.956   6.305  16.820  0.00  0.00    +0.000 A 
ATOM     20  C   UNL     1       5.901   5.195  15.986  0.00  0.00    +0.000 A 
ATOM     21  C   UNL     1       4.838   4.300  16.096  0.00  0.00    +0.000 A 
ATOM     22  C   UNL     1       3.804   4.512  17.020  0.00  0.00    +0.000 A 
ATOM     23  C   UNL     1       2.758   3.584  17.113  0.00  0.00    +0.000 A 
ATOM     24  C   UNL     1       1.708   3.783  18.002  0.00  0.00    +0.000 A 
ATOM     25  C   UNL     1       1.681   4.925  18.794  0.00  0.00    +0.000 A 
ATOM     26  C   UNL     1       2.721   5.874  18.738  0.00  0.00    +0.000 A 
ATOM     27  C   UNL     1       3.820   5.657  17.858  0.00  0.00    +0.000 A 
ATOM     28  C   UNL     1       4.939   6.515  17.756  0.00  0.00    +0.000 A 
BRANCH  19  30
ATOM     29  C   UNL     1       7.762   7.242  18.013  0.00  0.00    +0.000 C 
ATOM     30  O   UNL     1       6.963   7.231  16.834  0.00  0.00    +0.000 OA
ENDBRANCH  19  30
ENDBRANCH  18  26
ENDBRANCH   1  18
TORSDOF 5
ENDMDL
MODEL 2
REMARK VINA RESULT:      -8.8      1.786      2.099
REMARK  Name = 
REMARK  7 active torsions:
REMARK  status: ('A' for Active; 'I' for Inactive)
REMARK    1  A    between atoms: C_1  and  O_2
REMARK    2  A    between atoms: O_2  and  C_3
REMARK    3  A    between atoms: C_10  and  C_11
REMARK    4  A    between atoms: C_11  and  C_12
REMARK    5  A    between atoms: N_14  and  C_15
REMARK    6  A    between atoms: C_19  and  C_20
REMARK    7  A    between atoms: C_23  and  C_24
REMARK                            x       y       z     vdW  Elec       q    Type
REMARK                         _______ _______ _______ _____ _____    ______ ____
ROOT
ATOM      1  C   UNL     1       1.834   7.149  20.457  0.00  0.00    +0.000 C 
ATOM      2  O   UNL     1       2.074   7.644  19.355  0.00  0.00    +0.000 OA
ATOM      3  N   UNL     1       1.061   7.721  21.460  0.00  0.00    +0.000 N 
ATOM      4  H   UNL     1       0.989   7.216  22.333  0.00  0.00    +0.000 HD
ENDROOT
BRANCH   3   5
ATOM      5  C   UNL     1       0.385   8.965  21.414  0.00  0.00    +0.000 A 
ATOM      6  C   UNL     1       0.215   9.787  22.532  0.00  0.00    +0.000 A 
ATOM      7  C   UNL     1      -0.467  10.999  22.435  0.00  0.00    +0.000 A 
ATOM      8  C   UNL     1      -0.974  11.419  21.209  0.00  0.00    +0.000 A 
ATOM      9  C   UNL     1      -0.802  10.633  20.063  0.00  0.00    +0.000 A 
ATOM     10  C   UNL     1      -0.131   9.399  20.179  0.00  0.00    +0.000 A 
BRANCH   9  11
ATOM     11  C   UNL     1      -1.292  11.112  18.773  0.00  0.00    +0.000 A 
ATOM     12  N   UNL     1      -1.014  12.328  18.273  0.00  0.00    +0.000 NA
ATOM     13  N   UNL     1      -1.629  12.298  17.085  0.00  0.00    +0.000 N 
ATOM     14  C   UNL     1      -2.267  11.109  16.884  0.00  0.00    +0.000 A 
ATOM     15  C   UNL     1      -3.030  10.799  15.661  0.00  0.00    +0.000 C 
ATOM     16  N   UNL     1      -2.070  10.339  17.932  0.00  0.00    +0.000 NA
ATOM     17  H   UNL     1      -1.568  13.105  16.473  0.00  0.00    +0.000 HD
ENDBRANCH   9  11
ENDBRANCH   3   5
BRANCH   1  18
ATOM     18  C   UNL     1       2.401   5.776  20.805  0.00  0.00    +0.000 C 
BRANCH  18  26
ATOM     19  C   UNL     1       5.988   5.365  18.211  0.00  0.00    +0.000 A 
ATOM     20  C   UNL     1       5.905   4.612  17.048  0.00  0.00    +0.000 A 
ATOM     21  C   UNL     1       4.732   3.914  16.760  0.00  0.00    +0.000 A 
ATOM     22  C   UNL     1       3.622   3.977  17.615  0.00  0.00    +0.000 A 
ATOM     23  C   UNL     1       2.465   3.252  17.301  0.00  0.00    +0.000 A 
ATOM     24  C   UNL     1       1.341   3.317  18.116  0.00  0.00    +0.000 A 
ATOM     25  C   UNL     1       1.354   4.129  19.245  0.00  0.00    +0.000 A 
ATOM     26  C   UNL     1       2.503   4.862  19.600  0.00  0.00    +0.000 A 
ATOM     27  C   UNL     1       3.671   4.769  18.791  0.00  0.00    +0.000 A 
ATOM     28  C   UNL     1       4.893   5.421  19.078  0.00  0.00    +0.000 A 
BRANCH  19  30
ATOM     29  C   UNL     1       7.581   7.027  17.696  0.00  0.00    +0.000 C 
ATOM     30  O   UNL     1       7.093   6.061  18.621  0.00  0.00    +0.000 OA
ENDBRANCH  19  30
ENDBRANCH  18  26
ENDBRANCH   1  18
TORSDOF 5
ENDMDL
MODEL 3
REMARK VINA RESULT:      -8.8      3.251      4.849
REMARK  Name = 
REMARK  7 active torsions:
REMARK  status: ('A' for Active; 'I' for Inactive)
REMARK    1  A    between atoms: C_1  and  O_2
REMARK    2  A    between atoms: O_2  and  C_3
REMARK    3  A    between atoms: C_10  and  C_11
REMARK    4  A    between atoms: C_11  and  C_12
REMARK    5  A    between atoms: N_14  and  C_15
REMARK    6  A    between atoms: C_19  and  C_20
REMARK    7  A    between atoms: C_23  and  C_24
REMARK                            x       y       z     vdW  Elec       q    Type
REMARK                         _______ _______ _______ _____ _____    ______ ____
ROOT
ATOM      1  C   UNL     1       2.523   5.365  18.290  0.00  0.00    +0.000 C 
ATOM      2  O   UNL     1       1.437   5.147  17.754  0.00  0.00    +0.000 OA
ATOM      3  N   UNL     1       2.948   6.580  18.812  0.00  0.00    +0.000 N 
ATOM      4  H   UNL     1       3.889   6.620  19.183  0.00  0.00    +0.000 HD
ENDROOT
BRANCH   3   5
ATOM      5  C   UNL     1       2.223   7.796  18.850  0.00  0.00    +0.000 A 
ATOM      6  C   UNL     1       2.103   8.652  17.751  0.00  0.00    +0.000 A 
ATOM      7  C   UNL     1       1.383   9.843  17.844  0.00  0.00    +0.000 A 
ATOM      8  C   UNL     1       0.754  10.187  19.037  0.00  0.00    +0.000 A 
ATOM      9  C   UNL     1       0.833   9.343  20.151  0.00  0.00    +0.000 A 
ATOM     10  C   UNL     1       1.582   8.153  20.052  0.00  0.00    +0.000 A 
BRANCH   9  11
ATOM     11  C   UNL     1       0.123   9.691  21.379  0.00  0.00    +0.000 A 
ATOM     12  N   UNL     1       0.184   8.965  22.508  0.00  0.00    +0.000 NA
ATOM     13  N   UNL     1      -0.574   9.679  23.350  0.00  0.00    +0.000 N 
ATOM     14  C   UNL     1      -1.085  10.788  22.742  0.00  0.00    +0.000 A 
ATOM     15  C   UNL     1      -1.960  11.755  23.431  0.00  0.00    +0.000 C 
ATOM     16  N   UNL     1      -0.661  10.824  21.497  0.00  0.00    +0.000 NA
ATOM     17  H   UNL     1      -0.692   9.359  24.305  0.00  0.00    +0.000 HD
ENDBRANCH   9  11
ENDBRANCH   3   5
BRANCH   1  18
ATOM     18  C   UNL     1       3.532   4.230  18.434  0.00  0.00    +0.000 C 
BRANCH  18  26
ATOM     19  C   UNL     1       5.648   4.305  14.525  0.00  0.00    +0.000 A 
ATOM     20  C   UNL     1       7.005   4.600  14.491  0.00  0.00    +0.000 A 
ATOM     21  C   UNL     1       7.663   4.965  15.665  0.00  0.00    +0.000 A 
ATOM     22  C   UNL     1       6.983   5.019  16.891  0.00  0.00    +0.000 A 
ATOM     23  C   UNL     1       7.672   5.403  18.049  0.00  0.00    +0.000 A 
ATOM     24  C   UNL     1       7.029   5.439  19.280  0.00  0.00    +0.000 A 
ATOM     25  C   UNL     1       5.692   5.068  19.372  0.00  0.00    +0.000 A 
ATOM     26  C   UNL     1       4.963   4.689  18.228  0.00  0.00    +0.000 A 
ATOM     27  C   UNL     1       5.604   4.687  16.957  0.00  0.00    +0.000 A 
ATOM     28  C   UNL     1       4.958   4.372  15.739  0.00  0.00    +0.000 A 
BRANCH  19  30
ATOM     29  C   UNL     1       5.570   3.257  12.414  0.00  0.00    +0.000 C 
ATOM     30  O   UNL     1       4.887   3.973  13.438  0.00  0.00    +0.000 OA
ENDBRANCH  19  30
ENDBRANCH  18  26
ENDBRANCH   1  18
TORSDOF 5
ENDMDL
MODEL 4
REMARK VINA RESULT:      -8.8      1.005      1.268
REMARK  Name = 
REMARK  7 active torsions:
REMARK  status: ('A' for Active; 'I' for Inactive)
REMARK    1  A    between atoms: C_1  and  O_2
REMARK    2  A    between atoms: O_2  and  C_3
REMARK    3  A    between atoms: C_10  and  C_11
REMARK    4  A    between atoms: C_11  and  C_12
REMARK    5  A    between atoms: N_14  and  C_15
REMARK    6  A    between atoms: C_19  and  C_20
REMARK    7  A    between atoms: C_23  and  C_24
REMARK                            x       y       z     vdW  Elec       q    Type
REMARK                         _______ _______ _______ _____ _____    ______ ____
ROOT
ATOM      1  C   UNL     1       2.058   8.199  18.793  0.00  0.00    +0.000 C 
ATOM      2  O   UNL     1       2.237   8.277  17.578  0.00  0.00    +0.000 OA
ATOM      3  N   UNL     1       1.369   9.116  19.579  0.00  0.00    +0.000 N 
ATOM      4  H   UNL     1       1.342   8.942  20.575  0.00  0.00    +0.000 HD
ENDROOT
BRANCH   3   5
ATOM      5  C   UNL     1       0.727  10.301  19.146  0.00  0.00    +0.000 A 
ATOM      6  C   UNL     1       1.347  11.554  19.149  0.00  0.00    +0.000 A 
ATOM      7  C   UNL     1       0.666  12.693  18.721  0.00  0.00    +0.000 A 
ATOM      8  C   UNL     1      -0.644  12.592  18.262  0.00  0.00    +0.000 A 
ATOM      9  C   UNL     1      -1.289  11.350  18.222  0.00  0.00    +0.000 A 
ATOM     10  C   UNL     1      -0.598  10.210  18.680  0.00  0.00    +0.000 A 
BRANCH   9  11
ATOM     11  C   UNL     1      -2.644  11.251  17.688  0.00  0.00    +0.000 A 
ATOM     12  N   UNL     1      -2.926  10.847  16.437  0.00  0.00    +0.000 NA
ATOM     13  N   UNL     1      -4.264  10.878  16.420  0.00  0.00    +0.000 N 
ATOM     14  C   UNL     1      -4.769  11.300  17.615  0.00  0.00    +0.000 A 
ATOM     15  C   UNL     1      -6.213  11.434  17.880  0.00  0.00    +0.000 C 
ATOM     16  N   UNL     1      -3.769  11.542  18.436  0.00  0.00    +0.000 NA
ATOM     17  H   UNL     1      -4.757  10.598  15.579  0.00  0.00    +0.000 HD
ENDBRANCH   9  11
ENDBRANCH   3   5
BRANCH   1  18
ATOM     18  C   UNL     1       2.609   7.001  19.560  0.00  0.00    +0.000 C 
BRANCH  18  26
ATOM     19  C   UNL     1       6.051   6.166  16.874  0.00  0.00    +0.000 A 
ATOM     20  C   UNL     1       5.996   5.077  16.014  0.00  0.00    +0.000 A 
ATOM     21  C   UNL     1       4.909   4.204  16.074  0.00  0.00    +0.000 A 
ATOM     22  C   UNL     1       3.855   4.419  16.974  0.00  0.00    +0.000 A 
ATOM     23  C   UNL     1       2.786   3.514  17.016  0.00  0.00    +0.000 A 
ATOM     24  C   UNL     1       1.716   3.718  17.880  0.00  0.00    +0.000 A 
ATOM     25  C   UNL     1       1.693   4.842  18.697  0.00  0.00    +0.000 A 
ATOM     26  C   UNL     1       2.755   5.767  18.691  0.00  0.00    +0.000 A 
ATOM     27  C   UNL     1       3.873   5.545  17.838  0.00  0.00    +0.000 A 
ATOM     28  C   UNL     1       5.014   6.379  17.786  0.00  0.00    +0.000 A 
BRANCH  19  30
ATOM     29  C   UNL     1       7.823   7.057  18.151  0.00  0.00    +0.000 C 
ATOM     30  O   UNL     1       7.079   7.068  16.937  0.00  0.00    +0.000 OA
ENDBRANCH  19  30
ENDBRANCH  18  26
ENDBRANCH   1  18
TORSDOF 5
ENDMDL
MODEL 5
REMARK VINA RESULT:      -8.7      1.102      1.246
REMARK  Name = 
REMARK  7 active torsions:
REMARK  status: ('A' for Active; 'I' for Inactive)
REMARK    1  A    between atoms: C_1  and  O_2
REMARK    2  A    between atoms: O_2  and  C_3
REMARK    3  A    between atoms: C_10  and  C_11
REMARK    4  A    between atoms: C_11  and  C_12
REMARK    5  A    between atoms: N_14  and  C_15
REMARK    6  A    between atoms: C_19  and  C_20
REMARK    7  A    between atoms: C_23  and  C_24
REMARK                            x       y       z     vdW  Elec       q    Type
REMARK                         _______ _______ _______ _____ _____    ______ ____
ROOT
ATOM      1  C   UNL     1       2.048   7.577  19.738  0.00  0.00    +0.000 C 
ATOM      2  O   UNL     1       2.176   7.906  18.559  0.00  0.00    +0.000 OA
ATOM      3  N   UNL     1       1.350   8.280  20.712  0.00  0.00    +0.000 N 
ATOM      4  H   UNL     1       1.369   7.908  21.653  0.00  0.00    +0.000 HD
ENDROOT
BRANCH   3   5
ATOM      5  C   UNL     1       0.639   9.493  20.547  0.00  0.00    +0.000 A 
ATOM      6  C   UNL     1       0.784  10.590  21.402  0.00  0.00    +0.000 A 
ATOM      7  C   UNL     1       0.052  11.759  21.200  0.00  0.00    +0.000 A 
ATOM      8  C   UNL     1      -0.825  11.858  20.124  0.00  0.00    +0.000 A 
ATOM      9  C   UNL     1      -0.978  10.788  19.233  0.00  0.00    +0.000 A 
ATOM     10  C   UNL     1      -0.250   9.602  19.462  0.00  0.00    +0.000 A 
BRANCH   9  11
ATOM     11  C   UNL     1      -1.861  10.925  18.078  0.00  0.00    +0.000 A 
ATOM     12  N   UNL     1      -2.818  11.864  17.978  0.00  0.00    +0.000 NA
ATOM     13  N   UNL     1      -3.324  11.628  16.761  0.00  0.00    +0.000 N 
ATOM     14  C   UNL     1      -2.701  10.576  16.157  0.00  0.00    +0.000 A 
ATOM     15  C   UNL     1      -3.058  10.091  14.811  0.00  0.00    +0.000 C 
ATOM     16  N   UNL     1      -1.771  10.113  16.964  0.00  0.00    +0.000 NA
ATOM     17  H   UNL     1      -4.073  12.216  16.412  0.00  0.00    +0.000 HD
ENDBRANCH   9  11
ENDBRANCH   3   5
BRANCH   1  18
ATOM     18  C   UNL     1       2.682   6.279  20.230  0.00  0.00    +0.000 C 
BRANCH  18  26
ATOM     19  C   UNL     1       6.098   5.524  17.488  0.00  0.00    +0.000 A 
ATOM     20  C   UNL     1       5.951   4.613  16.451  0.00  0.00    +0.000 A 
ATOM     21  C   UNL     1       4.773   3.874  16.342  0.00  0.00    +0.000 A 
ATOM     22  C   UNL     1       3.719   4.052  17.252  0.00  0.00    +0.000 A 
ATOM     23  C   UNL     1       2.555   3.283  17.120  0.00  0.00    +0.000 A 
ATOM     24  C   UNL     1       1.486   3.458  17.991  0.00  0.00    +0.000 A 
ATOM     25  C   UNL     1       1.560   4.421  18.991  0.00  0.00    +0.000 A 
ATOM     26  C   UNL     1       2.719   5.204  19.162  0.00  0.00    +0.000 A 
ATOM     27  C   UNL     1       3.833   5.004  18.298  0.00  0.00    +0.000 A 
ATOM     28  C   UNL     1       5.061   5.696  18.409  0.00  0.00    +0.000 A 
BRANCH  19  30
ATOM     29  C   UNL     1       7.875   6.020  18.959  0.00  0.00    +0.000 C 
ATOM     30  O   UNL     1       7.217   6.277  17.722  0.00  0.00    +0.000 OA
ENDBRANCH  19  30
ENDBRANCH  18  26
ENDBRANCH   1  18
TORSDOF 5
ENDMDL
MODEL 6
REMARK VINA RESULT:      -8.7      1.852      3.303
REMARK  Name = 
REMARK  7 active torsions:
REMARK  status: ('A' for Active; 'I' for Inactive)
REMARK    1  A    between atoms: C_1  and  O_2
REMARK    2  A    between atoms: O_2  and  C_3
REMARK    3  A    between atoms: C_10  and  C_11
REMARK    4  A    between atoms: C_11  and  C_12
REMARK    5  A    between atoms: N_14  and  C_15
REMARK    6  A    between atoms: C_19  and  C_20
REMARK    7  A    between atoms: C_23  and  C_24
REMARK                            x       y       z     vdW  Elec       q    Type
REMARK                         _______ _______ _______ _____ _____    ______ ____
ROOT
ATOM      1  C   UNL     1       1.914   8.630  18.478  0.00  0.00    +0.000 C 
ATOM      2  O   UNL     1       2.031   8.733  17.257  0.00  0.00    +0.000 OA
ATOM      3  N   UNL     1       1.223   9.503  19.309  0.00  0.00    +0.000 N 
ATOM      4  H   UNL     1       1.251   9.314  20.303  0.00  0.00    +0.000 HD
ENDROOT
BRANCH   3   5
ATOM      5  C   UNL     1       0.509  10.664  18.926  0.00  0.00    +0.000 A 
ATOM      6  C   UNL     1       1.073  11.943  18.915  0.00  0.00    +0.000 A 
ATOM      7  C   UNL     1       0.322  13.056  18.538  0.00  0.00    +0.000 A 
ATOM      8  C   UNL     1      -1.004  12.903  18.145  0.00  0.00    +0.000 A 
ATOM      9  C   UNL     1      -1.595  11.634  18.120  0.00  0.00    +0.000 A 
ATOM     10  C   UNL     1      -0.833  10.520  18.527  0.00  0.00    +0.000 A 
BRANCH   9  11
ATOM     11  C   UNL     1      -2.971  11.482  17.654  0.00  0.00    +0.000 A 
ATOM     12  N   UNL     1      -3.302  11.202  16.382  0.00  0.00    +0.000 NA
ATOM     13  N   UNL     1      -4.636  11.120  16.443  0.00  0.00    +0.000 N 
ATOM     14  C   UNL     1      -5.093  11.358  17.707  0.00  0.00    +0.000 A 
ATOM     15  C   UNL     1      -6.523  11.337  18.065  0.00  0.00    +0.000 C 
ATOM     16  N   UNL     1      -4.064  11.588  18.493  0.00  0.00    +0.000 NA
ATOM     17  H   UNL     1      -5.160  10.898  15.604  0.00  0.00    +0.000 HD
ENDBRANCH   9  11
ENDBRANCH   3   5
BRANCH   1  18
ATOM     18  C   UNL     1       2.553   7.447  19.198  0.00  0.00    +0.000 C 
BRANCH  18  26
ATOM     19  C   UNL     1       2.027   3.033  19.193  0.00  0.00    +0.000 A 
ATOM     20  C   UNL     1       2.835   2.252  18.378  0.00  0.00    +0.000 A 
ATOM     21  C   UNL     1       3.729   2.864  17.500  0.00  0.00    +0.000 A 
ATOM     22  C   UNL     1       3.845   4.261  17.441  0.00  0.00    +0.000 A 
ATOM     23  C   UNL     1       4.744   4.843  16.538  0.00  0.00    +0.000 A 
ATOM     24  C   UNL     1       4.898   6.223  16.478  0.00  0.00    +0.000 A 
ATOM     25  C   UNL     1       4.170   7.037  17.337  0.00  0.00    +0.000 A 
ATOM     26  C   UNL     1       3.247   6.489  18.250  0.00  0.00    +0.000 A 
ATOM     27  C   UNL     1       3.055   5.079  18.290  0.00  0.00    +0.000 A 
ATOM     28  C   UNL     1       2.123   4.426  19.129  0.00  0.00    +0.000 A 
BRANCH  19  30
ATOM     29  C   UNL     1       1.434   2.640  21.442  0.00  0.00    +0.000 C 
ATOM     30  O   UNL     1       1.087   2.551  20.064  0.00  0.00    +0.000 OA
ENDBRANCH  19  30
ENDBRANCH  18  26
ENDBRANCH   1  18
TORSDOF 5
ENDMDL
MODEL 7
REMARK VINA RESULT:      -8.6      2.872      3.545
REMARK  Name = 
REMARK  7 active torsions:
REMARK  status: ('A' for Active; 'I' for Inactive)
REMARK    1  A    between atoms: C_1  and  O_2
REMARK    2  A    between atoms: O_2  and  C_3
REMARK    3  A    between atoms: C_10  and  C_11
REMARK    4  A    between atoms: C_11  and  C_12
REMARK    5  A    between atoms: N_14  and  C_15
REMARK    6  A    between atoms: C_19  and  C_20
REMARK    7  A    between atoms: C_23  and  C_24
REMARK                            x       y       z     vdW  Elec       q    Type
REMARK                         _______ _______ _______ _____ _____    ______ ____
ROOT
ATOM      1  C   UNL     1       2.041   7.817  19.452  0.00  0.00    +0.000 C 
ATOM      2  O   UNL     1       2.069   6.930  20.306  0.00  0.00    +0.000 OA
ATOM      3  N   UNL     1       1.406   9.047  19.571  0.00  0.00    +0.000 N 
ATOM      4  H   UNL     1       1.431   9.659  18.766  0.00  0.00    +0.000 HD
ENDROOT
BRANCH   3   5
ATOM      5  C   UNL     1       0.685   9.532  20.689  0.00  0.00    +0.000 A 
ATOM      6  C   UNL     1       0.865   9.046  21.988  0.00  0.00    +0.000 A 
ATOM      7  C   UNL     1       0.121   9.553  23.053  0.00  0.00    +0.000 A 
ATOM      8  C   UNL     1      -0.803  10.571  22.838  0.00  0.00    +0.000 A 
ATOM      9  C   UNL     1      -0.993  11.098  21.555  0.00  0.00    +0.000 A 
ATOM     10  C   UNL     1      -0.252  10.562  20.482  0.00  0.00    +0.000 A 
BRANCH   9  11
ATOM     11  C   UNL     1      -1.927  12.203  21.354  0.00  0.00    +0.000 A 
ATOM     12  N   UNL     1      -1.977  12.943  20.233  0.00  0.00    +0.000 NA
ATOM     13  N   UNL     1      -2.988  13.783  20.489  0.00  0.00    +0.000 N 
ATOM     14  C   UNL     1      -3.517  13.564  21.727  0.00  0.00    +0.000 A 
ATOM     15  C   UNL     1      -4.640  14.346  22.275  0.00  0.00    +0.000 C 
ATOM     16  N   UNL     1      -2.868  12.571  22.296  0.00  0.00    +0.000 NA
ATOM     17  H   UNL     1      -3.260  14.461  19.787  0.00  0.00    +0.000 HD
ENDBRANCH   9  11
ENDBRANCH   3   5
BRANCH   1  18
ATOM     18  C   UNL     1       2.766   7.608  18.126  0.00  0.00    +0.000 C 
BRANCH  18  26
ATOM     19  C   UNL     1       6.594   5.911  16.634  0.00  0.00    +0.000 A 
ATOM     20  C   UNL     1       6.641   4.580  16.239  0.00  0.00    +0.000 A 
ATOM     21  C   UNL     1       5.519   3.769  16.408  0.00  0.00    +0.000 A 
ATOM     22  C   UNL     1       4.331   4.279  16.951  0.00  0.00    +0.000 A 
ATOM     23  C   UNL     1       3.227   3.432  17.119  0.00  0.00    +0.000 A 
ATOM     24  C   UNL     1       2.029   3.918  17.629  0.00  0.00    +0.000 A 
ATOM     25  C   UNL     1       1.914   5.264  17.957  0.00  0.00    +0.000 A 
ATOM     26  C   UNL     1       3.005   6.143  17.814  0.00  0.00    +0.000 A 
ATOM     27  C   UNL     1       4.248   5.645  17.329  0.00  0.00    +0.000 A 
ATOM     28  C   UNL     1       5.419   6.424  17.192  0.00  0.00    +0.000 A 
BRANCH  19  30
ATOM     29  C   UNL     1       7.650   7.810  17.552  0.00  0.00    +0.000 C 
ATOM     30  O   UNL     1       7.638   6.793  16.556  0.00  0.00    +0.000 OA
ENDBRANCH  19  30
ENDBRANCH  18  26
ENDBRANCH   1  18
TORSDOF 5
ENDMDL
MODEL 8
REMARK VINA RESULT:      -8.5      3.195      4.306
REMARK  Name = 
REMARK  7 active torsions:
REMARK  status: ('A' for Active; 'I' for Inactive)
REMARK    1  A    between atoms: C_1  and  O_2
REMARK    2  A    between atoms: O_2  and  C_3
REMARK    3  A    between atoms: C_10  and  C_11
REMARK    4  A    between atoms: C_11  and  C_12
REMARK    5  A    between atoms: N_14  and  C_15
REMARK    6  A    between atoms: C_19  and  C_20
REMARK    7  A    between atoms: C_23  and  C_24
REMARK                            x       y       z     vdW  Elec       q    Type
REMARK                         _______ _______ _______ _____ _____    ______ ____
ROOT
ATOM      1  C   UNL     1       2.096   7.951  19.470  0.00  0.00    +0.000 C 
ATOM      2  O   UNL     1       2.386   7.200  20.402  0.00  0.00    +0.000 OA
ATOM      3  N   UNL     1       1.243   9.045  19.537  0.00  0.00    +0.000 N 
ATOM      4  H   UNL     1       1.064   9.545  18.675  0.00  0.00    +0.000 HD
ENDROOT
BRANCH   3   5
ATOM      5  C   UNL     1       0.555   9.526  20.678  0.00  0.00    +0.000 A 
ATOM      6  C   UNL     1       0.137   8.699  21.725  0.00  0.00    +0.000 A 
ATOM      7  C   UNL     1      -0.546   9.222  22.823  0.00  0.00    +0.000 A 
ATOM      8  C   UNL     1      -0.803  10.587  22.900  0.00  0.00    +0.000 A 
ATOM      9  C   UNL     1      -0.378  11.449  21.881  0.00  0.00    +0.000 A 
ATOM     10  C   UNL     1       0.290  10.905  20.765  0.00  0.00    +0.000 A 
BRANCH   9  11
ATOM     11  C   UNL     1      -0.608  12.886  22.001  0.00  0.00    +0.000 A 
ATOM     12  N   UNL     1      -1.192  13.631  21.046  0.00  0.00    +0.000 NA
ATOM     13  N   UNL     1      -1.222  14.845  21.608  0.00  0.00    +0.000 N 
ATOM     14  C   UNL     1      -0.664  14.833  22.853  0.00  0.00    +0.000 A 
ATOM     15  C   UNL     1      -0.558  16.034  23.702  0.00  0.00    +0.000 C 
ATOM     16  N   UNL     1      -0.269  13.609  23.129  0.00  0.00    +0.000 NA
ATOM     17  H   UNL     1      -1.635  15.618  21.098  0.00  0.00    +0.000 HD
ENDBRANCH   9  11
ENDBRANCH   3   5
BRANCH   1  18
ATOM     18  C   UNL     1       2.710   7.714  18.094  0.00  0.00    +0.000 C 
BRANCH  18  26
ATOM     19  C   UNL     1       6.567   6.030  16.660  0.00  0.00    +0.000 A 
ATOM     20  C   UNL     1       6.631   4.693  16.292  0.00  0.00    +0.000 A 
ATOM     21  C   UNL     1       5.517   3.873  16.470  0.00  0.00    +0.000 A 
ATOM     22  C   UNL     1       4.319   4.381  16.995  0.00  0.00    +0.000 A 
ATOM     23  C   UNL     1       3.224   3.525  17.173  0.00  0.00    +0.000 A 
ATOM     24  C   UNL     1       2.018   4.007  17.666  0.00  0.00    +0.000 A 
ATOM     25  C   UNL     1       1.885   5.358  17.966  0.00  0.00    +0.000 A 
ATOM     26  C   UNL     1       2.968   6.246  17.813  0.00  0.00    +0.000 A 
ATOM     27  C   UNL     1       4.219   5.752  17.345  0.00  0.00    +0.000 A 
ATOM     28  C   UNL     1       5.383   6.541  17.200  0.00  0.00    +0.000 A 
BRANCH  19  30
ATOM     29  C   UNL     1       7.673   7.877  17.625  0.00  0.00    +0.000 C 
ATOM     30  O   UNL     1       7.601   6.923  16.570  0.00  0.00    +0.000 OA
ENDBRANCH  19  30
ENDBRANCH  18  26
ENDBRANCH   1  18
TORSDOF 5
ENDMDL
MODEL 9
REMARK VINA RESULT:      -8.5      1.552      3.000
REMARK  Name = 
REMARK  7 active torsions:
REMARK  status: ('A' for Active; 'I' for Inactive)
REMARK    1  A    between atoms: C_1  and  O_2
REMARK    2  A    between atoms: O_2  and  C_3
REMARK    3  A    between atoms: C_10  and  C_11
REMARK    4  A    between atoms: C_11  and  C_12
REMARK    5  A    between atoms: N_14  and  C_15
REMARK    6  A    between atoms: C_19  and  C_20
REMARK    7  A    between atoms: C_23  and  C_24
REMARK                            x       y       z     vdW  Elec       q    Type
REMARK                         _______ _______ _______ _____ _____    ______ ____
ROOT
ATOM      1  C   UNL     1       1.932   8.421  18.872  0.00  0.00    +0.000 C 
ATOM      2  O   UNL     1       2.018   8.682  17.673  0.00  0.00    +0.000 OA
ATOM      3  N   UNL     1       1.178   9.119  19.809  0.00  0.00    +0.000 N 
ATOM      4  H   UNL     1       1.240   8.814  20.772  0.00  0.00    +0.000 HD
ENDROOT
BRANCH   3   5
ATOM      5  C   UNL     1       0.354  10.246  19.574  0.00  0.00    +0.000 A 
ATOM      6  C   UNL     1       0.504  11.460  20.252  0.00  0.00    +0.000 A 
ATOM      7  C   UNL     1      -0.341  12.538  19.990  0.00  0.00    +0.000 A 
ATOM      8  C   UNL     1      -1.341  12.424  19.029  0.00  0.00    +0.000 A 
ATOM      9  C   UNL     1      -1.506  11.231  18.314  0.00  0.00    +0.000 A 
ATOM     10  C   UNL     1      -0.661  10.141  18.605  0.00  0.00    +0.000 A 
BRANCH   9  11
ATOM     11  C   UNL     1      -2.525  11.143  17.271  0.00  0.00    +0.000 A 
ATOM     12  N   UNL     1      -3.694  11.805  17.312  0.00  0.00    +0.000 NA
ATOM     13  N   UNL     1      -4.263  11.455  16.152  0.00  0.00    +0.000 N 
ATOM     14  C   UNL     1      -3.469  10.601  15.445  0.00  0.00    +0.000 A 
ATOM     15  C   UNL     1      -3.847  10.048  14.131  0.00  0.00    +0.000 C 
ATOM     16  N   UNL     1      -2.364  10.387  16.126  0.00  0.00    +0.000 NA
ATOM     17  H   UNL     1      -5.173  11.833  15.911  0.00  0.00    +0.000 HD
ENDBRANCH   9  11
ENDBRANCH   3   5
BRANCH   1  18
ATOM     18  C   UNL     1       2.689   7.225  19.439  0.00  0.00    +0.000 C 
BRANCH  18  26
ATOM     19  C   UNL     1       2.194   2.834  18.954  0.00  0.00    +0.000 A 
ATOM     20  C   UNL     1       2.975   2.159  18.025  0.00  0.00    +0.000 A 
ATOM     21  C   UNL     1       3.830   2.877  17.189  0.00  0.00    +0.000 A 
ATOM     22  C   UNL     1       3.934   4.273  17.284  0.00  0.00    +0.000 A 
ATOM     23  C   UNL     1       4.793   4.964  16.419  0.00  0.00    +0.000 A 
ATOM     24  C   UNL     1       4.935   6.343  16.510  0.00  0.00    +0.000 A 
ATOM     25  C   UNL     1       4.235   7.047  17.484  0.00  0.00    +0.000 A 
ATOM     26  C   UNL     1       3.352   6.388  18.363  0.00  0.00    +0.000 A 
ATOM     27  C   UNL     1       3.172   4.980  18.250  0.00  0.00    +0.000 A 
ATOM     28  C   UNL     1       2.278   4.226  19.045  0.00  0.00    +0.000 A 
BRANCH  19  30
ATOM     29  C   UNL     1       1.317   2.724  21.141  0.00  0.00    +0.000 C 
ATOM     30  O   UNL     1       1.292   2.246  19.800  0.00  0.00    +0.000 OA
ENDBRANCH  19  30
ENDBRANCH  18  26
ENDBRANCH   1  18
TORSDOF 5
ENDMDL
