MODEL 1
REMARK VINA RESULT:      -8.6      0.000      0.000
REMARK  Name = 
REMARK  6 active torsions:
REMARK  status: ('A' for Active; 'I' for Inactive)
REMARK    1  A    between atoms: C_1  and  C_2
REMARK    2  A    between atoms: C_5  and  C_6
REMARK    3  A    between atoms: C_10  and  N_11
REMARK    4  A    between atoms: C_12  and  C_14
REMARK    5  A    between atoms: N_23  and  C_24
REMARK    6  A    between atoms: N_26  and  C_27
REMARK                            x       y       z     vdW  Elec       q    Type
REMARK                         _______ _______ _______ _____ _____    ______ ____
ROOT
ATOM      1  N   UNL     1       2.014   8.651  17.635  0.00  0.00    +0.000 N 
ATOM      2  C   UNL     1       2.295   7.625  18.533  0.00  0.00    +0.000 C 
ATOM      3  O   UNL     1       2.015   7.644  19.729  0.00  0.00    +0.000 OA
ATOM      4  H   UNL     1       2.126   8.458  16.645  0.00  0.00    +0.000 HD
ENDROOT
BRANCH   2   5
ATOM      5  C   UNL     1       2.947   6.384  18.026  0.00  0.00    +0.000 A 
ATOM      6  C   UNL     1       2.214   5.176  18.083  0.00  0.00    +0.000 A 
ATOM      7  C   UNL     1       2.766   3.950  17.662  0.00  0.00    +0.000 A 
ATOM      8  C   UNL     1       4.072   3.896  17.179  0.00  0.00    +0.000 A 
ATOM      9  C   UNL     1       4.772   5.084  17.141  0.00  0.00    +0.000 A 
ATOM     10  C   UNL     1       4.237   6.298  17.543  0.00  0.00    +0.000 A 
ATOM     11  O   UNL     1       5.151   7.335  17.428  0.00  0.00    +0.000 OA
ATOM     12  C   UNL     1       6.306   6.686  16.960  0.00  0.00    +0.000 A 
ATOM     13  O   UNL     1       7.357   7.278  16.765  0.00  0.00    +0.000 OA
ATOM     14  N   UNL     1       6.070   5.343  16.770  0.00  0.00    +0.000 N 
ATOM     15  C   UNL     1       7.027   4.365  16.336  0.00  0.00    +0.000 C 
ENDBRANCH   2   5
BRANCH   1  20
ATOM     16  C   UNL     1      -0.509  11.309  18.417  0.00  0.00    +0.000 A 
ATOM     17  C   UNL     1       0.348  12.360  18.787  0.00  0.00    +0.000 A 
ATOM     18  C   UNL     1       1.727  12.214  18.734  0.00  0.00    +0.000 A 
ATOM     19  C   UNL     1       2.277  10.999  18.340  0.00  0.00    +0.000 A 
ATOM     20  C   UNL     1       1.464   9.915  17.987  0.00  0.00    +0.000 A 
ATOM     21  C   UNL     1       0.066  10.098  17.978  0.00  0.00    +0.000 A 
BRANCH  16  26
ATOM     22  C   UNL     1      -5.460  11.623  17.487  0.00  0.00    +0.000 C 
ATOM     23  C   UNL     1      -4.132  11.695  18.140  0.00  0.00    +0.000 A 
ATOM     24  N   UNL     1      -3.907  12.053  19.382  0.00  0.00    +0.000 NA
ATOM     25  N   UNL     1      -2.560  11.981  19.599  0.00  0.00    +0.000 NA
ATOM     26  C   UNL     1      -1.953  11.586  18.490  0.00  0.00    +0.000 A 
ATOM     27  N   UNL     1      -2.931  11.383  17.539  0.00  0.00    +0.000 N 
ATOM     28  C   UNL     1      -2.806  10.859  16.205  0.00  0.00    +0.000 C 
ENDBRANCH  16  26
ENDBRANCH   1  20
TORSDOF 3
ENDMDL
MODEL 2
REMARK VINA RESULT:      -8.5      2.033      2.561
REMARK  Name = 
REMARK  6 active torsions:
REMARK  status: ('A' for Active; 'I' for Inactive)
REMARK    1  A    between atoms: C_1  and  C_2
REMARK    2  A    between atoms: C_5  and  C_6
REMARK    3  A    between atoms: C_10  and  N_11
REMARK    4  A    between atoms: C_12  and  C_14
REMARK    5  A    between atoms: N_23  and  C_24
REMARK    6  A    between atoms: N_26  and  C_27
REMARK                            x       y       z     vdW  Elec       q    Type
REMARK                         _______ _______ _______ _____ _____    ______ ____
ROOT
ATOM      1  N   UNL     1       2.150   8.562  18.025  0.00  0.00    +0.000 N 
ATOM      2  C   UNL     1       2.380   7.427  18.797  0.00  0.00    +0.000 C 
ATOM      3  O   UNL     1       2.186   7.350  20.007  0.00  0.00    +0.000 OA
ATOM      4  H   UNL     1       2.173   8.462  17.016  0.00  0.00    +0.000 HD
ENDROOT
BRANCH   2   5
ATOM      5  C   UNL     1       2.861   6.186  18.124  0.00  0.00    +0.000 A 
ATOM      6  C   UNL     1       2.031   5.041  18.167  0.00  0.00    +0.000 A 
ATOM      7  C   UNL     1       2.424   3.817  17.593  0.00  0.00    +0.000 A 
ATOM      8  C   UNL     1       3.661   3.699  16.964  0.00  0.00    +0.000 A 
ATOM      9  C   UNL     1       4.458   4.825  16.941  0.00  0.00    +0.000 A 
ATOM     10  C   UNL     1       4.080   6.038  17.495  0.00  0.00    +0.000 A 
ATOM     11  O   UNL     1       5.067   7.003  17.359  0.00  0.00    +0.000 OA
ATOM     12  C   UNL     1       6.103   6.306  16.716  0.00  0.00    +0.000 A 
ATOM     13  O   UNL     1       7.177   6.826  16.451  0.00  0.00    +0.000 OA
ATOM     14  N   UNL     1       5.728   5.009  16.448  0.00  0.00    +0.000 N 
ATOM     15  C   UNL     1       6.542   3.998  15.834  0.00  0.00    +0.000 C 
ENDBRANCH   2   5
BRANCH   1  20
ATOM     16  C   UNL     1       0.589  11.145  20.247  0.00  0.00    +0.000 A 
ATOM     17  C   UNL     1       1.076  12.316  19.643  0.00  0.00    +0.000 A 
ATOM     18  C   UNL     1       1.861  12.261  18.500  0.00  0.00    +0.000 A 
ATOM     19  C   UNL     1       2.202  11.027  17.956  0.00  0.00    +0.000 A 
ATOM     20  C   UNL     1       1.763   9.832  18.539  0.00  0.00    +0.000 A 
ATOM     21  C   UNL     1       0.908   9.903  19.658  0.00  0.00    +0.000 A 
BRANCH  16  26
ATOM     22  C   UNL     1      -3.175  12.222  23.433  0.00  0.00    +0.000 C 
ATOM     23  C   UNL     1      -1.899  11.736  22.857  0.00  0.00    +0.000 A 
ATOM     24  N   UNL     1      -0.986  11.042  23.494  0.00  0.00    +0.000 NA
ATOM     25  N   UNL     1       0.029  10.784  22.616  0.00  0.00    +0.000 NA
ATOM     26  C   UNL     1      -0.253  11.326  21.440  0.00  0.00    +0.000 A 
ATOM     27  N   UNL     1      -1.486  11.934  21.556  0.00  0.00    +0.000 N 
ATOM     28  C   UNL     1      -2.282  12.574  20.543  0.00  0.00    +0.000 C 
ENDBRANCH  16  26
ENDBRANCH   1  20
TORSDOF 3
ENDMDL
MODEL 3
REMARK VINA RESULT:      -8.5      2.802      9.136
REMARK  Name = 
REMARK  6 active torsions:
REMARK  status: ('A' for Active; 'I' for Inactive)
REMARK    1  A    between atoms: C_1  and  C_2
REMARK    2  A    between atoms: C_5  and  C_6
REMARK    3  A    between atoms: C_10  and  N_11
REMARK    4  A    between atoms: C_12  and  C_14
REMARK    5  A    between atoms: N_23  and  C_24
REMARK    6  A    between atoms: N_26  and  C_27
REMARK                            x       y       z     vdW  Elec       q    Type
REMARK                         _______ _______ _______ _____ _____    ______ ____
ROOT
ATOM      1  N   UNL     1       1.413   6.484  21.070  0.00  0.00    +0.000 N 
ATOM      2  C   UNL     1       1.465   7.731  20.453  0.00  0.00    +0.000 C 
ATOM      3  O   UNL     1       2.067   7.974  19.411  0.00  0.00    +0.000 OA
ATOM      4  H   UNL     1       0.745   6.355  21.823  0.00  0.00    +0.000 HD
ENDROOT
BRANCH   2   5
ATOM      5  C   UNL     1       0.709   8.865  21.059  0.00  0.00    +0.000 A 
ATOM      6  C   UNL     1       0.663   8.955  22.470  0.00  0.00    +0.000 A 
ATOM      7  C   UNL     1      -0.060   9.970  23.126  0.00  0.00    +0.000 A 
ATOM      8  C   UNL     1      -0.764  10.921  22.390  0.00  0.00    +0.000 A 
ATOM      9  C   UNL     1      -0.712  10.810  21.016  0.00  0.00    +0.000 A 
ATOM     10  C   UNL     1       0.003   9.821  20.358  0.00  0.00    +0.000 A 
ATOM     11  O   UNL     1      -0.125   9.914  18.980  0.00  0.00    +0.000 OA
ATOM     12  C   UNL     1      -0.996  11.005  18.818  0.00  0.00    +0.000 A 
ATOM     13  O   UNL     1      -1.379  11.380  17.720  0.00  0.00    +0.000 OA
ATOM     14  N   UNL     1      -1.329  11.552  20.037  0.00  0.00    +0.000 N 
ATOM     15  C   UNL     1      -2.223  12.652  20.260  0.00  0.00    +0.000 C 
ENDBRANCH   2   5
BRANCH   1  20
ATOM     16  C   UNL     1       4.078   4.377  19.490  0.00  0.00    +0.000 A 
ATOM     17  C   UNL     1       3.656   3.100  19.895  0.00  0.00    +0.000 A 
ATOM     18  C   UNL     1       2.492   2.930  20.632  0.00  0.00    +0.000 A 
ATOM     19  C   UNL     1       1.744   4.041  21.006  0.00  0.00    +0.000 A 
ATOM     20  C   UNL     1       2.140   5.335  20.648  0.00  0.00    +0.000 A 
ATOM     21  C   UNL     1       3.285   5.489  19.840  0.00  0.00    +0.000 A 
BRANCH  16  26
ATOM     22  C   UNL     1       7.446   4.661  15.740  0.00  0.00    +0.000 C 
ATOM     23  C   UNL     1       6.816   4.609  17.080  0.00  0.00    +0.000 A 
ATOM     24  N   UNL     1       7.439   4.751  18.225  0.00  0.00    +0.000 NA
ATOM     25  N   UNL     1       6.510   4.648  19.222  0.00  0.00    +0.000 NA
ATOM     26  C   UNL     1       5.314   4.435  18.692  0.00  0.00    +0.000 A 
ATOM     27  N   UNL     1       5.472   4.415  17.322  0.00  0.00    +0.000 N 
ATOM     28  C   UNL     1       4.471   4.317  16.293  0.00  0.00    +0.000 C 
ENDBRANCH  16  26
ENDBRANCH   1  20
TORSDOF 3
ENDMDL
MODEL 4
REMARK VINA RESULT:      -8.4      1.084      1.158
REMARK  Name = 
REMARK  6 active torsions:
REMARK  status: ('A' for Active; 'I' for Inactive)
REMARK    1  A    between atoms: C_1  and  C_2
REMARK    2  A    between atoms: C_5  and  C_6
REMARK    3  A    between atoms: C_10  and  N_11
REMARK    4  A    between atoms: C_12  and  C_14
REMARK    5  A    between atoms: N_23  and  C_24
REMARK    6  A    between atoms: N_26  and  C_27
REMARK                            x       y       z     vdW  Elec       q    Type
REMARK                         _______ _______ _______ _____ _____    ______ ____
ROOT
ATOM      1  N   UNL     1       1.654   8.773  18.342  0.00  0.00    +0.000 N 
ATOM      2  C   UNL     1       1.919   7.964  19.444  0.00  0.00    +0.000 C 
ATOM      3  O   UNL     1       1.613   8.234  20.602  0.00  0.00    +0.000 OA
ATOM      4  H   UNL     1       1.789   8.376  17.419  0.00  0.00    +0.000 HD
ENDROOT
BRANCH   2   5
ATOM      5  C   UNL     1       2.586   6.649  19.226  0.00  0.00    +0.000 A 
ATOM      6  C   UNL     1       2.337   5.613  20.157  0.00  0.00    +0.000 A 
ATOM      7  C   UNL     1       2.956   4.353  20.050  0.00  0.00    +0.000 A 
ATOM      8  C   UNL     1       3.848   4.093  19.012  0.00  0.00    +0.000 A 
ATOM      9  C   UNL     1       4.083   5.118  18.120  0.00  0.00    +0.000 A 
ATOM     10  C   UNL     1       3.473   6.361  18.209  0.00  0.00    +0.000 A 
ATOM     11  O   UNL     1       3.896   7.221  17.207  0.00  0.00    +0.000 OA
ATOM     12  C   UNL     1       4.836   6.449  16.505  0.00  0.00    +0.000 A 
ATOM     13  O   UNL     1       5.462   6.888  15.551  0.00  0.00    +0.000 OA
ATOM     14  N   UNL     1       4.931   5.185  17.040  0.00  0.00    +0.000 N 
ATOM     15  C   UNL     1       5.813   4.140  16.604  0.00  0.00    +0.000 C 
ENDBRANCH   2   5
BRANCH   1  20
ATOM     16  C   UNL     1      -0.890  11.515  18.562  0.00  0.00    +0.000 A 
ATOM     17  C   UNL     1      -0.042  12.632  18.648  0.00  0.00    +0.000 A 
ATOM     18  C   UNL     1       1.337  12.493  18.586  0.00  0.00    +0.000 A 
ATOM     19  C   UNL     1       1.897  11.224  18.469  0.00  0.00    +0.000 A 
ATOM     20  C   UNL     1       1.093  10.080  18.407  0.00  0.00    +0.000 A 
ATOM     21  C   UNL     1      -0.308  10.241  18.400  0.00  0.00    +0.000 A 
BRANCH  16  26
ATOM     22  C   UNL     1      -5.836  11.773  17.584  0.00  0.00    +0.000 C 
ATOM     23  C   UNL     1      -4.513  11.873  18.245  0.00  0.00    +0.000 A 
ATOM     24  N   UNL     1      -4.300  12.272  19.476  0.00  0.00    +0.000 NA
ATOM     25  N   UNL     1      -2.954  12.214  19.706  0.00  0.00    +0.000 NA
ATOM     26  C   UNL     1      -2.336  11.786  18.615  0.00  0.00    +0.000 A 
ATOM     27  N   UNL     1      -3.305  11.548  17.663  0.00  0.00    +0.000 N 
ATOM     28  C   UNL     1      -3.168  10.981  16.348  0.00  0.00    +0.000 C 
ENDBRANCH  16  26
ENDBRANCH   1  20
TORSDOF 3
ENDMDL
MODEL 5
REMARK VINA RESULT:      -8.3      0.886      1.425
REMARK  Name = 
REMARK  6 active torsions:
REMARK  status: ('A' for Active; 'I' for Inactive)
REMARK    1  A    between atoms: C_1  and  C_2
REMARK    2  A    between atoms: C_5  and  C_6
REMARK    3  A    between atoms: C_10  and  N_11
REMARK    4  A    between atoms: C_12  and  C_14
REMARK    5  A    between atoms: N_23  and  C_24
REMARK    6  A    between atoms: N_26  and  C_27
REMARK                            x       y       z     vdW  Elec       q    Type
REMARK                         _______ _______ _______ _____ _____    ______ ____
ROOT
ATOM      1  N   UNL     1       1.948   8.665  17.661  0.00  0.00    +0.000 N 
ATOM      2  C   UNL     1       2.275   7.651  18.558  0.00  0.00    +0.000 C 
ATOM      3  O   UNL     1       2.067   7.689  19.767  0.00  0.00    +0.000 OA
ATOM      4  H   UNL     1       2.000   8.456  16.670  0.00  0.00    +0.000 HD
ENDROOT
BRANCH   2   5
ATOM      5  C   UNL     1       2.889   6.398  18.032  0.00  0.00    +0.000 A 
ATOM      6  C   UNL     1       2.126   5.208  18.091  0.00  0.00    +0.000 A 
ATOM      7  C   UNL     1       2.642   3.972  17.653  0.00  0.00    +0.000 A 
ATOM      8  C   UNL     1       3.938   3.889  17.150  0.00  0.00    +0.000 A 
ATOM      9  C   UNL     1       4.668   5.060  17.109  0.00  0.00    +0.000 A 
ATOM     10  C   UNL     1       4.168   6.283  17.529  0.00  0.00    +0.000 A 
ATOM     11  O   UNL     1       5.106   7.298  17.407  0.00  0.00    +0.000 OA
ATOM     12  C   UNL     1       6.238   6.624  16.917  0.00  0.00    +0.000 A 
ATOM     13  O   UNL     1       7.300   7.192  16.710  0.00  0.00    +0.000 OA
ATOM     14  N   UNL     1       5.966   5.289  16.721  0.00  0.00    +0.000 N 
ATOM     15  C   UNL     1       6.891   4.291  16.265  0.00  0.00    +0.000 C 
ENDBRANCH   2   5
BRANCH   1  20
ATOM     16  C   UNL     1      -0.495  11.329  18.651  0.00  0.00    +0.000 A 
ATOM     17  C   UNL     1       0.385  12.405  18.857  0.00  0.00    +0.000 A 
ATOM     18  C   UNL     1       1.747  12.273  18.629  0.00  0.00    +0.000 A 
ATOM     19  C   UNL     1       2.262  11.046  18.219  0.00  0.00    +0.000 A 
ATOM     20  C   UNL     1       1.427   9.938  18.027  0.00  0.00    +0.000 A 
ATOM     21  C   UNL     1       0.038  10.105  18.194  0.00  0.00    +0.000 A 
BRANCH  16  26
ATOM     22  C   UNL     1      -4.902  12.801  20.624  0.00  0.00    +0.000 C 
ATOM     23  C   UNL     1      -3.864  12.268  19.711  0.00  0.00    +0.000 A 
ATOM     24  N   UNL     1      -4.058  11.877  18.474  0.00  0.00    +0.000 NA
ATOM     25  N   UNL     1      -2.856  11.464  17.973  0.00  0.00    +0.000 NA
ATOM     26  C   UNL     1      -1.921  11.592  18.902  0.00  0.00    +0.000 A 
ATOM     27  N   UNL     1      -2.529  12.115  20.024  0.00  0.00    +0.000 N 
ATOM     28  C   UNL     1      -1.938  12.533  21.267  0.00  0.00    +0.000 C 
ENDBRANCH  16  26
ENDBRANCH   1  20
TORSDOF 3
ENDMDL
MODEL 6
REMARK VINA RESULT:      -8.3      3.183      4.386
REMARK  Name = 
REMARK  6 active torsions:
REMARK  status: ('A' for Active; 'I' for Inactive)
REMARK    1  A    between atoms: C_1  and  C_2
REMARK    2  A    between atoms: C_5  and  C_6
REMARK    3  A    between atoms: C_10  and  N_11
REMARK    4  A    between atoms: C_12  and  C_14
REMARK    5  A    between atoms: N_23  and  C_24
REMARK    6  A    between atoms: N_26  and  C_27
REMARK                            x       y       z     vdW  Elec       q    Type
REMARK                         _______ _______ _______ _____ _____    ______ ____
ROOT
ATOM      1  N   UNL     1       1.674   8.241  20.972  0.00  0.00    +0.000 N 
ATOM      2  C   UNL     1       1.857   8.050  19.605  0.00  0.00    +0.000 C 
ATOM      3  O   UNL     1       1.440   8.805  18.730  0.00  0.00    +0.000 OA
ATOM      4  H   UNL     1       2.208   7.658  21.608  0.00  0.00    +0.000 HD
ENDROOT
BRANCH   2   5
ATOM      5  C   UNL     1       2.646   6.873  19.143  0.00  0.00    +0.000 A 
ATOM      6  C   UNL     1       3.346   6.980  17.918  0.00  0.00    +0.000 A 
ATOM      7  C   UNL     1       4.083   5.904  17.388  0.00  0.00    +0.000 A 
ATOM      8  C   UNL     1       4.137   4.687  18.063  0.00  0.00    +0.000 A 
ATOM      9  C   UNL     1       3.441   4.601  19.251  0.00  0.00    +0.000 A 
ATOM     10  C   UNL     1       2.718   5.655  19.788  0.00  0.00    +0.000 A 
ATOM     11  O   UNL     1       2.092   5.306  20.975  0.00  0.00    +0.000 OA
ATOM     12  C   UNL     1       2.439   3.953  21.129  0.00  0.00    +0.000 A 
ATOM     13  O   UNL     1       2.038   3.275  22.063  0.00  0.00    +0.000 OA
ATOM     14  N   UNL     1       3.264   3.540  20.107  0.00  0.00    +0.000 N 
ATOM     15  C   UNL     1       3.786   2.217  19.918  0.00  0.00    +0.000 C 
ENDBRANCH   2   5
BRANCH   1  20
ATOM     16  C   UNL     1       0.195  11.628  21.592  0.00  0.00    +0.000 A 
ATOM     17  C   UNL     1      -0.735  11.311  22.596  0.00  0.00    +0.000 A 
ATOM     18  C   UNL     1      -0.841  10.020  23.095  0.00  0.00    +0.000 A 
ATOM     19  C   UNL     1      -0.037   9.011  22.573  0.00  0.00    +0.000 A 
ATOM     20  C   UNL     1       0.885   9.274  21.553  0.00  0.00    +0.000 A 
ATOM     21  C   UNL     1       1.032  10.603  21.104  0.00  0.00    +0.000 A 
BRANCH  16  26
ATOM     22  C   UNL     1      -0.417  15.974  19.097  0.00  0.00    +0.000 C 
ATOM     23  C   UNL     1      -0.057  14.963  20.119  0.00  0.00    +0.000 A 
ATOM     24  N   UNL     1       0.464  15.216  21.296  0.00  0.00    +0.000 NA
ATOM     25  N   UNL     1       0.640  14.023  21.940  0.00  0.00    +0.000 NA
ATOM     26  C   UNL     1       0.234  13.034  21.157  0.00  0.00    +0.000 A 
ATOM     27  N   UNL     1      -0.228  13.601  19.988  0.00  0.00    +0.000 N 
ATOM     28  C   UNL     1      -0.863  12.971  18.862  0.00  0.00    +0.000 C 
ENDBRANCH  16  26
ENDBRANCH   1  20
TORSDOF 3
ENDMDL
MODEL 7
REMARK VINA RESULT:      -8.2      1.840      2.754
REMARK  Name = 
REMARK  6 active torsions:
REMARK  status: ('A' for Active; 'I' for Inactive)
REMARK    1  A    between atoms: C_1  and  C_2
REMARK    2  A    between atoms: C_5  and  C_6
REMARK    3  A    between atoms: C_10  and  N_11
REMARK    4  A    between atoms: C_12  and  C_14
REMARK    5  A    between atoms: N_23  and  C_24
REMARK    6  A    between atoms: N_26  and  C_27
REMARK                            x       y       z     vdW  Elec       q    Type
REMARK                         _______ _______ _______ _____ _____    ______ ____
ROOT
ATOM      1  N   UNL     1       1.828   8.815  17.792  0.00  0.00    +0.000 N 
ATOM      2  C   UNL     1       2.226   7.868  18.732  0.00  0.00    +0.000 C 
ATOM      3  O   UNL     1       2.020   7.949  19.940  0.00  0.00    +0.000 OA
ATOM      4  H   UNL     1       1.890   8.564  16.811  0.00  0.00    +0.000 HD
ENDROOT
BRANCH   2   5
ATOM      5  C   UNL     1       2.920   6.635  18.261  0.00  0.00    +0.000 A 
ATOM      6  C   UNL     1       3.976   6.781  17.331  0.00  0.00    +0.000 A 
ATOM      7  C   UNL     1       4.660   5.668  16.803  0.00  0.00    +0.000 A 
ATOM      8  C   UNL     1       4.304   4.377  17.185  0.00  0.00    +0.000 A 
ATOM      9  C   UNL     1       3.266   4.257  18.087  0.00  0.00    +0.000 A 
ATOM     10  C   UNL     1       2.591   5.345  18.620  0.00  0.00    +0.000 A 
ATOM     11  O   UNL     1       1.576   4.956  19.483  0.00  0.00    +0.000 OA
ATOM     12  C   UNL     1       1.637   3.554  19.428  0.00  0.00    +0.000 A 
ATOM     13  O   UNL     1       0.859   2.840  20.045  0.00  0.00    +0.000 OA
ATOM     14  N   UNL     1       2.662   3.138  18.609  0.00  0.00    +0.000 N 
ATOM     15  C   UNL     1       2.997   1.780  18.288  0.00  0.00    +0.000 C 
ENDBRANCH   2   5
BRANCH   1  20
ATOM     16  C   UNL     1      -0.803  11.385  18.509  0.00  0.00    +0.000 A 
ATOM     17  C   UNL     1       0.009  12.489  18.820  0.00  0.00    +0.000 A 
ATOM     18  C   UNL     1       1.392  12.405  18.748  0.00  0.00    +0.000 A 
ATOM     19  C   UNL     1       1.993  11.201  18.394  0.00  0.00    +0.000 A 
ATOM     20  C   UNL     1       1.225  10.067  18.102  0.00  0.00    +0.000 A 
ATOM     21  C   UNL     1      -0.180  10.184  18.110  0.00  0.00    +0.000 A 
BRANCH  16  26
ATOM     22  C   UNL     1      -5.797  11.251  17.784  0.00  0.00    +0.000 C 
ATOM     23  C   UNL     1      -4.451  11.522  18.342  0.00  0.00    +0.000 A 
ATOM     24  N   UNL     1      -4.200  12.137  19.472  0.00  0.00    +0.000 NA
ATOM     25  N   UNL     1      -2.844  12.179  19.632  0.00  0.00    +0.000 NA
ATOM     26  C   UNL     1      -2.257  11.597  18.597  0.00  0.00    +0.000 A 
ATOM     27  N   UNL     1      -3.257  11.155  17.756  0.00  0.00    +0.000 N 
ATOM     28  C   UNL     1      -3.153  10.377  16.551  0.00  0.00    +0.000 C 
ENDBRANCH  16  26
ENDBRANCH   1  20
TORSDOF 3
ENDMDL
MODEL 8
REMARK VINA RESULT:      -8.2      2.200      3.781
REMARK  Name = 
REMARK  6 active torsions:
REMARK  status: ('A' for Active; 'I' for Inactive)
REMARK    1  A    between atoms: C_1  and  C_2
REMARK    2  A    between atoms: C_5  and  C_6
REMARK    3  A    between atoms: C_10  and  N_11
REMARK    4  A    between atoms: C_12  and  C_14
REMARK    5  A    between atoms: N_23  and  C_24
REMARK    6  A    between atoms: N_26  and  C_27
REMARK                            x       y       z     vdW  Elec       q    Type
REMARK                         _______ _______ _______ _____ _____    ______ ____
ROOT
ATOM      1  N   UNL     1       1.585   8.383  17.791  0.00  0.00    +0.000 N 
ATOM      2  C   UNL     1       2.188   7.455  18.635  0.00  0.00    +0.000 C 
ATOM      3  O   UNL     1       2.172   7.508  19.862  0.00  0.00    +0.000 OA
ATOM      4  H   UNL     1       1.506   8.149  16.808  0.00  0.00    +0.000 HD
ENDROOT
BRANCH   2   5
ATOM      5  C   UNL     1       2.877   6.277  18.033  0.00  0.00    +0.000 A 
ATOM      6  C   UNL     1       2.177   5.048  17.988  0.00  0.00    +0.000 A 
ATOM      7  C   UNL     1       2.766   3.877  17.473  0.00  0.00    +0.000 A 
ATOM      8  C   UNL     1       4.074   3.899  16.994  0.00  0.00    +0.000 A 
ATOM      9  C   UNL     1       4.741   5.105  17.055  0.00  0.00    +0.000 A 
ATOM     10  C   UNL     1       4.170   6.267  17.552  0.00  0.00    +0.000 A 
ATOM     11  O   UNL     1       5.055   7.335  17.525  0.00  0.00    +0.000 OA
ATOM     12  C   UNL     1       6.229   6.758  17.012  0.00  0.00    +0.000 A 
ATOM     13  O   UNL     1       7.263   7.394  16.870  0.00  0.00    +0.000 OA
ATOM     14  N   UNL     1       6.032   5.429  16.713  0.00  0.00    +0.000 N 
ATOM     15  C   UNL     1       7.017   4.516  16.206  0.00  0.00    +0.000 C 
ENDBRANCH   2   5
BRANCH   1  20
ATOM     16  C   UNL     1       1.121  11.759  19.349  0.00  0.00    +0.000 A 
ATOM     17  C   UNL     1      -0.210  12.019  18.982  0.00  0.00    +0.000 A 
ATOM     18  C   UNL     1      -0.957  11.084  18.279  0.00  0.00    +0.000 A 
ATOM     19  C   UNL     1      -0.372   9.880  17.900  0.00  0.00    +0.000 A 
ATOM     20  C   UNL     1       0.959   9.588  18.220  0.00  0.00    +0.000 A 
ATOM     21  C   UNL     1       1.684  10.516  18.995  0.00  0.00    +0.000 A 
BRANCH  16  26
ATOM     22  C   UNL     1       3.829  15.784  20.747  0.00  0.00    +0.000 C 
ATOM     23  C   UNL     1       2.941  14.598  20.759  0.00  0.00    +0.000 A 
ATOM     24  N   UNL     1       2.277  14.148  21.797  0.00  0.00    +0.000 NA
ATOM     25  N   UNL     1       1.572  13.048  21.397  0.00  0.00    +0.000 NA
ATOM     26  C   UNL     1       1.807  12.814  20.114  0.00  0.00    +0.000 A 
ATOM     27  N   UNL     1       2.671  13.794  19.671  0.00  0.00    +0.000 N 
ATOM     28  C   UNL     1       3.153  14.046  18.340  0.00  0.00    +0.000 C 
ENDBRANCH  16  26
ENDBRANCH   1  20
TORSDOF 3
ENDMDL
MODEL 9
REMARK VINA RESULT:      -8.2      1.535      2.056
REMARK  Name = 
REMARK  6 active torsions:
REMARK  status: ('A' for Active; 'I' for Inactive)
REMARK    1  A    between atoms: C_1  and  C_2
REMARK    2  A    between atoms: C_5  and  C_6
REMARK    3  A    between atoms: C_10  and  N_11
REMARK    4  A    between atoms: C_12  and  C_14
REMARK    5  A    between atoms: N_23  and  C_24
REMARK    6  A    between atoms: N_26  and  C_27
REMARK                            x       y       z     vdW  Elec       q    Type
REMARK                         _______ _______ _______ _____ _____    ______ ____
ROOT
ATOM      1  N   UNL     1       1.903   8.764  17.792  0.00  0.00    +0.000 N 
ATOM      2  C   UNL     1       2.274   7.737  18.656  0.00  0.00    +0.000 C 
ATOM      3  O   UNL     1       2.227   7.799  19.881  0.00  0.00    +0.000 OA
ATOM      4  H   UNL     1       1.812   8.545  16.806  0.00  0.00    +0.000 HD
ENDROOT
BRANCH   2   5
ATOM      5  C   UNL     1       2.729   6.440  18.076  0.00  0.00    +0.000 A 
ATOM      6  C   UNL     1       1.858   5.330  18.164  0.00  0.00    +0.000 A 
ATOM      7  C   UNL     1       2.222   4.059  17.679  0.00  0.00    +0.000 A 
ATOM      8  C   UNL     1       3.472   3.860  17.097  0.00  0.00    +0.000 A 
ATOM      9  C   UNL     1       4.310   4.954  17.028  0.00  0.00    +0.000 A 
ATOM     10  C   UNL     1       3.959   6.212  17.495  0.00  0.00    +0.000 A 
ATOM     11  O   UNL     1       4.984   7.132  17.330  0.00  0.00    +0.000 OA
ATOM     12  C   UNL     1       6.012   6.361  16.763  0.00  0.00    +0.000 A 
ATOM     13  O   UNL     1       7.111   6.826  16.499  0.00  0.00    +0.000 OA
ATOM     14  N   UNL     1       5.599   5.063  16.565  0.00  0.00    +0.000 N 
ATOM     15  C   UNL     1       6.393   3.988  16.040  0.00  0.00    +0.000 C 
ENDBRANCH   2   5
BRANCH   1  20
ATOM     16  C   UNL     1      -0.102  11.548  19.299  0.00  0.00    +0.000 A 
ATOM     17  C   UNL     1       0.789  12.620  19.118  0.00  0.00    +0.000 A 
ATOM     18  C   UNL     1       2.004  12.441  18.471  0.00  0.00    +0.000 A 
ATOM     19  C   UNL     1       2.365  11.176  18.019  0.00  0.00    +0.000 A 
ATOM     20  C   UNL     1       1.521  10.073  18.201  0.00  0.00    +0.000 A 
ATOM     21  C   UNL     1       0.261  10.281  18.797  0.00  0.00    +0.000 A 
BRANCH  16  26
ATOM     22  C   UNL     1      -3.662  12.641  22.708  0.00  0.00    +0.000 C 
ATOM     23  C   UNL     1      -2.946  12.390  21.435  0.00  0.00    +0.000 A 
ATOM     24  N   UNL     1      -3.445  12.543  20.232  0.00  0.00    +0.000 NA
ATOM     25  N   UNL     1      -2.469  12.219  19.331  0.00  0.00    +0.000 NA
ATOM     26  C   UNL     1      -1.371  11.860  19.978  0.00  0.00    +0.000 A 
ATOM     27  N   UNL     1      -1.637  11.968  21.327  0.00  0.00    +0.000 N 
ATOM     28  C   UNL     1      -0.750  11.790  22.445  0.00  0.00    +0.000 C 
ENDBRANCH  16  26
ENDBRANCH   1  20
TORSDOF 3
ENDMDL
