MODEL 1
REMARK VINA RESULT:      -9.6      0.000      0.000
REMARK  Name = 
REMARK  5 active torsions:
REMARK  status: ('A' for Active; 'I' for Inactive)
REMARK    1  A    between atoms: C_1  and  C_2
REMARK    2  A    between atoms: C_3  and  C_4
REMARK    3  A    between atoms: N_6  and  C_7
REMARK    4  A    between atoms: C_11  and  S_12
REMARK    5  A    between atoms: S_12  and  N_15
REMARK                            x       y       z     vdW  Elec       q    Type
REMARK                         _______ _______ _______ _____ _____    ______ ____
ROOT
ATOM      1  C   UNL     1       3.145   5.896  18.121  0.00  0.00    +0.000 A 
ATOM      2  C   UNL     1       2.561   4.653  17.861  0.00  0.00    +0.000 A 
ATOM      3  C   UNL     1       3.262   3.658  17.173  0.00  0.00    +0.000 A 
ATOM      4  C   UNL     1       4.561   3.891  16.732  0.00  0.00    +0.000 A 
ATOM      5  C   UNL     1       5.154   5.132  16.976  0.00  0.00    +0.000 A 
ATOM      6  C   UNL     1       4.441   6.144  17.643  0.00  0.00    +0.000 A 
ENDROOT
BRANCH   1   9
ATOM      7  C   UNL     1       2.191   8.204  18.387  0.00  0.00    +0.000 C 
ATOM      8  O   UNL     1       2.452   8.627  17.265  0.00  0.00    +0.000 OA
ATOM      9  N   UNL     1       2.488   6.920  18.836  0.00  0.00    +0.000 N 
ATOM     10  H   UNL     1       2.121   6.696  19.755  0.00  0.00    +0.000 HD
BRANCH   7  13
ATOM     11  C   UNL     1       1.518  11.437  18.445  0.00  0.00    +0.000 C 
ATOM     12  C   UNL     1       1.196  10.373  19.433  0.00  0.00    +0.000 A 
ATOM     13  C   UNL     1       1.490   9.012  19.377  0.00  0.00    +0.000 A 
ATOM     14  O   UNL     1       0.986   8.383  20.488  0.00  0.00    +0.000 OA
ATOM     15  C   UNL     1       0.386   9.329  21.257  0.00  0.00    +0.000 A 
ATOM     16  C   UNL     1      -0.251   9.096  22.473  0.00  0.00    +0.000 A 
ATOM     17  C   UNL     1      -0.810  10.211  23.108  0.00  0.00    +0.000 A 
ATOM     18  C   UNL     1      -0.720  11.486  22.543  0.00  0.00    +0.000 A 
ATOM     19  C   UNL     1      -0.070  11.686  21.318  0.00  0.00    +0.000 A 
ATOM     20  C   UNL     1       0.493  10.576  20.660  0.00  0.00    +0.000 A 
ENDBRANCH   7  13
ENDBRANCH   1   9
BRANCH   5  21
ATOM     21  S   UNL     1       6.774   5.476  16.294  0.00  0.00    +0.000 S 
ATOM     22  O   UNL     1       6.999   6.900  16.426  0.00  0.00    +0.000 OA
ATOM     23  O   UNL     1       7.690   4.521  16.888  0.00  0.00    +0.000 OA
BRANCH  21  24
ATOM     24  N   UNL     1       6.635   5.106  14.624  0.00  0.00    +0.000 NA
ATOM     25  C   UNL     1       7.826   5.445  13.806  0.00  0.00    +0.000 C 
ATOM     26  C   UNL     1       7.575   5.237  12.316  0.00  0.00    +0.000 C 
ATOM     27  C   UNL     1       7.049   3.836  12.038  0.00  0.00    +0.000 C 
ATOM     28  C   UNL     1       5.758   3.630  12.815  0.00  0.00    +0.000 C 
ATOM     29  C   UNL     1       5.983   3.809  14.314  0.00  0.00    +0.000 C 
ENDBRANCH  21  24
ENDBRANCH   5  21
TORSDOF 4
ENDMDL
MODEL 2
REMARK VINA RESULT:      -9.5      1.059      1.154
REMARK  Name = 
REMARK  5 active torsions:
REMARK  status: ('A' for Active; 'I' for Inactive)
REMARK    1  A    between atoms: C_1  and  C_2
REMARK    2  A    between atoms: C_3  and  C_4
REMARK    3  A    between atoms: N_6  and  C_7
REMARK    4  A    between atoms: C_11  and  S_12
REMARK    5  A    between atoms: S_12  and  N_15
REMARK                            x       y       z     vdW  Elec       q    Type
REMARK                         _______ _______ _______ _____ _____    ______ ____
ROOT
ATOM      1  C   UNL     1       3.266   5.786  18.042  0.00  0.00    +0.000 A 
ATOM      2  C   UNL     1       2.731   4.505  17.873  0.00  0.00    +0.000 A 
ATOM      3  C   UNL     1       3.468   3.493  17.252  0.00  0.00    +0.000 A 
ATOM      4  C   UNL     1       4.755   3.746  16.788  0.00  0.00    +0.000 A 
ATOM      5  C   UNL     1       5.299   5.024  16.941  0.00  0.00    +0.000 A 
ATOM      6  C   UNL     1       4.549   6.051  17.540  0.00  0.00    +0.000 A 
ENDROOT
BRANCH   1   9
ATOM      7  C   UNL     1       2.046   6.822  19.977  0.00  0.00    +0.000 C 
ATOM      8  O   UNL     1       2.137   5.882  20.760  0.00  0.00    +0.000 OA
ATOM      9  N   UNL     1       2.571   6.831  18.688  0.00  0.00    +0.000 N 
ATOM     10  H   UNL     1       2.493   7.719  18.204  0.00  0.00    +0.000 HD
BRANCH   7  13
ATOM     11  C   UNL     1       1.509   9.568  18.221  0.00  0.00    +0.000 C 
ATOM     12  C   UNL     1       1.159   9.248  19.631  0.00  0.00    +0.000 A 
ATOM     13  C   UNL     1       1.396   8.074  20.343  0.00  0.00    +0.000 A 
ATOM     14  O   UNL     1       0.884   8.192  21.612  0.00  0.00    +0.000 OA
ATOM     15  C   UNL     1       0.337   9.431  21.719  0.00  0.00    +0.000 A 
ATOM     16  C   UNL     1      -0.290   9.941  22.853  0.00  0.00    +0.000 A 
ATOM     17  C   UNL     1      -0.792  11.244  22.756  0.00  0.00    +0.000 A 
ATOM     18  C   UNL     1      -0.658  11.984  21.579  0.00  0.00    +0.000 A 
ATOM     19  C   UNL     1      -0.020  11.441  20.456  0.00  0.00    +0.000 A 
ATOM     20  C   UNL     1       0.485  10.129  20.531  0.00  0.00    +0.000 A 
ENDBRANCH   7  13
ENDBRANCH   1   9
BRANCH   5  21
ATOM     21  S   UNL     1       6.902   5.383  16.227  0.00  0.00    +0.000 S 
ATOM     22  O   UNL     1       7.129   6.804  16.380  0.00  0.00    +0.000 OA
ATOM     23  O   UNL     1       7.832   4.417  16.780  0.00  0.00    +0.000 OA
BRANCH  21  24
ATOM     24  N   UNL     1       6.722   5.045  14.553  0.00  0.00    +0.000 NA
ATOM     25  C   UNL     1       7.879   5.435  13.708  0.00  0.00    +0.000 C 
ATOM     26  C   UNL     1       7.588   5.251  12.223  0.00  0.00    +0.000 C 
ATOM     27  C   UNL     1       7.092   3.843  11.929  0.00  0.00    +0.000 C 
ATOM     28  C   UNL     1       5.832   3.584  12.739  0.00  0.00    +0.000 C 
ATOM     29  C   UNL     1       6.097   3.737  14.235  0.00  0.00    +0.000 C 
ENDBRANCH  21  24
ENDBRANCH   5  21
TORSDOF 4
ENDMDL
MODEL 3
REMARK VINA RESULT:      -9.4      3.663      9.246
REMARK  Name = 
REMARK  5 active torsions:
REMARK  status: ('A' for Active; 'I' for Inactive)
REMARK    1  A    between atoms: C_1  and  C_2
REMARK    2  A    between atoms: C_3  and  C_4
REMARK    3  A    between atoms: N_6  and  C_7
REMARK    4  A    between atoms: C_11  and  S_12
REMARK    5  A    between atoms: S_12  and  N_15
REMARK                            x       y       z     vdW  Elec       q    Type
REMARK                         _______ _______ _______ _____ _____    ______ ____
ROOT
ATOM      1  C   UNL     1       1.228   8.701  20.551  0.00  0.00    +0.000 A 
ATOM      2  C   UNL     1       1.081   8.594  21.937  0.00  0.00    +0.000 A 
ATOM      3  C   UNL     1       0.240   9.461  22.641  0.00  0.00    +0.000 A 
ATOM      4  C   UNL     1      -0.469  10.451  21.968  0.00  0.00    +0.000 A 
ATOM      5  C   UNL     1      -0.325  10.576  20.584  0.00  0.00    +0.000 A 
ATOM      6  C   UNL     1       0.542   9.723  19.878  0.00  0.00    +0.000 A 
ENDROOT
BRANCH   1   9
ATOM      7  C   UNL     1       2.171   6.453  19.946  0.00  0.00    +0.000 C 
ATOM      8  O   UNL     1       1.558   5.783  20.772  0.00  0.00    +0.000 OA
ATOM      9  N   UNL     1       2.042   7.831  19.795  0.00  0.00    +0.000 N 
ATOM     10  H   UNL     1       2.546   8.220  19.005  0.00  0.00    +0.000 HD
BRANCH   7  13
ATOM     11  C   UNL     1       1.649   4.234  17.556  0.00  0.00    +0.000 C 
ATOM     12  C   UNL     1       2.904   4.912  17.977  0.00  0.00    +0.000 A 
ATOM     13  C   UNL     1       3.091   5.851  18.989  0.00  0.00    +0.000 A 
ATOM     14  O   UNL     1       4.407   6.240  19.023  0.00  0.00    +0.000 OA
ATOM     15  C   UNL     1       5.063   5.550  18.053  0.00  0.00    +0.000 A 
ATOM     16  C   UNL     1       6.419   5.662  17.760  0.00  0.00    +0.000 A 
ATOM     17  C   UNL     1       6.900   4.863  16.716  0.00  0.00    +0.000 A 
ATOM     18  C   UNL     1       6.053   3.998  16.019  0.00  0.00    +0.000 A 
ATOM     19  C   UNL     1       4.692   3.909  16.340  0.00  0.00    +0.000 A 
ATOM     20  C   UNL     1       4.187   4.711  17.382  0.00  0.00    +0.000 A 
ENDBRANCH   7  13
ENDBRANCH   1   9
BRANCH   5  21
ATOM     21  S   UNL     1      -1.134  11.932  19.740  0.00  0.00    +0.000 S 
ATOM     22  O   UNL     1      -1.855  12.690  20.741  0.00  0.00    +0.000 OA
ATOM     23  O   UNL     1      -0.128  12.567  18.908  0.00  0.00    +0.000 OA
BRANCH  21  24
ATOM     24  N   UNL     1      -2.280  11.183  18.704  0.00  0.00    +0.000 NA
ATOM     25  C   UNL     1      -3.626  11.808  18.703  0.00  0.00    +0.000 C 
ATOM     26  C   UNL     1      -4.630  11.002  17.886  0.00  0.00    +0.000 C 
ATOM     27  C   UNL     1      -4.106  10.731  16.484  0.00  0.00    +0.000 C 
ATOM     28  C   UNL     1      -2.792   9.972  16.585  0.00  0.00    +0.000 C 
ATOM     29  C   UNL     1      -1.757  10.765  17.379  0.00  0.00    +0.000 C 
ENDBRANCH  21  24
ENDBRANCH   5  21
TORSDOF 4
ENDMDL
MODEL 4
REMARK VINA RESULT:      -9.2      2.540      3.375
REMARK  Name = 
REMARK  5 active torsions:
REMARK  status: ('A' for Active; 'I' for Inactive)
REMARK    1  A    between atoms: C_1  and  C_2
REMARK    2  A    between atoms: C_3  and  C_4
REMARK    3  A    between atoms: N_6  and  C_7
REMARK    4  A    between atoms: C_11  and  S_12
REMARK    5  A    between atoms: S_12  and  N_15
REMARK                            x       y       z     vdW  Elec       q    Type
REMARK                         _______ _______ _______ _____ _____    ______ ____
ROOT
ATOM      1  C   UNL     1       1.993   4.996  20.688  0.00  0.00    +0.000 A 
ATOM      2  C   UNL     1       2.108   4.084  21.741  0.00  0.00    +0.000 A 
ATOM      3  C   UNL     1       2.678   2.823  21.541  0.00  0.00    +0.000 A 
ATOM      4  C   UNL     1       3.143   2.454  20.282  0.00  0.00    +0.000 A 
ATOM      5  C   UNL     1       3.024   3.352  19.219  0.00  0.00    +0.000 A 
ATOM      6  C   UNL     1       2.426   4.610  19.411  0.00  0.00    +0.000 A 
ENDROOT
BRANCH   1   9
ATOM      7  C   UNL     1       1.845   7.455  20.195  0.00  0.00    +0.000 C 
ATOM      8  O   UNL     1       2.732   7.513  19.349  0.00  0.00    +0.000 OA
ATOM      9  N   UNL     1       1.451   6.290  20.848  0.00  0.00    +0.000 N 
ATOM     10  H   UNL     1       0.640   6.394  21.449  0.00  0.00    +0.000 HD
BRANCH   7  13
ATOM     11  C   UNL     1       0.965  10.129  18.469  0.00  0.00    +0.000 C 
ATOM     12  C   UNL     1       0.684   9.767  19.883  0.00  0.00    +0.000 A 
ATOM     13  C   UNL     1       1.066   8.624  20.583  0.00  0.00    +0.000 A 
ATOM     14  O   UNL     1       0.572   8.678  21.863  0.00  0.00    +0.000 OA
ATOM     15  C   UNL     1      -0.108   9.848  21.990  0.00  0.00    +0.000 A 
ATOM     16  C   UNL     1      -0.763  10.280  23.140  0.00  0.00    +0.000 A 
ATOM     17  C   UNL     1      -1.410  11.518  23.062  0.00  0.00    +0.000 A 
ATOM     18  C   UNL     1      -1.385  12.274  21.887  0.00  0.00    +0.000 A 
ATOM     19  C   UNL     1      -0.716  11.810  20.747  0.00  0.00    +0.000 A 
ATOM     20  C   UNL     1      -0.065  10.563  20.803  0.00  0.00    +0.000 A 
ENDBRANCH   7  13
ENDBRANCH   1   9
BRANCH   5  21
ATOM     21  S   UNL     1       3.500   2.827  17.574  0.00  0.00    +0.000 S 
ATOM     22  O   UNL     1       3.876   1.431  17.663  0.00  0.00    +0.000 OA
ATOM     23  O   UNL     1       2.445   3.256  16.676  0.00  0.00    +0.000 OA
BRANCH  21  24
ATOM     24  N   UNL     1       4.907   3.741  17.211  0.00  0.00    +0.000 NA
ATOM     25  C   UNL     1       4.755   4.707  16.095  0.00  0.00    +0.000 C 
ATOM     26  C   UNL     1       6.080   5.367  15.726  0.00  0.00    +0.000 C 
ATOM     27  C   UNL     1       6.748   5.978  16.948  0.00  0.00    +0.000 C 
ATOM     28  C   UNL     1       6.983   4.888  17.981  0.00  0.00    +0.000 C 
ATOM     29  C   UNL     1       5.671   4.223  18.389  0.00  0.00    +0.000 C 
ENDBRANCH  21  24
ENDBRANCH   5  21
TORSDOF 4
ENDMDL
MODEL 5
REMARK VINA RESULT:      -9.1      0.816      1.564
REMARK  Name = 
REMARK  5 active torsions:
REMARK  status: ('A' for Active; 'I' for Inactive)
REMARK    1  A    between atoms: C_1  and  C_2
REMARK    2  A    between atoms: C_3  and  C_4
REMARK    3  A    between atoms: N_6  and  C_7
REMARK    4  A    between atoms: C_11  and  S_12
REMARK    5  A    between atoms: S_12  and  N_15
REMARK                            x       y       z     vdW  Elec       q    Type
REMARK                         _______ _______ _______ _____ _____    ______ ____
ROOT
ATOM      1  C   UNL     1       3.239   5.931  18.063  0.00  0.00    +0.000 A 
ATOM      2  C   UNL     1       2.648   4.682  17.850  0.00  0.00    +0.000 A 
ATOM      3  C   UNL     1       3.343   3.658  17.201  0.00  0.00    +0.000 A 
ATOM      4  C   UNL     1       4.643   3.867  16.752  0.00  0.00    +0.000 A 
ATOM      5  C   UNL     1       5.243   5.113  16.947  0.00  0.00    +0.000 A 
ATOM      6  C   UNL     1       4.536   6.154  17.575  0.00  0.00    +0.000 A 
ENDROOT
BRANCH   1   9
ATOM      7  C   UNL     1       2.252   8.235  18.224  0.00  0.00    +0.000 C 
ATOM      8  O   UNL     1       2.465   8.594  17.070  0.00  0.00    +0.000 OA
ATOM      9  N   UNL     1       2.588   6.986  18.738  0.00  0.00    +0.000 N 
ATOM     10  H   UNL     1       2.258   6.812  19.682  0.00  0.00    +0.000 HD
BRANCH   7  13
ATOM     11  C   UNL     1       1.130   7.593  21.264  0.00  0.00    +0.000 C 
ATOM     12  C   UNL     1       1.082   8.850  20.470  0.00  0.00    +0.000 A 
ATOM     13  C   UNL     1       1.570   9.090  19.188  0.00  0.00    +0.000 A 
ATOM     14  O   UNL     1       1.339  10.399  18.842  0.00  0.00    +0.000 OA
ATOM     15  C   UNL     1       0.697  10.990  19.884  0.00  0.00    +0.000 A 
ATOM     16  C   UNL     1       0.288  12.320  19.930  0.00  0.00    +0.000 A 
ATOM     17  C   UNL     1      -0.357  12.734  21.101  0.00  0.00    +0.000 A 
ATOM     18  C   UNL     1      -0.577  11.847  22.158  0.00  0.00    +0.000 A 
ATOM     19  C   UNL     1      -0.152  10.514  22.079  0.00  0.00    +0.000 A 
ATOM     20  C   UNL     1       0.505  10.079  20.912  0.00  0.00    +0.000 A 
ENDBRANCH   7  13
ENDBRANCH   1   9
BRANCH   5  21
ATOM     21  S   UNL     1       6.864   5.422  16.252  0.00  0.00    +0.000 S 
ATOM     22  O   UNL     1       7.129   6.837  16.398  0.00  0.00    +0.000 OA
ATOM     23  O   UNL     1       7.760   4.435  16.826  0.00  0.00    +0.000 OA
BRANCH  21  24
ATOM     24  N   UNL     1       6.698   5.075  14.579  0.00  0.00    +0.000 NA
ATOM     25  C   UNL     1       7.865   5.452  13.743  0.00  0.00    +0.000 C 
ATOM     26  C   UNL     1       7.587   5.262  12.256  0.00  0.00    +0.000 C 
ATOM     27  C   UNL     1       7.084   3.856  11.966  0.00  0.00    +0.000 C 
ATOM     28  C   UNL     1       5.815   3.610  12.766  0.00  0.00    +0.000 C 
ATOM     29  C   UNL     1       6.067   3.770  14.262  0.00  0.00    +0.000 C 
ENDBRANCH  21  24
ENDBRANCH   5  21
TORSDOF 4
ENDMDL
MODEL 6
REMARK VINA RESULT:      -9.0      3.684      9.248
REMARK  Name = 
REMARK  5 active torsions:
REMARK  status: ('A' for Active; 'I' for Inactive)
REMARK    1  A    between atoms: C_1  and  C_2
REMARK    2  A    between atoms: C_3  and  C_4
REMARK    3  A    between atoms: N_6  and  C_7
REMARK    4  A    between atoms: C_11  and  S_12
REMARK    5  A    between atoms: S_12  and  N_15
REMARK                            x       y       z     vdW  Elec       q    Type
REMARK                         _______ _______ _______ _____ _____    ______ ____
ROOT
ATOM      1  C   UNL     1       0.760   9.805  18.174  0.00  0.00    +0.000 A 
ATOM      2  C   UNL     1      -0.588   9.799  17.802  0.00  0.00    +0.000 A 
ATOM      3  C   UNL     1      -1.424  10.876  18.107  0.00  0.00    +0.000 A 
ATOM      4  C   UNL     1      -0.925  11.980  18.792  0.00  0.00    +0.000 A 
ATOM      5  C   UNL     1       0.417  11.996  19.180  0.00  0.00    +0.000 A 
ATOM      6  C   UNL     1       1.253  10.901  18.899  0.00  0.00    +0.000 A 
ENDROOT
BRANCH   1   9
ATOM      7  C   UNL     1       2.218   7.843  18.748  0.00  0.00    +0.000 C 
ATOM      8  O   UNL     1       2.003   7.817  19.956  0.00  0.00    +0.000 OA
ATOM      9  N   UNL     1       1.648   8.754  17.863  0.00  0.00    +0.000 N 
ATOM     10  H   UNL     1       1.855   8.581  16.885  0.00  0.00    +0.000 HD
BRANCH   7  13
ATOM     11  C   UNL     1       1.769   4.632  18.116  0.00  0.00    +0.000 C 
ATOM     12  C   UNL     1       2.929   5.514  17.820  0.00  0.00    +0.000 A 
ATOM     13  C   UNL     1       3.086   6.871  18.095  0.00  0.00    +0.000 A 
ATOM     14  O   UNL     1       4.303   7.301  17.626  0.00  0.00    +0.000 OA
ATOM     15  C   UNL     1       4.928   6.231  17.068  0.00  0.00    +0.000 A 
ATOM     16  C   UNL     1       6.187   6.250  16.474  0.00  0.00    +0.000 A 
ATOM     17  C   UNL     1       6.650   5.037  15.953  0.00  0.00    +0.000 A 
ATOM     18  C   UNL     1       5.881   3.873  16.037  0.00  0.00    +0.000 A 
ATOM     19  C   UNL     1       4.618   3.888  16.642  0.00  0.00    +0.000 A 
ATOM     20  C   UNL     1       4.130   5.101  17.166  0.00  0.00    +0.000 A 
ENDBRANCH   7  13
ENDBRANCH   1   9
BRANCH   5  21
ATOM     21  S   UNL     1       1.023  13.355  20.175  0.00  0.00    +0.000 S 
ATOM     22  O   UNL     1      -0.129  13.982  20.790  0.00  0.00    +0.000 OA
ATOM     23  O   UNL     1       2.105  12.830  20.986  0.00  0.00    +0.000 OA
BRANCH  21  24
ATOM     24  N   UNL     1       1.697  14.460  19.047  0.00  0.00    +0.000 NA
ATOM     25  C   UNL     1       1.338  15.882  19.271  0.00  0.00    +0.000 C 
ATOM     26  C   UNL     1       1.839  16.782  18.147  0.00  0.00    +0.000 C 
ATOM     27  C   UNL     1       3.328  16.582  17.905  0.00  0.00    +0.000 C 
ATOM     28  C   UNL     1       3.579  15.124  17.553  0.00  0.00    +0.000 C 
ATOM     29  C   UNL     1       3.109  14.198  18.671  0.00  0.00    +0.000 C 
ENDBRANCH  21  24
ENDBRANCH   5  21
TORSDOF 4
ENDMDL
MODEL 7
REMARK VINA RESULT:      -9.0      3.621      9.303
REMARK  Name = 
REMARK  5 active torsions:
REMARK  status: ('A' for Active; 'I' for Inactive)
REMARK    1  A    between atoms: C_1  and  C_2
REMARK    2  A    between atoms: C_3  and  C_4
REMARK    3  A    between atoms: N_6  and  C_7
REMARK    4  A    between atoms: C_11  and  S_12
REMARK    5  A    between atoms: S_12  and  N_15
REMARK                            x       y       z     vdW  Elec       q    Type
REMARK                         _______ _______ _______ _____ _____    ______ ____
ROOT
ATOM      1  C   UNL     1       1.108   8.828  20.550  0.00  0.00    +0.000 A 
ATOM      2  C   UNL     1       0.992   8.692  21.936  0.00  0.00    +0.000 A 
ATOM      3  C   UNL     1       0.176   9.552  22.678  0.00  0.00    +0.000 A 
ATOM      4  C   UNL     1      -0.537  10.564  22.043  0.00  0.00    +0.000 A 
ATOM      5  C   UNL     1      -0.423  10.718  20.660  0.00  0.00    +0.000 A 
ATOM      6  C   UNL     1       0.418   9.873  19.915  0.00  0.00    +0.000 A 
ENDROOT
BRANCH   1   9
ATOM      7  C   UNL     1       2.209   8.114  18.408  0.00  0.00    +0.000 C 
ATOM      8  O   UNL     1       1.846   9.056  17.708  0.00  0.00    +0.000 OA
ATOM      9  N   UNL     1       1.895   7.966  19.756  0.00  0.00    +0.000 N 
ATOM     10  H   UNL     1       2.350   7.184  20.214  0.00  0.00    +0.000 HD
BRANCH   7  13
ATOM     11  C   UNL     1       1.717   4.852  18.246  0.00  0.00    +0.000 C 
ATOM     12  C   UNL     1       2.884   5.669  17.816  0.00  0.00    +0.000 A 
ATOM     13  C   UNL     1       3.058   7.049  17.893  0.00  0.00    +0.000 A 
ATOM     14  O   UNL     1       4.275   7.392  17.357  0.00  0.00    +0.000 OA
ATOM     15  C   UNL     1       4.882   6.246  16.951  0.00  0.00    +0.000 A 
ATOM     16  C   UNL     1       6.135   6.165  16.350  0.00  0.00    +0.000 A 
ATOM     17  C   UNL     1       6.579   4.884  16.004  0.00  0.00    +0.000 A 
ATOM     18  C   UNL     1       5.799   3.754  16.260  0.00  0.00    +0.000 A 
ATOM     19  C   UNL     1       4.542   3.870  16.868  0.00  0.00    +0.000 A 
ATOM     20  C   UNL     1       4.073   5.151  17.218  0.00  0.00    +0.000 A 
ENDBRANCH   7  13
ENDBRANCH   1   9
BRANCH   5  21
ATOM     21  S   UNL     1      -1.236  12.101  19.864  0.00  0.00    +0.000 S 
ATOM     22  O   UNL     1      -1.970  12.812  20.889  0.00  0.00    +0.000 OA
ATOM     23  O   UNL     1      -0.229  12.776  19.066  0.00  0.00    +0.000 OA
BRANCH  21  24
ATOM     24  N   UNL     1      -2.368  11.386  18.789  0.00  0.00    +0.000 NA
ATOM     25  C   UNL     1      -3.768  11.850  18.955  0.00  0.00    +0.000 C 
ATOM     26  C   UNL     1      -4.738  11.063  18.081  0.00  0.00    +0.000 C 
ATOM     27  C   UNL     1      -4.288  11.057  16.628  0.00  0.00    +0.000 C 
ATOM     28  C   UNL     1      -2.899  10.444  16.543  0.00  0.00    +0.000 C 
ATOM     29  C   UNL     1      -1.899  11.225  17.390  0.00  0.00    +0.000 C 
ENDBRANCH  21  24
ENDBRANCH   5  21
TORSDOF 4
ENDMDL
MODEL 8
REMARK VINA RESULT:      -9.0      0.959      1.985
REMARK  Name = 
REMARK  5 active torsions:
REMARK  status: ('A' for Active; 'I' for Inactive)
REMARK    1  A    between atoms: C_1  and  C_2
REMARK    2  A    between atoms: C_3  and  C_4
REMARK    3  A    between atoms: N_6  and  C_7
REMARK    4  A    between atoms: C_11  and  S_12
REMARK    5  A    between atoms: S_12  and  N_15
REMARK                            x       y       z     vdW  Elec       q    Type
REMARK                         _______ _______ _______ _____ _____    ______ ____
ROOT
ATOM      1  C   UNL     1       3.326   6.136  17.889  0.00  0.00    +0.000 A 
ATOM      2  C   UNL     1       2.734   4.870  17.855  0.00  0.00    +0.000 A 
ATOM      3  C   UNL     1       3.437   3.759  17.380  0.00  0.00    +0.000 A 
ATOM      4  C   UNL     1       4.746   3.897  16.929  0.00  0.00    +0.000 A 
ATOM      5  C   UNL     1       5.347   5.158  16.947  0.00  0.00    +0.000 A 
ATOM      6  C   UNL     1       4.632   6.282  17.398  0.00  0.00    +0.000 A 
ENDROOT
BRANCH   1   9
ATOM      7  C   UNL     1       2.055   7.427  19.628  0.00  0.00    +0.000 C 
ATOM      8  O   UNL     1       2.023   6.559  20.496  0.00  0.00    +0.000 OA
ATOM      9  N   UNL     1       2.666   7.280  18.386  0.00  0.00    +0.000 N 
ATOM     10  H   UNL     1       2.686   8.123  17.821  0.00  0.00    +0.000 HD
BRANCH   7  13
ATOM     11  C   UNL     1       1.180   8.994  22.401  0.00  0.00    +0.000 C 
ATOM     12  C   UNL     1       1.089   9.432  20.983  0.00  0.00    +0.000 A 
ATOM     13  C   UNL     1       1.474   8.748  19.832  0.00  0.00    +0.000 A 
ATOM     14  O   UNL     1       1.240   9.530  18.728  0.00  0.00    +0.000 OA
ATOM     15  C   UNL     1       0.700  10.699  19.162  0.00  0.00    +0.000 A 
ATOM     16  C   UNL     1       0.321  11.765  18.349  0.00  0.00    +0.000 A 
ATOM     17  C   UNL     1      -0.214  12.884  18.996  0.00  0.00    +0.000 A 
ATOM     18  C   UNL     1      -0.362  12.914  20.386  0.00  0.00    +0.000 A 
ATOM     19  C   UNL     1       0.028  11.824  21.175  0.00  0.00    +0.000 A 
ATOM     20  C   UNL     1       0.576  10.691  20.543  0.00  0.00    +0.000 A 
ENDBRANCH   7  13
ENDBRANCH   1   9
BRANCH   5  21
ATOM     21  S   UNL     1       6.982   5.357  16.244  0.00  0.00    +0.000 S 
ATOM     22  O   UNL     1       7.352   6.747  16.411  0.00  0.00    +0.000 OA
ATOM     23  O   UNL     1       7.806   4.297  16.795  0.00  0.00    +0.000 OA
BRANCH  21  24
ATOM     24  N   UNL     1       6.779   5.052  14.567  0.00  0.00    +0.000 NA
ATOM     25  C   UNL     1       7.934   5.435  13.717  0.00  0.00    +0.000 C 
ATOM     26  C   UNL     1       7.625   5.283  12.232  0.00  0.00    +0.000 C 
ATOM     27  C   UNL     1       7.101   3.890  11.919  0.00  0.00    +0.000 C 
ATOM     28  C   UNL     1       5.844   3.640  12.738  0.00  0.00    +0.000 C 
ATOM     29  C   UNL     1       6.127   3.762  14.232  0.00  0.00    +0.000 C 
ENDBRANCH  21  24
ENDBRANCH   5  21
TORSDOF 4
ENDMDL
MODEL 9
REMARK VINA RESULT:      -8.9      3.559      9.290
REMARK  Name = 
REMARK  5 active torsions:
REMARK  status: ('A' for Active; 'I' for Inactive)
REMARK    1  A    between atoms: C_1  and  C_2
REMARK    2  A    between atoms: C_3  and  C_4
REMARK    3  A    between atoms: N_6  and  C_7
REMARK    4  A    between atoms: C_11  and  S_12
REMARK    5  A    between atoms: S_12  and  N_15
REMARK                            x       y       z     vdW  Elec       q    Type
REMARK                         _______ _______ _______ _____ _____    ______ ____
ROOT
ATOM      1  C   UNL     1       1.273   8.726  20.409  0.00  0.00    +0.000 A 
ATOM      2  C   UNL     1       0.903   8.512  21.740  0.00  0.00    +0.000 A 
ATOM      3  C   UNL     1       0.073   9.416  22.410  0.00  0.00    +0.000 A 
ATOM      4  C   UNL     1      -0.400  10.551  21.759  0.00  0.00    +0.000 A 
ATOM      5  C   UNL     1      -0.030  10.783  20.432  0.00  0.00    +0.000 A 
ATOM      6  C   UNL     1       0.828   9.890  19.764  0.00  0.00    +0.000 A 
ENDROOT
BRANCH   1   9
ATOM      7  C   UNL     1       2.222   6.459  19.893  0.00  0.00    +0.000 C 
ATOM      8  O   UNL     1       1.621   5.822  20.753  0.00  0.00    +0.000 OA
ATOM      9  N   UNL     1       2.085   7.828  19.683  0.00  0.00    +0.000 N 
ATOM     10  H   UNL     1       2.579   8.185  18.872  0.00  0.00    +0.000 HD
BRANCH   7  13
ATOM     11  C   UNL     1       1.665   4.232  17.518  0.00  0.00    +0.000 C 
ATOM     12  C   UNL     1       2.934   4.878  17.948  0.00  0.00    +0.000 A 
ATOM     13  C   UNL     1       3.135   5.821  18.953  0.00  0.00    +0.000 A 
ATOM     14  O   UNL     1       4.462   6.172  19.000  0.00  0.00    +0.000 OA
ATOM     15  C   UNL     1       5.109   5.453  18.045  0.00  0.00    +0.000 A 
ATOM     16  C   UNL     1       6.472   5.522  17.768  0.00  0.00    +0.000 A 
ATOM     17  C   UNL     1       6.942   4.698  16.739  0.00  0.00    +0.000 A 
ATOM     18  C   UNL     1       6.078   3.851  16.039  0.00  0.00    +0.000 A 
ATOM     19  C   UNL     1       4.711   3.806  16.344  0.00  0.00    +0.000 A 
ATOM     20  C   UNL     1       4.217   4.632  17.371  0.00  0.00    +0.000 A 
ENDBRANCH   7  13
ENDBRANCH   1   9
BRANCH   5  21
ATOM     21  S   UNL     1      -0.530  12.308  19.639  0.00  0.00    +0.000 S 
ATOM     22  O   UNL     1      -0.925  13.225  20.687  0.00  0.00    +0.000 OA
ATOM     23  O   UNL     1       0.522  12.658  18.702  0.00  0.00    +0.000 OA
BRANCH  21  24
ATOM     24  N   UNL     1      -1.928  11.894  18.732  0.00  0.00    +0.000 NA
ATOM     25  C   UNL     1      -1.798  10.667  17.906  0.00  0.00    +0.000 C 
ATOM     26  C   UNL     1      -3.014  10.449  17.012  0.00  0.00    +0.000 C 
ATOM     27  C   UNL     1      -4.303  10.482  17.819  0.00  0.00    +0.000 C 
ATOM     28  C   UNL     1      -4.411  11.826  18.523  0.00  0.00    +0.000 C 
ATOM     29  C   UNL     1      -3.218  12.064  19.445  0.00  0.00    +0.000 C 
ENDBRANCH  21  24
ENDBRANCH   5  21
TORSDOF 4
ENDMDL
