MODEL 1
REMARK VINA RESULT:      -8.3      0.000      0.000
REMARK  Name = 
REMARK  9 active torsions:
REMARK  status: ('A' for Active; 'I' for Inactive)
REMARK    1  A    between atoms: C_1  and  O_2
REMARK    2  A    between atoms: O_2  and  C_3
REMARK    3  A    between atoms: C_3  and  C_4
REMARK    4  A    between atoms: C_4  and  C_5
REMARK    5  A    between atoms: C_4  and  C_26
REMARK    6  A    between atoms: C_9  and  N_10
REMARK    7  A    between atoms: C_15  and  C_16
REMARK    8  A    between atoms: C_18  and  C_19
REMARK    9  A    between atoms: N_30  and  C_31
REMARK                            x       y       z     vdW  Elec       q    Type
REMARK                         _______ _______ _______ _____ _____    ______ ____
ROOT
ATOM      1  C   UNL     1       1.848   8.263  19.481  0.00  0.00    +0.000 A 
ATOM      2  C   UNL     1       2.340   8.881  18.317  0.00  0.00    +0.000 A 
ATOM      3  C   UNL     1       2.936   8.128  17.311  0.00  0.00    +0.000 A 
ATOM      4  C   UNL     1       3.159   6.771  17.505  0.00  0.00    +0.000 A 
ATOM      5  C   UNL     1       2.888   6.195  18.755  0.00  0.00    +0.000 A 
ATOM      6  C   UNL     1       2.099   6.897  19.674  0.00  0.00    +0.000 A 
ENDROOT
BRANCH   5   7
ATOM      7  N   UNL     1       3.758   5.144  19.265  0.00  0.00    +0.000 N 
ATOM      8  C   UNL     1       5.151   5.643  19.376  0.00  0.00    +0.000 C 
ATOM      9  C   UNL     1       5.730   5.256  18.049  0.00  0.00    +0.000 A 
ATOM     10  C   UNL     1       5.017   4.146  17.589  0.00  0.00    +0.000 A 
ATOM     11  C   UNL     1       5.172   3.625  16.316  0.00  0.00    +0.000 A 
ATOM     12  C   UNL     1       6.075   4.263  15.460  0.00  0.00    +0.000 A 
ATOM     13  C   UNL     1       6.213   3.827  14.030  0.00  0.00    +0.000 C 
ATOM     14  C   UNL     1       6.797   5.390  15.917  0.00  0.00    +0.000 A 
ATOM     15  C   UNL     1       6.638   5.907  17.222  0.00  0.00    +0.000 A 
ATOM     16  C   UNL     1       3.835   3.975  18.463  0.00  0.00    +0.000 C 
ATOM     17  O   UNL     1       3.003   3.096  18.325  0.00  0.00    +0.000 OA
BRANCH  15  18
ATOM     18  C   UNL     1       7.349   7.179  17.606  0.00  0.00    +0.000 C 
ATOM     19  F   UNL     1       6.520   8.225  17.854  0.00  0.00    +0.000 F 
ATOM     20  F   UNL     1       8.091   7.027  18.739  0.00  0.00    +0.000 F 
ATOM     21  F   UNL     1       8.216   7.597  16.648  0.00  0.00    +0.000 F 
ENDBRANCH  15  18
ENDBRANCH   5   7
BRANCH   1  22
ATOM     22  C   UNL     1       1.105   9.100  20.516  0.00  0.00    +0.000 C 
BRANCH  22  23
ATOM     23  C   UNL     1       0.217  10.144  19.887  0.00  0.00    +0.000 A 
ATOM     24  N   UNL     1      -0.858   9.898  19.159  0.00  0.00    +0.000 NA
ATOM     25  N   UNL     1      -1.432  11.094  18.801  0.00  0.00    +0.000 NA
ATOM     26  C   UNL     1      -0.703  12.049  19.323  0.00  0.00    +0.000 A 
ATOM     27  N   UNL     1       0.351  11.506  20.001  0.00  0.00    +0.000 N 
ATOM     28  C   UNL     1       1.364  12.266  20.685  0.00  0.00    +0.000 C 
ENDBRANCH  22  23
BRANCH  22  29
ATOM     29  C   UNL     1       0.291   8.225  21.502  0.00  0.00    +0.000 C 
BRANCH  29  31
ATOM     30  C   UNL     1       0.014   9.537  23.439  0.00  0.00    +0.000 C 
ATOM     31  O   UNL     1      -0.616   9.029  22.268  0.00  0.00    +0.000 OA
ENDBRANCH  29  31
ENDBRANCH  22  29
ENDBRANCH   1  22
TORSDOF 6
ENDMDL
MODEL 2
REMARK VINA RESULT:      -8.2      3.551      8.215
REMARK  Name = 
REMARK  9 active torsions:
REMARK  status: ('A' for Active; 'I' for Inactive)
REMARK    1  A    between atoms: C_1  and  O_2
REMARK    2  A    between atoms: O_2  and  C_3
REMARK    3  A    between atoms: C_3  and  C_4
REMARK    4  A    between atoms: C_4  and  C_5
REMARK    5  A    between atoms: C_4  and  C_26
REMARK    6  A    between atoms: C_9  and  N_10
REMARK    7  A    between atoms: C_15  and  C_16
REMARK    8  A    between atoms: C_18  and  C_19
REMARK    9  A    between atoms: N_30  and  C_31
REMARK                            x       y       z     vdW  Elec       q    Type
REMARK                         _______ _______ _______ _____ _____    ______ ____
ROOT
ATOM      1  C   UNL     1       2.562   6.844  19.306  0.00  0.00    +0.000 A 
ATOM      2  C   UNL     1       2.563   7.364  18.000  0.00  0.00    +0.000 A 
ATOM      3  C   UNL     1       2.106   8.654  17.748  0.00  0.00    +0.000 A 
ATOM      4  C   UNL     1       1.531   9.394  18.773  0.00  0.00    +0.000 A 
ATOM      5  C   UNL     1       1.310   8.795  20.022  0.00  0.00    +0.000 A 
ATOM      6  C   UNL     1       1.958   7.592  20.327  0.00  0.00    +0.000 A 
ENDROOT
BRANCH   5   7
ATOM      7  N   UNL     1       0.115   9.137  20.782  0.00  0.00    +0.000 N 
ATOM      8  C   UNL     1      -1.075   9.124  19.896  0.00  0.00    +0.000 C 
ATOM      9  C   UNL     1      -1.147  10.551  19.446  0.00  0.00    +0.000 A 
ATOM     10  C   UNL     1      -0.553  11.333  20.438  0.00  0.00    +0.000 A 
ATOM     11  C   UNL     1      -0.295  12.684  20.280  0.00  0.00    +0.000 A 
ATOM     12  C   UNL     1      -0.635  13.271  19.057  0.00  0.00    +0.000 A 
ATOM     13  C   UNL     1      -0.281  14.701  18.768  0.00  0.00    +0.000 C 
ATOM     14  C   UNL     1      -1.233  12.483  18.045  0.00  0.00    +0.000 A 
ATOM     15  C   UNL     1      -1.501  11.108  18.222  0.00  0.00    +0.000 A 
ATOM     16  C   UNL     1       0.125  10.421  21.387  0.00  0.00    +0.000 C 
ATOM     17  O   UNL     1       0.746  10.791  22.366  0.00  0.00    +0.000 OA
BRANCH  15  18
ATOM     18  C   UNL     1      -2.031  10.303  17.064  0.00  0.00    +0.000 C 
ATOM     19  F   UNL     1      -3.198   9.658  17.324  0.00  0.00    +0.000 F 
ATOM     20  F   UNL     1      -2.283  11.081  15.973  0.00  0.00    +0.000 F 
ATOM     21  F   UNL     1      -1.155   9.354  16.648  0.00  0.00    +0.000 F 
ENDBRANCH  15  18
ENDBRANCH   5   7
BRANCH   1  22
ATOM     22  C   UNL     1       3.168   5.469  19.564  0.00  0.00    +0.000 C 
BRANCH  22  23
ATOM     23  C   UNL     1       2.211   4.347  19.252  0.00  0.00    +0.000 A 
ATOM     24  N   UNL     1       1.720   4.067  18.057  0.00  0.00    +0.000 NA
ATOM     25  N   UNL     1       0.925   2.951  18.156  0.00  0.00    +0.000 NA
ATOM     26  C   UNL     1       0.950   2.564  19.406  0.00  0.00    +0.000 A 
ATOM     27  N   UNL     1       1.730   3.413  20.138  0.00  0.00    +0.000 N 
ATOM     28  C   UNL     1       1.966   3.296  21.552  0.00  0.00    +0.000 C 
ENDBRANCH  22  23
BRANCH  22  29
ATOM     29  C   UNL     1       4.502   5.265  18.802  0.00  0.00    +0.000 C 
BRANCH  29  31
ATOM     30  C   UNL     1       6.841   5.526  18.928  0.00  0.00    +0.000 C 
ATOM     31  O   UNL     1       5.623   5.502  19.666  0.00  0.00    +0.000 OA
ENDBRANCH  29  31
ENDBRANCH  22  29
ENDBRANCH   1  22
TORSDOF 6
ENDMDL
MODEL 3
REMARK VINA RESULT:      -8.0      3.227      8.127
REMARK  Name = 
REMARK  9 active torsions:
REMARK  status: ('A' for Active; 'I' for Inactive)
REMARK    1  A    between atoms: C_1  and  O_2
REMARK    2  A    between atoms: O_2  and  C_3
REMARK    3  A    between atoms: C_3  and  C_4
REMARK    4  A    between atoms: C_4  and  C_5
REMARK    5  A    between atoms: C_4  and  C_26
REMARK    6  A    between atoms: C_9  and  N_10
REMARK    7  A    between atoms: C_15  and  C_16
REMARK    8  A    between atoms: C_18  and  C_19
REMARK    9  A    between atoms: N_30  and  C_31
REMARK                            x       y       z     vdW  Elec       q    Type
REMARK                         _______ _______ _______ _____ _____    ______ ____
ROOT
ATOM      1  C   UNL     1       2.896   6.272  18.911  0.00  0.00    +0.000 A 
ATOM      2  C   UNL     1       2.737   6.967  17.699  0.00  0.00    +0.000 A 
ATOM      3  C   UNL     1       2.303   8.288  17.691  0.00  0.00    +0.000 A 
ATOM      4  C   UNL     1       1.907   8.892  18.877  0.00  0.00    +0.000 A 
ATOM      5  C   UNL     1       1.837   8.131  20.053  0.00  0.00    +0.000 A 
ATOM      6  C   UNL     1       2.471   6.884  20.099  0.00  0.00    +0.000 A 
ENDROOT
BRANCH   5   7
ATOM      7  N   UNL     1       0.774   8.391  21.015  0.00  0.00    +0.000 N 
ATOM      8  C   UNL     1      -0.510   8.620  20.308  0.00  0.00    +0.000 C 
ATOM      9  C   UNL     1      -0.516  10.109  20.142  0.00  0.00    +0.000 A 
ATOM     10  C   UNL     1       0.257  10.648  21.173  0.00  0.00    +0.000 A 
ATOM     11  C   UNL     1       0.607  11.986  21.233  0.00  0.00    +0.000 A 
ATOM     12  C   UNL     1       0.173  12.817  20.196  0.00  0.00    +0.000 A 
ATOM     13  C   UNL     1       0.609  14.253  20.131  0.00  0.00    +0.000 C 
ATOM     14  C   UNL     1      -0.605  12.278  19.145  0.00  0.00    +0.000 A 
ATOM     15  C   UNL     1      -0.965  10.913  19.100  0.00  0.00    +0.000 A 
ATOM     16  C   UNL     1       0.964   9.531  21.839  0.00  0.00    +0.000 C 
ATOM     17  O   UNL     1       1.727   9.667  22.779  0.00  0.00    +0.000 OA
BRANCH  15  18
ATOM     18  C   UNL     1      -1.695  10.380  17.894  0.00  0.00    +0.000 C 
ATOM     19  F   UNL     1      -2.826   9.687  18.192  0.00  0.00    +0.000 F 
ATOM     20  F   UNL     1      -2.091  11.377  17.054  0.00  0.00    +0.000 F 
ATOM     21  F   UNL     1      -0.924   9.549  17.147  0.00  0.00    +0.000 F 
ENDBRANCH  15  18
ENDBRANCH   5   7
BRANCH   1  22
ATOM     22  C   UNL     1       3.475   4.861  18.893  0.00  0.00    +0.000 C 
BRANCH  22  23
ATOM     23  C   UNL     1       4.966   4.849  18.674  0.00  0.00    +0.000 A 
ATOM     24  N   UNL     1       5.881   5.057  19.606  0.00  0.00    +0.000 NA
ATOM     25  N   UNL     1       7.125   4.920  19.042  0.00  0.00    +0.000 NA
ATOM     26  C   UNL     1       6.951   4.625  17.778  0.00  0.00    +0.000 A 
ATOM     27  N   UNL     1       5.616   4.583  17.493  0.00  0.00    +0.000 N 
ATOM     28  C   UNL     1       5.064   4.303  16.195  0.00  0.00    +0.000 C 
ENDBRANCH  22  23
BRANCH  22  29
ATOM     29  C   UNL     1       3.114   4.064  20.173  0.00  0.00    +0.000 C 
BRANCH  29  31
ATOM     30  C   UNL     1       0.875   3.330  20.120  0.00  0.00    +0.000 C 
ATOM     31  O   UNL     1       2.231   2.977  19.864  0.00  0.00    +0.000 OA
ENDBRANCH  29  31
ENDBRANCH  22  29
ENDBRANCH   1  22
TORSDOF 6
ENDMDL
MODEL 4
REMARK VINA RESULT:      -8.0      3.379      8.210
REMARK  Name = 
REMARK  9 active torsions:
REMARK  status: ('A' for Active; 'I' for Inactive)
REMARK    1  A    between atoms: C_1  and  O_2
REMARK    2  A    between atoms: O_2  and  C_3
REMARK    3  A    between atoms: C_3  and  C_4
REMARK    4  A    between atoms: C_4  and  C_5
REMARK    5  A    between atoms: C_4  and  C_26
REMARK    6  A    between atoms: C_9  and  N_10
REMARK    7  A    between atoms: C_15  and  C_16
REMARK    8  A    between atoms: C_18  and  C_19
REMARK    9  A    between atoms: N_30  and  C_31
REMARK                            x       y       z     vdW  Elec       q    Type
REMARK                         _______ _______ _______ _____ _____    ______ ____
ROOT
ATOM      1  C   UNL     1       2.316   6.732  19.231  0.00  0.00    +0.000 A 
ATOM      2  C   UNL     1       2.413   7.353  17.973  0.00  0.00    +0.000 A 
ATOM      3  C   UNL     1       2.119   8.705  17.825  0.00  0.00    +0.000 A 
ATOM      4  C   UNL     1       1.610   9.422  18.899  0.00  0.00    +0.000 A 
ATOM      5  C   UNL     1       1.286   8.753  20.089  0.00  0.00    +0.000 A 
ATOM      6  C   UNL     1       1.779   7.460  20.301  0.00  0.00    +0.000 A 
ENDROOT
BRANCH   5   7
ATOM      7  N   UNL     1       0.120   9.173  20.856  0.00  0.00    +0.000 N 
ATOM      8  C   UNL     1      -1.085   9.179  19.991  0.00  0.00    +0.000 C 
ATOM      9  C   UNL     1      -1.105  10.592  19.490  0.00  0.00    +0.000 A 
ATOM     10  C   UNL     1      -0.460  11.382  20.444  0.00  0.00    +0.000 A 
ATOM     11  C   UNL     1      -0.147  12.714  20.232  0.00  0.00    +0.000 A 
ATOM     12  C   UNL     1      -0.485  13.271  18.994  0.00  0.00    +0.000 A 
ATOM     13  C   UNL     1      -0.076  14.674  18.649  0.00  0.00    +0.000 C 
ATOM     14  C   UNL     1      -1.134  12.475  18.022  0.00  0.00    +0.000 A 
ATOM     15  C   UNL     1      -1.457  11.120  18.253  0.00  0.00    +0.000 A 
ATOM     16  C   UNL     1       0.196  10.476  21.413  0.00  0.00    +0.000 C 
ATOM     17  O   UNL     1       0.850  10.854  22.368  0.00  0.00    +0.000 OA
BRANCH  15  18
ATOM     18  C   UNL     1      -2.042  10.298  17.134  0.00  0.00    +0.000 C 
ATOM     19  F   UNL     1      -3.208   9.679  17.451  0.00  0.00    +0.000 F 
ATOM     20  F   UNL     1      -2.320  11.055  16.035  0.00  0.00    +0.000 F 
ATOM     21  F   UNL     1      -1.196   9.324  16.710  0.00  0.00    +0.000 F 
ENDBRANCH  15  18
ENDBRANCH   5   7
BRANCH   1  22
ATOM     22  C   UNL     1       2.747   5.277  19.381  0.00  0.00    +0.000 C 
BRANCH  22  23
ATOM     23  C   UNL     1       4.198   5.063  19.031  0.00  0.00    +0.000 A 
ATOM     24  N   UNL     1       5.228   5.464  19.756  0.00  0.00    +0.000 NA
ATOM     25  N   UNL     1       6.386   5.048  19.145  0.00  0.00    +0.000 NA
ATOM     26  C   UNL     1       6.044   4.395  18.063  0.00  0.00    +0.000 A 
ATOM     27  N   UNL     1       4.684   4.389  17.938  0.00  0.00    +0.000 N 
ATOM     28  C   UNL     1       3.964   3.774  16.855  0.00  0.00    +0.000 C 
ENDBRANCH  22  23
BRANCH  22  29
ATOM     29  C   UNL     1       2.447   4.721  20.796  0.00  0.00    +0.000 C 
BRANCH  29  31
ATOM     30  C   UNL     1       1.011   3.306  19.576  0.00  0.00    +0.000 C 
ATOM     31  O   UNL     1       1.211   3.994  20.807  0.00  0.00    +0.000 OA
ENDBRANCH  29  31
ENDBRANCH  22  29
ENDBRANCH   1  22
TORSDOF 6
ENDMDL
MODEL 5
REMARK VINA RESULT:      -7.9      3.361      8.190
REMARK  Name = 
REMARK  9 active torsions:
REMARK  status: ('A' for Active; 'I' for Inactive)
REMARK    1  A    between atoms: C_1  and  O_2
REMARK    2  A    between atoms: O_2  and  C_3
REMARK    3  A    between atoms: C_3  and  C_4
REMARK    4  A    between atoms: C_4  and  C_5
REMARK    5  A    between atoms: C_4  and  C_26
REMARK    6  A    between atoms: C_9  and  N_10
REMARK    7  A    between atoms: C_15  and  C_16
REMARK    8  A    between atoms: C_18  and  C_19
REMARK    9  A    between atoms: N_30  and  C_31
REMARK                            x       y       z     vdW  Elec       q    Type
REMARK                         _______ _______ _______ _____ _____    ______ ____
ROOT
ATOM      1  C   UNL     1       2.732   6.448  18.951  0.00  0.00    +0.000 A 
ATOM      2  C   UNL     1       2.636   7.187  17.759  0.00  0.00    +0.000 A 
ATOM      3  C   UNL     1       2.225   8.516  17.779  0.00  0.00    +0.000 A 
ATOM      4  C   UNL     1       1.789   9.085  18.968  0.00  0.00    +0.000 A 
ATOM      5  C   UNL     1       1.656   8.285  20.113  0.00  0.00    +0.000 A 
ATOM      6  C   UNL     1       2.267   7.026  20.141  0.00  0.00    +0.000 A 
ENDROOT
BRANCH   5   7
ATOM      7  N   UNL     1       0.558   8.531  21.038  0.00  0.00    +0.000 N 
ATOM      8  C   UNL     1      -0.692   8.802  20.287  0.00  0.00    +0.000 C 
ATOM      9  C   UNL     1      -0.670  10.296  20.168  0.00  0.00    +0.000 A 
ATOM     10  C   UNL     1       0.066  10.790  21.247  0.00  0.00    +0.000 A 
ATOM     11  C   UNL     1       0.432  12.120  21.364  0.00  0.00    +0.000 A 
ATOM     12  C   UNL     1       0.054  12.990  20.336  0.00  0.00    +0.000 A 
ATOM     13  C   UNL     1       0.512  14.420  20.336  0.00  0.00    +0.000 C 
ATOM     14  C   UNL     1      -0.688  12.495  19.238  0.00  0.00    +0.000 A 
ATOM     15  C   UNL     1      -1.064  11.138  19.134  0.00  0.00    +0.000 A 
ATOM     16  C   UNL     1       0.730   9.642  21.905  0.00  0.00    +0.000 C 
ATOM     17  O   UNL     1       1.454   9.737  22.879  0.00  0.00    +0.000 OA
BRANCH  15  18
ATOM     18  C   UNL     1      -1.751  10.654  17.883  0.00  0.00    +0.000 C 
ATOM     19  F   UNL     1      -2.914   9.990  18.110  0.00  0.00    +0.000 F 
ATOM     20  F   UNL     1      -2.078  11.682  17.050  0.00  0.00    +0.000 F 
ATOM     21  F   UNL     1      -0.970   9.818  17.154  0.00  0.00    +0.000 F 
ENDBRANCH  15  18
ENDBRANCH   5   7
BRANCH   1  22
ATOM     22  C   UNL     1       3.287   5.028  18.908  0.00  0.00    +0.000 C 
BRANCH  22  23
ATOM     23  C   UNL     1       2.204   3.980  18.959  0.00  0.00    +0.000 A 
ATOM     24  N   UNL     1       1.557   3.495  17.914  0.00  0.00    +0.000 NA
ATOM     25  N   UNL     1       0.682   2.529  18.346  0.00  0.00    +0.000 NA
ATOM     26  C   UNL     1       0.815   2.434  19.645  0.00  0.00    +0.000 A 
ATOM     27  N   UNL     1       1.746   3.333  20.081  0.00  0.00    +0.000 N 
ATOM     28  C   UNL     1       2.131   3.513  21.455  0.00  0.00    +0.000 C 
ENDBRANCH  22  23
BRANCH  22  29
ATOM     29  C   UNL     1       4.203   4.795  17.679  0.00  0.00    +0.000 C 
BRANCH  29  31
ATOM     30  C   UNL     1       6.539   4.730  17.379  0.00  0.00    +0.000 C 
ATOM     31  O   UNL     1       5.430   4.165  18.071  0.00  0.00    +0.000 OA
ENDBRANCH  29  31
ENDBRANCH  22  29
ENDBRANCH   1  22
TORSDOF 6
ENDMDL
MODEL 6
REMARK VINA RESULT:      -7.8      3.512      8.229
REMARK  Name = 
REMARK  9 active torsions:
REMARK  status: ('A' for Active; 'I' for Inactive)
REMARK    1  A    between atoms: C_1  and  O_2
REMARK    2  A    between atoms: O_2  and  C_3
REMARK    3  A    between atoms: C_3  and  C_4
REMARK    4  A    between atoms: C_4  and  C_5
REMARK    5  A    between atoms: C_4  and  C_26
REMARK    6  A    between atoms: C_9  and  N_10
REMARK    7  A    between atoms: C_15  and  C_16
REMARK    8  A    between atoms: C_18  and  C_19
REMARK    9  A    between atoms: N_30  and  C_31
REMARK                            x       y       z     vdW  Elec       q    Type
REMARK                         _______ _______ _______ _____ _____    ______ ____
ROOT
ATOM      1  C   UNL     1       2.686   6.870  19.448  0.00  0.00    +0.000 A 
ATOM      2  C   UNL     1       2.617   7.252  18.096  0.00  0.00    +0.000 A 
ATOM      3  C   UNL     1       2.054   8.470  17.731  0.00  0.00    +0.000 A 
ATOM      4  C   UNL     1       1.445   9.265  18.693  0.00  0.00    +0.000 A 
ATOM      5  C   UNL     1       1.300   8.782  20.002  0.00  0.00    +0.000 A 
ATOM      6  C   UNL     1       2.048   7.670  20.406  0.00  0.00    +0.000 A 
ENDROOT
BRANCH   5   7
ATOM      7  N   UNL     1       0.099   9.107  20.760  0.00  0.00    +0.000 N 
ATOM      8  C   UNL     1      -1.085   9.105  19.866  0.00  0.00    +0.000 C 
ATOM      9  C   UNL     1      -1.159  10.540  19.439  0.00  0.00    +0.000 A 
ATOM     10  C   UNL     1      -0.573  11.307  20.448  0.00  0.00    +0.000 A 
ATOM     11  C   UNL     1      -0.319  12.661  20.314  0.00  0.00    +0.000 A 
ATOM     12  C   UNL     1      -0.653  13.267  19.099  0.00  0.00    +0.000 A 
ATOM     13  C   UNL     1      -0.302  14.703  18.837  0.00  0.00    +0.000 C 
ATOM     14  C   UNL     1      -1.242  12.495  18.070  0.00  0.00    +0.000 A 
ATOM     15  C   UNL     1      -1.506  11.117  18.222  0.00  0.00    +0.000 A 
ATOM     16  C   UNL     1       0.101  10.382  21.386  0.00  0.00    +0.000 C 
ATOM     17  O   UNL     1       0.715  10.737  22.376  0.00  0.00    +0.000 OA
BRANCH  15  18
ATOM     18  C   UNL     1      -2.027  10.329  17.047  0.00  0.00    +0.000 C 
ATOM     19  F   UNL     1      -2.287  11.082  15.947  0.00  0.00    +0.000 F 
ATOM     20  F   UNL     1      -1.140   9.380  16.635  0.00  0.00    +0.000 F 
ATOM     21  F   UNL     1      -3.174   9.665  17.336  0.00  0.00    +0.000 F 
ENDBRANCH  15  18
ENDBRANCH   5   7
BRANCH   1  22
ATOM     22  C   UNL     1       3.405   5.579  19.824  0.00  0.00    +0.000 C 
BRANCH  22  23
ATOM     23  C   UNL     1       2.451   4.465  20.173  0.00  0.00    +0.000 A 
ATOM     24  N   UNL     1       2.224   4.003  21.391  0.00  0.00    +0.000 NA
ATOM     25  N   UNL     1       1.261   3.026  21.320  0.00  0.00    +0.000 NA
ATOM     26  C   UNL     1       0.910   2.913  20.063  0.00  0.00    +0.000 A 
ATOM     27  N   UNL     1       1.637   3.783  19.301  0.00  0.00    +0.000 N 
ATOM     28  C   UNL     1       1.521   3.915  17.874  0.00  0.00    +0.000 C 
ENDBRANCH  22  23
BRANCH  22  29
ATOM     29  C   UNL     1       4.391   5.115  18.721  0.00  0.00    +0.000 C 
BRANCH  29  31
ATOM     30  C   UNL     1       6.727   5.375  18.892  0.00  0.00    +0.000 C 
ATOM     31  O   UNL     1       5.600   4.606  19.300  0.00  0.00    +0.000 OA
ENDBRANCH  29  31
ENDBRANCH  22  29
ENDBRANCH   1  22
TORSDOF 6
ENDMDL
MODEL 7
REMARK VINA RESULT:      -7.8      0.597      1.313
REMARK  Name = 
REMARK  9 active torsions:
REMARK  status: ('A' for Active; 'I' for Inactive)
REMARK    1  A    between atoms: C_1  and  O_2
REMARK    2  A    between atoms: O_2  and  C_3
REMARK    3  A    between atoms: C_3  and  C_4
REMARK    4  A    between atoms: C_4  and  C_5
REMARK    5  A    between atoms: C_4  and  C_26
REMARK    6  A    between atoms: C_9  and  N_10
REMARK    7  A    between atoms: C_15  and  C_16
REMARK    8  A    between atoms: C_18  and  C_19
REMARK    9  A    between atoms: N_30  and  C_31
REMARK                            x       y       z     vdW  Elec       q    Type
REMARK                         _______ _______ _______ _____ _____    ______ ____
ROOT
ATOM      1  C   UNL     1       1.825   8.315  19.761  0.00  0.00    +0.000 A 
ATOM      2  C   UNL     1       2.283   8.958  18.597  0.00  0.00    +0.000 A 
ATOM      3  C   UNL     1       2.809   8.222  17.540  0.00  0.00    +0.000 A 
ATOM      4  C   UNL     1       2.998   6.854  17.679  0.00  0.00    +0.000 A 
ATOM      5  C   UNL     1       2.767   6.243  18.921  0.00  0.00    +0.000 A 
ATOM      6  C   UNL     1       2.043   6.937  19.898  0.00  0.00    +0.000 A 
ENDROOT
BRANCH   5   7
ATOM      7  N   UNL     1       3.626   5.150  19.356  0.00  0.00    +0.000 N 
ATOM      8  C   UNL     1       5.037   5.605  19.422  0.00  0.00    +0.000 C 
ATOM      9  C   UNL     1       5.545   5.248  18.058  0.00  0.00    +0.000 A 
ATOM     10  C   UNL     1       4.780   4.177  17.593  0.00  0.00    +0.000 A 
ATOM     11  C   UNL     1       4.864   3.697  16.298  0.00  0.00    +0.000 A 
ATOM     12  C   UNL     1       5.748   4.338  15.424  0.00  0.00    +0.000 A 
ATOM     13  C   UNL     1       5.810   3.949  13.975  0.00  0.00    +0.000 C 
ATOM     14  C   UNL     1       6.523   5.427  15.887  0.00  0.00    +0.000 A 
ATOM     15  C   UNL     1       6.436   5.902  17.214  0.00  0.00    +0.000 A 
ATOM     16  C   UNL     1       3.632   4.009  18.513  0.00  0.00    +0.000 C 
ATOM     17  O   UNL     1       2.769   3.160  18.382  0.00  0.00    +0.000 OA
BRANCH  15  18
ATOM     18  C   UNL     1       7.202   7.139  17.608  0.00  0.00    +0.000 C 
ATOM     19  F   UNL     1       8.094   7.560  16.675  0.00  0.00    +0.000 F 
ATOM     20  F   UNL     1       6.377   8.202  17.828  0.00  0.00    +0.000 F 
ATOM     21  F   UNL     1       7.903   6.968  18.758  0.00  0.00    +0.000 F 
ENDBRANCH  15  18
ENDBRANCH   5   7
BRANCH   1  22
ATOM     22  C   UNL     1       1.156   9.139  20.856  0.00  0.00    +0.000 C 
BRANCH  22  23
ATOM     23  C   UNL     1       0.825  10.539  20.407  0.00  0.00    +0.000 A 
ATOM     24  N   UNL     1       1.436  11.639  20.811  0.00  0.00    +0.000 NA
ATOM     25  N   UNL     1       0.893  12.714  20.151  0.00  0.00    +0.000 NA
ATOM     26  C   UNL     1      -0.035  12.253  19.351  0.00  0.00    +0.000 A 
ATOM     27  N   UNL     1      -0.127  10.897  19.484  0.00  0.00    +0.000 N 
ATOM     28  C   UNL     1      -1.055  10.065  18.765  0.00  0.00    +0.000 C 
ENDBRANCH  22  23
BRANCH  22  29
ATOM     29  C   UNL     1      -0.108   8.442  21.422  0.00  0.00    +0.000 C 
BRANCH  29  31
ATOM     30  C   UNL     1       0.001   9.448  23.551  0.00  0.00    +0.000 C 
ATOM     31  O   UNL     1      -0.775   9.290  22.368  0.00  0.00    +0.000 OA
ENDBRANCH  29  31
ENDBRANCH  22  29
ENDBRANCH   1  22
TORSDOF 6
ENDMDL
MODEL 8
REMARK VINA RESULT:      -7.6      3.257      7.984
REMARK  Name = 
REMARK  9 active torsions:
REMARK  status: ('A' for Active; 'I' for Inactive)
REMARK    1  A    between atoms: C_1  and  O_2
REMARK    2  A    between atoms: O_2  and  C_3
REMARK    3  A    between atoms: C_3  and  C_4
REMARK    4  A    between atoms: C_4  and  C_5
REMARK    5  A    between atoms: C_4  and  C_26
REMARK    6  A    between atoms: C_9  and  N_10
REMARK    7  A    between atoms: C_15  and  C_16
REMARK    8  A    between atoms: C_18  and  C_19
REMARK    9  A    between atoms: N_30  and  C_31
REMARK                            x       y       z     vdW  Elec       q    Type
REMARK                         _______ _______ _______ _____ _____    ______ ____
ROOT
ATOM      1  C   UNL     1       2.588   6.120  18.785  0.00  0.00    +0.000 A 
ATOM      2  C   UNL     1       2.592   6.952  17.652  0.00  0.00    +0.000 A 
ATOM      3  C   UNL     1       2.388   8.323  17.776  0.00  0.00    +0.000 A 
ATOM      4  C   UNL     1       2.057   8.861  19.013  0.00  0.00    +0.000 A 
ATOM      5  C   UNL     1       1.818   8.007  20.100  0.00  0.00    +0.000 A 
ATOM      6  C   UNL     1       2.232   6.672  20.024  0.00  0.00    +0.000 A 
ENDROOT
BRANCH   5   7
ATOM      7  N   UNL     1       0.781   8.346  21.066  0.00  0.00    +0.000 N 
ATOM      8  C   UNL     1      -0.499   8.616  20.367  0.00  0.00    +0.000 C 
ATOM      9  C   UNL     1      -0.435  10.099  20.157  0.00  0.00    +0.000 A 
ATOM     10  C   UNL     1       0.375  10.629  21.163  0.00  0.00    +0.000 A 
ATOM     11  C   UNL     1       0.789  11.950  21.179  0.00  0.00    +0.000 A 
ATOM     12  C   UNL     1       0.383  12.770  20.122  0.00  0.00    +0.000 A 
ATOM     13  C   UNL     1       0.886  14.180  20.010  0.00  0.00    +0.000 C 
ATOM     14  C   UNL     1      -0.434  12.238  19.097  0.00  0.00    +0.000 A 
ATOM     15  C   UNL     1      -0.859  10.892  19.096  0.00  0.00    +0.000 A 
ATOM     16  C   UNL     1       1.036   9.499  21.853  0.00  0.00    +0.000 C 
ATOM     17  O   UNL     1       1.816   9.625  22.780  0.00  0.00    +0.000 OA
BRANCH  15  18
ATOM     18  C   UNL     1      -1.629  10.360  17.915  0.00  0.00    +0.000 C 
ATOM     19  F   UNL     1      -2.780   9.719  18.246  0.00  0.00    +0.000 F 
ATOM     20  F   UNL     1      -2.000  11.352  17.058  0.00  0.00    +0.000 F 
ATOM     21  F   UNL     1      -0.903   9.483  17.176  0.00  0.00    +0.000 F 
ENDBRANCH  15  18
ENDBRANCH   5   7
BRANCH   1  22
ATOM     22  C   UNL     1       2.921   4.641  18.627  0.00  0.00    +0.000 C 
BRANCH  22  23
ATOM     23  C   UNL     1       4.150   4.409  17.785  0.00  0.00    +0.000 A 
ATOM     24  N   UNL     1       4.162   3.872  16.577  0.00  0.00    +0.000 NA
ATOM     25  N   UNL     1       5.453   3.868  16.108  0.00  0.00    +0.000 NA
ATOM     26  C   UNL     1       6.206   4.410  17.032  0.00  0.00    +0.000 A 
ATOM     27  N   UNL     1       5.439   4.753  18.110  0.00  0.00    +0.000 N 
ATOM     28  C   UNL     1       5.943   5.358  19.314  0.00  0.00    +0.000 C 
ENDBRANCH  22  23
BRANCH  22  29
ATOM     29  C   UNL     1       3.064   3.924  19.994  0.00  0.00    +0.000 C 
BRANCH  29  31
ATOM     30  C   UNL     1       1.676   2.900  21.600  0.00  0.00    +0.000 C 
ATOM     31  O   UNL     1       1.972   3.020  20.212  0.00  0.00    +0.000 OA
ENDBRANCH  29  31
ENDBRANCH  22  29
ENDBRANCH   1  22
TORSDOF 6
ENDMDL
MODEL 9
REMARK VINA RESULT:      -7.5      3.346      8.207
REMARK  Name = 
REMARK  9 active torsions:
REMARK  status: ('A' for Active; 'I' for Inactive)
REMARK    1  A    between atoms: C_1  and  O_2
REMARK    2  A    between atoms: O_2  and  C_3
REMARK    3  A    between atoms: C_3  and  C_4
REMARK    4  A    between atoms: C_4  and  C_5
REMARK    5  A    between atoms: C_4  and  C_26
REMARK    6  A    between atoms: C_9  and  N_10
REMARK    7  A    between atoms: C_15  and  C_16
REMARK    8  A    between atoms: C_18  and  C_19
REMARK    9  A    between atoms: N_30  and  C_31
REMARK                            x       y       z     vdW  Elec       q    Type
REMARK                         _______ _______ _______ _____ _____    ______ ____
ROOT
ATOM      1  C   UNL     1       2.689   6.282  18.863  0.00  0.00    +0.000 A 
ATOM      2  C   UNL     1       2.591   7.021  17.671  0.00  0.00    +0.000 A 
ATOM      3  C   UNL     1       2.243   8.368  17.698  0.00  0.00    +0.000 A 
ATOM      4  C   UNL     1       1.872   8.961  18.898  0.00  0.00    +0.000 A 
ATOM      5  C   UNL     1       1.738   8.171  20.050  0.00  0.00    +0.000 A 
ATOM      6  C   UNL     1       2.290   6.885  20.064  0.00  0.00    +0.000 A 
ENDROOT
BRANCH   5   7
ATOM      7  N   UNL     1       0.682   8.471  21.008  0.00  0.00    +0.000 N 
ATOM      8  C   UNL     1      -0.587   8.757  20.296  0.00  0.00    +0.000 C 
ATOM      9  C   UNL     1      -0.530  10.246  20.137  0.00  0.00    +0.000 A 
ATOM     10  C   UNL     1       0.259  10.747  21.174  0.00  0.00    +0.000 A 
ATOM     11  C   UNL     1       0.664  12.069  21.242  0.00  0.00    +0.000 A 
ATOM     12  C   UNL     1       0.270  12.922  20.206  0.00  0.00    +0.000 A 
ATOM     13  C   UNL     1       0.766  14.338  20.150  0.00  0.00    +0.000 C 
ATOM     14  C   UNL     1      -0.525  12.420  19.150  0.00  0.00    +0.000 A 
ATOM     15  C   UNL     1      -0.941  11.071  19.096  0.00  0.00    +0.000 A 
ATOM     16  C   UNL     1       0.916   9.599  21.838  0.00  0.00    +0.000 C 
ATOM     17  O   UNL     1       1.679   9.699  22.782  0.00  0.00    +0.000 OA
BRANCH  15  18
ATOM     18  C   UNL     1      -1.687  10.575  17.885  0.00  0.00    +0.000 C 
ATOM     19  F   UNL     1      -2.025  11.551  17.003  0.00  0.00    +0.000 F 
ATOM     20  F   UNL     1      -0.955   9.675  17.167  0.00  0.00    +0.000 F 
ATOM     21  F   UNL     1      -2.840   9.939  18.212  0.00  0.00    +0.000 F 
ENDBRANCH  15  18
ENDBRANCH   5   7
BRANCH   1  22
ATOM     22  C   UNL     1       3.176   4.838  18.809  0.00  0.00    +0.000 C 
BRANCH  22  23
ATOM     23  C   UNL     1       2.533   3.969  19.860  0.00  0.00    +0.000 A 
ATOM     24  N   UNL     1       1.302   4.109  20.322  0.00  0.00    +0.000 NA
ATOM     25  N   UNL     1       1.056   3.108  21.230  0.00  0.00    +0.000 NA
ATOM     26  C   UNL     1       2.136   2.371  21.302  0.00  0.00    +0.000 A 
ATOM     27  N   UNL     1       3.096   2.877  20.474  0.00  0.00    +0.000 N 
ATOM     28  C   UNL     1       4.415   2.325  20.315  0.00  0.00    +0.000 C 
ENDBRANCH  22  23
BRANCH  22  29
ATOM     29  C   UNL     1       2.988   4.209  17.404  0.00  0.00    +0.000 C 
BRANCH  29  31
ATOM     30  C   UNL     1       5.086   4.234  16.330  0.00  0.00    +0.000 C 
ATOM     31  O   UNL     1       4.138   3.437  17.034  0.00  0.00    +0.000 OA
ENDBRANCH  29  31
ENDBRANCH  22  29
ENDBRANCH   1  22
TORSDOF 6
ENDMDL
