MODEL 1
REMARK VINA RESULT:      -9.4      0.000      0.000
REMARK  Name = 
REMARK  5 active torsions:
REMARK  status: ('A' for Active; 'I' for Inactive)
REMARK    1  A    between atoms: C_1  and  C_2
REMARK    2  A    between atoms: C_2  and  C_3
REMARK    3  A    between atoms: N_15  and  C_16
REMARK    4  A    between atoms: C_16  and  C_17
REMARK    5  A    between atoms: N_19  and  C_20
REMARK                            x       y       z     vdW  Elec       q    Type
REMARK                         _______ _______ _______ _____ _____    ______ ____
ROOT
ATOM      1  C   UNL     1       4.175   3.456  17.766  0.00  0.00    +0.000 C 
ATOM      2  C   UNL     1       4.796   4.845  17.739  0.00  0.00    +0.000 C 
ATOM      3  N   UNL     1       5.433   5.091  16.463  0.00  0.00    +0.000 N 
ATOM      4  C   UNL     1       6.682   5.653  16.601  0.00  0.00    +0.000 C 
ATOM      5  O   UNL     1       7.351   6.056  15.668  0.00  0.00    +0.000 OA
ATOM      6  N   UNL     1       7.001   5.664  17.921  0.00  0.00    +0.000 N 
ATOM      7  C   UNL     1       6.056   4.980  18.629  0.00  0.00    +0.000 C 
ATOM      8  O   UNL     1       6.183   4.620  19.794  0.00  0.00    +0.000 OA
ATOM      9  H   UNL     1       4.979   5.059  15.560  0.00  0.00    +0.000 HD
ENDROOT
BRANCH   2  10
ATOM     10  C   UNL     1       3.812   5.947  18.157  0.00  0.00    +0.000 A 
ATOM     11  C   UNL     1       3.126   5.830  19.399  0.00  0.00    +0.000 A 
ATOM     12  C   UNL     1       2.274   6.836  19.866  0.00  0.00    +0.000 A 
ATOM     13  C   UNL     1       2.112   7.952  19.079  0.00  0.00    +0.000 A 
ATOM     14  C   UNL     1       2.768   8.087  17.880  0.00  0.00    +0.000 A 
ATOM     15  C   UNL     1       3.620   7.115  17.394  0.00  0.00    +0.000 A 
ATOM     16  O   UNL     1       2.483   9.267  17.267  0.00  0.00    +0.000 OA
ATOM     17  C   UNL     1       1.531   9.832  18.193  0.00  0.00    +0.000 C 
ATOM     18  O   UNL     1       1.329   9.023  19.370  0.00  0.00    +0.000 OA
ENDBRANCH   2  10
BRANCH   6  19
ATOM     19  C   UNL     1       8.107   6.386  18.499  0.00  0.00    +0.000 C 
BRANCH  19  20
ATOM     20  C   UNL     1       8.017   7.891  18.336  0.00  0.00    +0.000 C 
ATOM     21  O   UNL     1       7.092   8.362  17.679  0.00  0.00    +0.000 OA
ATOM     22  N   UNL     1       8.951   8.612  19.062  0.00  0.00    +0.000 N 
ATOM     23  H   UNL     1       9.698   8.092  19.521  0.00  0.00    +0.000 HD
BRANCH  22  24
ATOM     24  C   UNL     1       9.061  10.018  19.064  0.00  0.00    +0.000 A 
ATOM     25  C   UNL     1       8.907  10.792  17.893  0.00  0.00    +0.000 A 
ATOM     26  C   UNL     1       9.153  12.166  17.888  0.00  0.00    +0.000 A 
ATOM     27  C   UNL     1       9.546  12.739  19.070  0.00  0.00    +0.000 A 
ATOM     28  C   UNL     1       9.645  12.007  20.232  0.00  0.00    +0.000 A 
ATOM     29  C   UNL     1       9.379  10.653  20.270  0.00  0.00    +0.000 A 
ATOM     30  O   UNL     1      10.057  12.774  21.280  0.00  0.00    +0.000 OA
ATOM     31  C   UNL     1      10.295  14.037  20.618  0.00  0.00    +0.000 C 
ATOM     32  O   UNL     1       9.892  14.043  19.235  0.00  0.00    +0.000 OA
ENDBRANCH  22  24
ENDBRANCH  19  20
ENDBRANCH   6  19
TORSDOF 4
ENDMDL
MODEL 2
REMARK VINA RESULT:      -9.3      0.606      1.282
REMARK  Name = 
REMARK  5 active torsions:
REMARK  status: ('A' for Active; 'I' for Inactive)
REMARK    1  A    between atoms: C_1  and  C_2
REMARK    2  A    between atoms: C_2  and  C_3
REMARK    3  A    between atoms: N_15  and  C_16
REMARK    4  A    between atoms: C_16  and  C_17
REMARK    5  A    between atoms: N_19  and  C_20
REMARK                            x       y       z     vdW  Elec       q    Type
REMARK                         _______ _______ _______ _____ _____    ______ ____
ROOT
ATOM      1  C   UNL     1       4.018   3.738  17.964  0.00  0.00    +0.000 C 
ATOM      2  C   UNL     1       4.712   5.088  17.853  0.00  0.00    +0.000 C 
ATOM      3  N   UNL     1       5.314   5.241  16.545  0.00  0.00    +0.000 N 
ATOM      4  C   UNL     1       6.596   5.738  16.615  0.00  0.00    +0.000 C 
ATOM      5  O   UNL     1       7.252   6.062  15.642  0.00  0.00    +0.000 OA
ATOM      6  N   UNL     1       6.963   5.789  17.921  0.00  0.00    +0.000 N 
ATOM      7  C   UNL     1       6.009   5.191  18.692  0.00  0.00    +0.000 C 
ATOM      8  O   UNL     1       6.159   4.876  19.867  0.00  0.00    +0.000 OA
ATOM      9  H   UNL     1       4.826   5.194  15.661  0.00  0.00    +0.000 HD
ENDROOT
BRANCH   2  10
ATOM     10  C   UNL     1       3.805   6.259  18.253  0.00  0.00    +0.000 A 
ATOM     11  C   UNL     1       3.630   7.343  17.346  0.00  0.00    +0.000 A 
ATOM     12  C   UNL     1       2.761   8.402  17.624  0.00  0.00    +0.000 A 
ATOM     13  C   UNL     1       2.074   8.368  18.815  0.00  0.00    +0.000 A 
ATOM     14  C   UNL     1       2.224   7.331  19.701  0.00  0.00    +0.000 A 
ATOM     15  C   UNL     1       3.070   6.268  19.453  0.00  0.00    +0.000 A 
ATOM     16  O   UNL     1       1.446   7.482  20.808  0.00  0.00    +0.000 OA
ATOM     17  C   UNL     1       0.834   8.760  20.538  0.00  0.00    +0.000 C 
ATOM     18  O   UNL     1       1.192   9.305  19.251  0.00  0.00    +0.000 OA
ENDBRANCH   2  10
BRANCH   6  19
ATOM     19  C   UNL     1       8.127   6.474  18.428  0.00  0.00    +0.000 C 
BRANCH  19  20
ATOM     20  C   UNL     1       8.048   7.984  18.331  0.00  0.00    +0.000 C 
ATOM     21  O   UNL     1       7.106   8.492  17.727  0.00  0.00    +0.000 OA
ATOM     22  N   UNL     1       9.015   8.665  19.054  0.00  0.00    +0.000 N 
ATOM     23  H   UNL     1       9.771   8.119  19.464  0.00  0.00    +0.000 HD
BRANCH  22  24
ATOM     24  C   UNL     1       9.140  10.069  19.110  0.00  0.00    +0.000 A 
ATOM     25  C   UNL     1       9.142  10.877  17.953  0.00  0.00    +0.000 A 
ATOM     26  C   UNL     1       9.402  12.247  18.019  0.00  0.00    +0.000 A 
ATOM     27  C   UNL     1       9.653  12.781  19.257  0.00  0.00    +0.000 A 
ATOM     28  C   UNL     1       9.599  12.015  20.400  0.00  0.00    +0.000 A 
ATOM     29  C   UNL     1       9.314  10.665  20.365  0.00  0.00    +0.000 A 
ATOM     30  O   UNL     1       9.887  12.746  21.512  0.00  0.00    +0.000 OA
ATOM     31  C   UNL     1      10.220  14.023  20.922  0.00  0.00    +0.000 C 
ATOM     32  O   UNL     1       9.991  14.074  19.502  0.00  0.00    +0.000 OA
ENDBRANCH  22  24
ENDBRANCH  19  20
ENDBRANCH   6  19
TORSDOF 4
ENDMDL
MODEL 3
REMARK VINA RESULT:      -9.1      3.722      6.565
REMARK  Name = 
REMARK  5 active torsions:
REMARK  status: ('A' for Active; 'I' for Inactive)
REMARK    1  A    between atoms: C_1  and  C_2
REMARK    2  A    between atoms: C_2  and  C_3
REMARK    3  A    between atoms: N_15  and  C_16
REMARK    4  A    between atoms: C_16  and  C_17
REMARK    5  A    between atoms: N_19  and  C_20
REMARK                            x       y       z     vdW  Elec       q    Type
REMARK                         _______ _______ _______ _____ _____    ______ ____
ROOT
ATOM      1  C   UNL     1       3.979   1.865  16.996  0.00  0.00    +0.000 C 
ATOM      2  C   UNL     1       4.201   2.801  18.175  0.00  0.00    +0.000 C 
ATOM      3  N   UNL     1       4.771   2.080  19.293  0.00  0.00    +0.000 N 
ATOM      4  C   UNL     1       4.152   2.386  20.484  0.00  0.00    +0.000 C 
ATOM      5  O   UNL     1       4.539   1.995  21.570  0.00  0.00    +0.000 OA
ATOM      6  N   UNL     1       3.075   3.169  20.215  0.00  0.00    +0.000 N 
ATOM      7  C   UNL     1       2.890   3.251  18.866  0.00  0.00    +0.000 C 
ATOM      8  O   UNL     1       1.880   3.687  18.327  0.00  0.00    +0.000 OA
ATOM      9  H   UNL     1       5.642   1.565  19.282  0.00  0.00    +0.000 HD
ENDROOT
BRANCH   2  10
ATOM     10  C   UNL     1       4.984   4.065  17.795  0.00  0.00    +0.000 A 
ATOM     11  C   UNL     1       4.581   4.814  16.653  0.00  0.00    +0.000 A 
ATOM     12  C   UNL     1       5.209   6.012  16.300  0.00  0.00    +0.000 A 
ATOM     13  C   UNL     1       6.243   6.448  17.094  0.00  0.00    +0.000 A 
ATOM     14  C   UNL     1       6.645   5.744  18.202  0.00  0.00    +0.000 A 
ATOM     15  C   UNL     1       6.041   4.561  18.581  0.00  0.00    +0.000 A 
ATOM     16  O   UNL     1       7.671   6.354  18.856  0.00  0.00    +0.000 OA
ATOM     17  C   UNL     1       7.902   7.491  17.999  0.00  0.00    +0.000 C 
ATOM     18  O   UNL     1       6.966   7.583  16.905  0.00  0.00    +0.000 OA
ENDBRANCH   2  10
BRANCH   6  19
ATOM     19  C   UNL     1       2.315   3.897  21.201  0.00  0.00    +0.000 C 
BRANCH  19  20
ATOM     20  C   UNL     1       1.605   5.121  20.656  0.00  0.00    +0.000 C 
ATOM     21  O   UNL     1       0.377   5.126  20.618  0.00  0.00    +0.000 OA
ATOM     22  N   UNL     1       2.435   6.188  20.353  0.00  0.00    +0.000 N 
ATOM     23  H   UNL     1       3.440   6.028  20.378  0.00  0.00    +0.000 HD
BRANCH  22  24
ATOM     24  C   UNL     1       2.000   7.424  19.831  0.00  0.00    +0.000 A 
ATOM     25  C   UNL     1       2.253   7.817  18.499  0.00  0.00    +0.000 A 
ATOM     26  C   UNL     1       1.935   9.096  18.042  0.00  0.00    +0.000 A 
ATOM     27  C   UNL     1       1.360   9.961  18.938  0.00  0.00    +0.000 A 
ATOM     28  C   UNL     1       1.056   9.573  20.224  0.00  0.00    +0.000 A 
ATOM     29  C   UNL     1       1.333   8.305  20.692  0.00  0.00    +0.000 A 
ATOM     30  O   UNL     1       0.499  10.589  20.940  0.00  0.00    +0.000 OA
ATOM     31  C   UNL     1       0.582  11.673  19.987  0.00  0.00    +0.000 C 
ATOM     32  O   UNL     1       1.048  11.259  18.689  0.00  0.00    +0.000 OA
ENDBRANCH  22  24
ENDBRANCH  19  20
ENDBRANCH   6  19
TORSDOF 4
ENDMDL
MODEL 4
REMARK VINA RESULT:      -9.0      0.948      1.888
REMARK  Name = 
REMARK  5 active torsions:
REMARK  status: ('A' for Active; 'I' for Inactive)
REMARK    1  A    between atoms: C_1  and  C_2
REMARK    2  A    between atoms: C_2  and  C_3
REMARK    3  A    between atoms: N_15  and  C_16
REMARK    4  A    between atoms: C_16  and  C_17
REMARK    5  A    between atoms: N_19  and  C_20
REMARK                            x       y       z     vdW  Elec       q    Type
REMARK                         _______ _______ _______ _____ _____    ______ ____
ROOT
ATOM      1  C   UNL     1       3.593   3.784  17.913  0.00  0.00    +0.000 C 
ATOM      2  C   UNL     1       4.351   5.097  17.776  0.00  0.00    +0.000 C 
ATOM      3  N   UNL     1       4.864   5.246  16.431  0.00  0.00    +0.000 N 
ATOM      4  C   UNL     1       6.174   5.671  16.415  0.00  0.00    +0.000 C 
ATOM      5  O   UNL     1       6.774   5.981  15.402  0.00  0.00    +0.000 OA
ATOM      6  N   UNL     1       6.637   5.672  17.691  0.00  0.00    +0.000 N 
ATOM      7  C   UNL     1       5.710   5.110  18.519  0.00  0.00    +0.000 C 
ATOM      8  O   UNL     1       5.927   4.761  19.673  0.00  0.00    +0.000 OA
ATOM      9  H   UNL     1       4.312   5.247  15.584  0.00  0.00    +0.000 HD
ENDROOT
BRANCH   2  10
ATOM     10  C   UNL     1       3.543   6.306  18.264  0.00  0.00    +0.000 A 
ATOM     11  C   UNL     1       3.378   7.425  17.400  0.00  0.00    +0.000 A 
ATOM     12  C   UNL     1       2.592   8.524  17.760  0.00  0.00    +0.000 A 
ATOM     13  C   UNL     1       1.980   8.494  18.991  0.00  0.00    +0.000 A 
ATOM     14  C   UNL     1       2.122   7.424  19.838  0.00  0.00    +0.000 A 
ATOM     15  C   UNL     1       2.886   6.321  19.509  0.00  0.00    +0.000 A 
ATOM     16  O   UNL     1       1.425   7.586  20.996  0.00  0.00    +0.000 OA
ATOM     17  C   UNL     1       0.875   8.906  20.799  0.00  0.00    +0.000 C 
ATOM     18  O   UNL     1       1.184   9.467  19.507  0.00  0.00    +0.000 OA
ENDBRANCH   2  10
BRANCH   6  19
ATOM     19  C   UNL     1       7.872   6.281  18.123  0.00  0.00    +0.000 C 
BRANCH  19  20
ATOM     20  C   UNL     1       7.833   7.796  18.168  0.00  0.00    +0.000 C 
ATOM     21  O   UNL     1       6.864   8.379  17.688  0.00  0.00    +0.000 OA
ATOM     22  N   UNL     1       8.874   8.384  18.868  0.00  0.00    +0.000 N 
ATOM     23  H   UNL     1       9.642   7.785  19.166  0.00  0.00    +0.000 HD
BRANCH  22  24
ATOM     24  C   UNL     1       9.047   9.773  19.038  0.00  0.00    +0.000 A 
ATOM     25  C   UNL     1       9.296  10.358  20.299  0.00  0.00    +0.000 A 
ATOM     26  C   UNL     1       9.328  11.743  20.468  0.00  0.00    +0.000 A 
ATOM     27  C   UNL     1       9.115  12.519  19.357  0.00  0.00    +0.000 A 
ATOM     28  C   UNL     1       8.928  11.962  18.112  0.00  0.00    +0.000 A 
ATOM     29  C   UNL     1       8.920  10.597  17.912  0.00  0.00    +0.000 A 
ATOM     30  O   UNL     1       8.727  12.913  17.158  0.00  0.00    +0.000 OA
ATOM     31  C   UNL     1       8.714  14.113  17.966  0.00  0.00    +0.000 C 
ATOM     32  O   UNL     1       9.044  13.875  19.347  0.00  0.00    +0.000 OA
ENDBRANCH  22  24
ENDBRANCH  19  20
ENDBRANCH   6  19
TORSDOF 4
ENDMDL
MODEL 5
REMARK VINA RESULT:      -9.0      0.868      1.478
REMARK  Name = 
REMARK  5 active torsions:
REMARK  status: ('A' for Active; 'I' for Inactive)
REMARK    1  A    between atoms: C_1  and  C_2
REMARK    2  A    between atoms: C_2  and  C_3
REMARK    3  A    between atoms: N_15  and  C_16
REMARK    4  A    between atoms: C_16  and  C_17
REMARK    5  A    between atoms: N_19  and  C_20
REMARK                            x       y       z     vdW  Elec       q    Type
REMARK                         _______ _______ _______ _____ _____    ______ ____
ROOT
ATOM      1  C   UNL     1       3.699   3.442  17.789  0.00  0.00    +0.000 C 
ATOM      2  C   UNL     1       4.399   4.789  17.682  0.00  0.00    +0.000 C 
ATOM      3  N   UNL     1       4.936   4.975  16.351  0.00  0.00    +0.000 N 
ATOM      4  C   UNL     1       6.224   5.461  16.370  0.00  0.00    +0.000 C 
ATOM      5  O   UNL     1       6.833   5.808  15.375  0.00  0.00    +0.000 OA
ATOM      6  N   UNL     1       6.657   5.471  17.657  0.00  0.00    +0.000 N 
ATOM      7  C   UNL     1       5.737   4.858  18.457  0.00  0.00    +0.000 C 
ATOM      8  O   UNL     1       5.942   4.508  19.613  0.00  0.00    +0.000 OA
ATOM      9  H   UNL     1       4.404   4.959  15.490  0.00  0.00    +0.000 HD
ENDROOT
BRANCH   2  10
ATOM     10  C   UNL     1       3.524   5.955  18.160  0.00  0.00    +0.000 A 
ATOM     11  C   UNL     1       2.956   5.908  19.464  0.00  0.00    +0.000 A 
ATOM     12  C   UNL     1       2.211   6.972  19.982  0.00  0.00    +0.000 A 
ATOM     13  C   UNL     1       2.037   8.077  19.183  0.00  0.00    +0.000 A 
ATOM     14  C   UNL     1       2.580   8.146  17.924  0.00  0.00    +0.000 A 
ATOM     15  C   UNL     1       3.325   7.115  17.386  0.00  0.00    +0.000 A 
ATOM     16  O   UNL     1       2.303   9.327  17.307  0.00  0.00    +0.000 OA
ATOM     17  C   UNL     1       1.479   9.968  18.303  0.00  0.00    +0.000 C 
ATOM     18  O   UNL     1       1.347   9.199  19.517  0.00  0.00    +0.000 OA
ENDBRANCH   2  10
BRANCH   6  19
ATOM     19  C   UNL     1       7.851   6.132  18.124  0.00  0.00    +0.000 C 
BRANCH  19  20
ATOM     20  C   UNL     1       7.815   7.642  17.991  0.00  0.00    +0.000 C 
ATOM     21  O   UNL     1       6.919   8.158  17.328  0.00  0.00    +0.000 OA
ATOM     22  N   UNL     1       8.761   8.315  18.747  0.00  0.00    +0.000 N 
ATOM     23  H   UNL     1       9.481   7.761  19.208  0.00  0.00    +0.000 HD
BRANCH  22  24
ATOM     24  C   UNL     1       8.919   9.716  18.780  0.00  0.00    +0.000 A 
ATOM     25  C   UNL     1       9.605  10.378  19.821  0.00  0.00    +0.000 A 
ATOM     26  C   UNL     1       9.633  11.771  19.907  0.00  0.00    +0.000 A 
ATOM     27  C   UNL     1       8.970  12.476  18.934  0.00  0.00    +0.000 A 
ATOM     28  C   UNL     1       8.345  11.844  17.882  0.00  0.00    +0.000 A 
ATOM     29  C   UNL     1       8.328  10.470  17.758  0.00  0.00    +0.000 A 
ATOM     30  O   UNL     1       7.747  12.733  17.042  0.00  0.00    +0.000 OA
ATOM     31  C   UNL     1       7.988  13.976  17.741  0.00  0.00    +0.000 C 
ATOM     32  O   UNL     1       8.835  13.827  18.896  0.00  0.00    +0.000 OA
ENDBRANCH  22  24
ENDBRANCH  19  20
ENDBRANCH   6  19
TORSDOF 4
ENDMDL
MODEL 6
REMARK VINA RESULT:      -8.8      4.003      6.795
REMARK  Name = 
REMARK  5 active torsions:
REMARK  status: ('A' for Active; 'I' for Inactive)
REMARK    1  A    between atoms: C_1  and  C_2
REMARK    2  A    between atoms: C_2  and  C_3
REMARK    3  A    between atoms: N_15  and  C_16
REMARK    4  A    between atoms: C_16  and  C_17
REMARK    5  A    between atoms: N_19  and  C_20
REMARK                            x       y       z     vdW  Elec       q    Type
REMARK                         _______ _______ _______ _____ _____    ______ ____
ROOT
ATOM      1  C   UNL     1       3.595   1.730  17.399  0.00  0.00    +0.000 C 
ATOM      2  C   UNL     1       3.603   2.869  18.408  0.00  0.00    +0.000 C 
ATOM      3  N   UNL     1       3.827   2.360  19.744  0.00  0.00    +0.000 N 
ATOM      4  C   UNL     1       2.966   2.913  20.666  0.00  0.00    +0.000 C 
ATOM      5  O   UNL     1       3.047   2.728  21.866  0.00  0.00    +0.000 OA
ATOM      6  N   UNL     1       2.054   3.666  19.999  0.00  0.00    +0.000 N 
ATOM      7  C   UNL     1       2.206   3.491  18.655  0.00  0.00    +0.000 C 
ATOM      8  O   UNL     1       1.395   3.849  17.809  0.00  0.00    +0.000 OA
ATOM      9  H   UNL     1       4.629   1.822  20.046  0.00  0.00    +0.000 HD
ENDROOT
BRANCH   2  10
ATOM     10  C   UNL     1       4.555   4.007  18.016  0.00  0.00    +0.000 A 
ATOM     11  C   UNL     1       4.299   4.749  16.829  0.00  0.00    +0.000 A 
ATOM     12  C   UNL     1       5.089   5.842  16.459  0.00  0.00    +0.000 A 
ATOM     13  C   UNL     1       6.136   6.180  17.284  0.00  0.00    +0.000 A 
ATOM     14  C   UNL     1       6.398   5.481  18.436  0.00  0.00    +0.000 A 
ATOM     15  C   UNL     1       5.633   4.402  18.832  0.00  0.00    +0.000 A 
ATOM     16  O   UNL     1       7.465   5.986  19.114  0.00  0.00    +0.000 OA
ATOM     17  C   UNL     1       7.875   7.047  18.225  0.00  0.00    +0.000 C 
ATOM     18  O   UNL     1       7.005   7.206  17.086  0.00  0.00    +0.000 OA
ENDBRANCH   2  10
BRANCH   6  19
ATOM     19  C   UNL     1       1.141   4.598  20.615  0.00  0.00    +0.000 C 
BRANCH  19  20
ATOM     20  C   UNL     1       1.583   6.046  20.529  0.00  0.00    +0.000 C 
ATOM     21  O   UNL     1       2.685   6.303  20.049  0.00  0.00    +0.000 OA
ATOM     22  N   UNL     1       0.623   6.971  20.908  0.00  0.00    +0.000 N 
ATOM     23  H   UNL     1      -0.229   6.618  21.341  0.00  0.00    +0.000 HD
BRANCH  22  24
ATOM     24  C   UNL     1       0.808   8.369  20.914  0.00  0.00    +0.000 A 
ATOM     25  C   UNL     1       0.693   9.143  22.088  0.00  0.00    +0.000 A 
ATOM     26  C   UNL     1       0.745  10.538  22.051  0.00  0.00    +0.000 A 
ATOM     27  C   UNL     1       0.919  11.129  20.826  0.00  0.00    +0.000 A 
ATOM     28  C   UNL     1       1.089  10.384  19.680  0.00  0.00    +0.000 A 
ATOM     29  C   UNL     1       1.071   9.004  19.694  0.00  0.00    +0.000 A 
ATOM     30  O   UNL     1       1.237  11.173  18.581  0.00  0.00    +0.000 OA
ATOM     31  C   UNL     1       1.042  12.485  19.157  0.00  0.00    +0.000 C 
ATOM     32  O   UNL     1       0.925  12.467  20.592  0.00  0.00    +0.000 OA
ENDBRANCH  22  24
ENDBRANCH  19  20
ENDBRANCH   6  19
TORSDOF 4
ENDMDL
MODEL 7
REMARK VINA RESULT:      -8.7      3.170      6.580
REMARK  Name = 
REMARK  5 active torsions:
REMARK  status: ('A' for Active; 'I' for Inactive)
REMARK    1  A    between atoms: C_1  and  C_2
REMARK    2  A    between atoms: C_2  and  C_3
REMARK    3  A    between atoms: N_15  and  C_16
REMARK    4  A    between atoms: C_16  and  C_17
REMARK    5  A    between atoms: N_19  and  C_20
REMARK                            x       y       z     vdW  Elec       q    Type
REMARK                         _______ _______ _______ _____ _____    ______ ____
ROOT
ATOM      1  C   UNL     1       4.603   3.870  16.255  0.00  0.00    +0.000 C 
ATOM      2  C   UNL     1       4.784   4.151  17.740  0.00  0.00    +0.000 C 
ATOM      3  N   UNL     1       5.038   2.922  18.460  0.00  0.00    +0.000 N 
ATOM      4  C   UNL     1       4.293   2.828  19.614  0.00  0.00    +0.000 C 
ATOM      5  O   UNL     1       4.429   1.943  20.440  0.00  0.00    +0.000 OA
ATOM      6  N   UNL     1       3.420   3.867  19.644  0.00  0.00    +0.000 N 
ATOM      7  C   UNL     1       3.472   4.546  18.461  0.00  0.00    +0.000 C 
ATOM      8  O   UNL     1       2.649   5.379  18.099  0.00  0.00    +0.000 OA
ATOM      9  H   UNL     1       5.801   2.281  18.286  0.00  0.00    +0.000 HD
ENDROOT
BRANCH   2  10
ATOM     10  C   UNL     1       5.816   5.251  18.017  0.00  0.00    +0.000 A 
ATOM     11  C   UNL     1       6.873   4.996  18.937  0.00  0.00    +0.000 A 
ATOM     12  C   UNL     1       7.884   5.932  19.175  0.00  0.00    +0.000 A 
ATOM     13  C   UNL     1       7.825   7.123  18.489  0.00  0.00    +0.000 A 
ATOM     14  C   UNL     1       6.818   7.388  17.595  0.00  0.00    +0.000 A 
ATOM     15  C   UNL     1       5.809   6.482  17.333  0.00  0.00    +0.000 A 
ATOM     16  O   UNL     1       6.952   8.612  17.015  0.00  0.00    +0.000 OA
ATOM     17  C   UNL     1       8.127   9.105  17.691  0.00  0.00    +0.000 C 
ATOM     18  O   UNL     1       8.714   8.145  18.593  0.00  0.00    +0.000 OA
ENDBRANCH   2  10
BRANCH   6  19
ATOM     19  C   UNL     1       2.642   4.263  20.792  0.00  0.00    +0.000 C 
BRANCH  19  20
ATOM     20  C   UNL     1       1.733   5.451  20.545  0.00  0.00    +0.000 C 
ATOM     21  O   UNL     1       0.523   5.260  20.441  0.00  0.00    +0.000 OA
ATOM     22  N   UNL     1       2.365   6.684  20.577  0.00  0.00    +0.000 N 
ATOM     23  H   UNL     1       3.383   6.693  20.616  0.00  0.00    +0.000 HD
BRANCH  22  24
ATOM     24  C   UNL     1       1.724   7.923  20.372  0.00  0.00    +0.000 A 
ATOM     25  C   UNL     1       1.653   8.539  19.104  0.00  0.00    +0.000 A 
ATOM     26  C   UNL     1       1.137   9.826  18.944  0.00  0.00    +0.000 A 
ATOM     27  C   UNL     1       0.693  10.470  20.071  0.00  0.00    +0.000 A 
ATOM     28  C   UNL     1       0.705   9.860  21.306  0.00  0.00    +0.000 A 
ATOM     29  C   UNL     1       1.183   8.578  21.485  0.00  0.00    +0.000 A 
ATOM     30  O   UNL     1       0.228  10.682  22.281  0.00  0.00    +0.000 OA
ATOM     31  C   UNL     1       0.012  11.900  21.531  0.00  0.00    +0.000 C 
ATOM     32  O   UNL     1       0.225  11.745  20.116  0.00  0.00    +0.000 OA
ENDBRANCH  22  24
ENDBRANCH  19  20
ENDBRANCH   6  19
TORSDOF 4
ENDMDL
MODEL 8
REMARK VINA RESULT:      -8.6      4.182      6.506
REMARK  Name = 
REMARK  5 active torsions:
REMARK  status: ('A' for Active; 'I' for Inactive)
REMARK    1  A    between atoms: C_1  and  C_2
REMARK    2  A    between atoms: C_2  and  C_3
REMARK    3  A    between atoms: N_15  and  C_16
REMARK    4  A    between atoms: C_16  and  C_17
REMARK    5  A    between atoms: N_19  and  C_20
REMARK                            x       y       z     vdW  Elec       q    Type
REMARK                         _______ _______ _______ _____ _____    ______ ____
ROOT
ATOM      1  C   UNL     1       2.956   1.909  17.460  0.00  0.00    +0.000 C 
ATOM      2  C   UNL     1       3.266   3.004  18.471  0.00  0.00    +0.000 C 
ATOM      3  N   UNL     1       3.444   2.439  19.791  0.00  0.00    +0.000 N 
ATOM      4  C   UNL     1       2.775   3.151  20.760  0.00  0.00    +0.000 C 
ATOM      5  O   UNL     1       2.878   2.935  21.954  0.00  0.00    +0.000 OA
ATOM      6  N   UNL     1       2.014   4.094  20.147  0.00  0.00    +0.000 N 
ATOM      7  C   UNL     1       2.053   3.911  18.796  0.00  0.00    +0.000 C 
ATOM      8  O   UNL     1       1.295   4.448  17.998  0.00  0.00    +0.000 OA
ATOM      9  H   UNL     1       4.125   1.735  20.046  0.00  0.00    +0.000 HD
ENDROOT
BRANCH   2  10
ATOM     10  C   UNL     1       4.421   3.913  18.030  0.00  0.00    +0.000 A 
ATOM     11  C   UNL     1       4.538   4.272  16.658  0.00  0.00    +0.000 A 
ATOM     12  C   UNL     1       5.525   5.155  16.209  0.00  0.00    +0.000 A 
ATOM     13  C   UNL     1       6.392   5.669  17.143  0.00  0.00    +0.000 A 
ATOM     14  C   UNL     1       6.295   5.341  18.472  0.00  0.00    +0.000 A 
ATOM     15  C   UNL     1       5.328   4.477  18.948  0.00  0.00    +0.000 A 
ATOM     16  O   UNL     1       7.237   5.968  19.228  0.00  0.00    +0.000 OA
ATOM     17  C   UNL     1       7.970   6.683  18.212  0.00  0.00    +0.000 C 
ATOM     18  O   UNL     1       7.408   6.536  16.892  0.00  0.00    +0.000 OA
ENDBRANCH   2  10
BRANCH   6  19
ATOM     19  C   UNL     1       1.361   5.193  20.815  0.00  0.00    +0.000 C 
BRANCH  19  20
ATOM     20  C   UNL     1       1.786   6.561  20.320  0.00  0.00    +0.000 C 
ATOM     21  O   UNL     1       2.884   6.681  19.780  0.00  0.00    +0.000 OA
ATOM     22  N   UNL     1       0.818   7.546  20.426  0.00  0.00    +0.000 N 
ATOM     23  H   UNL     1      -0.030   7.323  20.947  0.00  0.00    +0.000 HD
BRANCH  22  24
ATOM     24  C   UNL     1       0.988   8.890  20.034  0.00  0.00    +0.000 A 
ATOM     25  C   UNL     1       1.382   9.255  18.729  0.00  0.00    +0.000 A 
ATOM     26  C   UNL     1       1.677  10.579  18.398  0.00  0.00    +0.000 A 
ATOM     27  C   UNL     1       1.564  11.517  19.393  0.00  0.00    +0.000 A 
ATOM     28  C   UNL     1       1.127  11.183  20.656  0.00  0.00    +0.000 A 
ATOM     29  C   UNL     1       0.800   9.887  21.000  0.00  0.00    +0.000 A 
ATOM     30  O   UNL     1       1.097  12.264  21.483  0.00  0.00    +0.000 OA
ATOM     31  C   UNL     1       1.657  13.283  20.622  0.00  0.00    +0.000 C 
ATOM     32  O   UNL     1       1.874  12.833  19.271  0.00  0.00    +0.000 OA
ENDBRANCH  22  24
ENDBRANCH  19  20
ENDBRANCH   6  19
TORSDOF 4
ENDMDL
MODEL 9
REMARK VINA RESULT:      -8.6      3.052      6.895
REMARK  Name = 
REMARK  5 active torsions:
REMARK  status: ('A' for Active; 'I' for Inactive)
REMARK    1  A    between atoms: C_1  and  C_2
REMARK    2  A    between atoms: C_2  and  C_3
REMARK    3  A    between atoms: N_15  and  C_16
REMARK    4  A    between atoms: C_16  and  C_17
REMARK    5  A    between atoms: N_19  and  C_20
REMARK                            x       y       z     vdW  Elec       q    Type
REMARK                         _______ _______ _______ _____ _____    ______ ____
ROOT
ATOM      1  C   UNL     1       4.501   4.221  16.061  0.00  0.00    +0.000 C 
ATOM      2  C   UNL     1       4.734   4.336  17.560  0.00  0.00    +0.000 C 
ATOM      3  N   UNL     1       4.976   3.031  18.137  0.00  0.00    +0.000 N 
ATOM      4  C   UNL     1       4.264   2.831  19.298  0.00  0.00    +0.000 C 
ATOM      5  O   UNL     1       4.401   1.860  20.019  0.00  0.00    +0.000 OA
ATOM      6  N   UNL     1       3.421   3.882  19.467  0.00  0.00    +0.000 N 
ATOM      7  C   UNL     1       3.455   4.683  18.363  0.00  0.00    +0.000 C 
ATOM      8  O   UNL     1       2.645   5.569  18.119  0.00  0.00    +0.000 OA
ATOM      9  H   UNL     1       5.716   2.394  17.869  0.00  0.00    +0.000 HD
ENDROOT
BRANCH   2  10
ATOM     10  C   UNL     1       5.804   5.375  17.920  0.00  0.00    +0.000 A 
ATOM     11  C   UNL     1       6.815   5.033  18.861  0.00  0.00    +0.000 A 
ATOM     12  C   UNL     1       7.858   5.911  19.173  0.00  0.00    +0.000 A 
ATOM     13  C   UNL     1       7.876   7.131  18.540  0.00  0.00    +0.000 A 
ATOM     14  C   UNL     1       6.914   7.479  17.624  0.00  0.00    +0.000 A 
ATOM     15  C   UNL     1       5.875   6.633  17.290  0.00  0.00    +0.000 A 
ATOM     16  O   UNL     1       7.122   8.719  17.104  0.00  0.00    +0.000 OA
ATOM     17  C   UNL     1       8.294   9.129  17.839  0.00  0.00    +0.000 C 
ATOM     18  O   UNL     1       8.806   8.105  18.717  0.00  0.00    +0.000 OA
ENDBRANCH   2  10
BRANCH   6  19
ATOM     19  C   UNL     1       2.689   4.170  20.676  0.00  0.00    +0.000 C 
BRANCH  19  20
ATOM     20  C   UNL     1       1.703   5.314  20.546  0.00  0.00    +0.000 C 
ATOM     21  O   UNL     1       0.510   5.056  20.404  0.00  0.00    +0.000 OA
ATOM     22  N   UNL     1       2.250   6.576  20.720  0.00  0.00    +0.000 N 
ATOM     23  H   UNL     1       3.264   6.649  20.774  0.00  0.00    +0.000 HD
BRANCH  22  24
ATOM     24  C   UNL     1       1.528   7.785  20.640  0.00  0.00    +0.000 A 
ATOM     25  C   UNL     1       0.726   8.260  21.700  0.00  0.00    +0.000 A 
ATOM     26  C   UNL     1      -0.086   9.386  21.553  0.00  0.00    +0.000 A 
ATOM     27  C   UNL     1      -0.072  10.018  20.336  0.00  0.00    +0.000 A 
ATOM     28  C   UNL     1       0.748   9.599  19.312  0.00  0.00    +0.000 A 
ATOM     29  C   UNL     1       1.582   8.507  19.442  0.00  0.00    +0.000 A 
ATOM     30  O   UNL     1       0.595  10.364  18.196  0.00  0.00    +0.000 OA
ATOM     31  C   UNL     1      -0.478  11.241  18.610  0.00  0.00    +0.000 C 
ATOM     32  O   UNL     1      -0.845  11.082  19.993  0.00  0.00    +0.000 OA
ENDBRANCH  22  24
ENDBRANCH  19  20
ENDBRANCH   6  19
TORSDOF 4
ENDMDL
