MODEL 1
REMARK VINA RESULT:      -8.5      0.000      0.000
REMARK  Name = 
REMARK  5 active torsions:
REMARK  status: ('A' for Active; 'I' for Inactive)
REMARK    1  A    between atoms: C_1  and  N_2
REMARK    2  A    between atoms: N_2  and  C_3
REMARK    3  A    between atoms: C_9  and  N_10
REMARK    4  A    between atoms: C_11  and  C_13
REMARK    5  A    between atoms: N_23  and  C_24
REMARK                            x       y       z     vdW  Elec       q    Type
REMARK                         _______ _______ _______ _____ _____    ______ ____
ROOT
ATOM      1  N   UNL     1       0.842   9.514  20.128  0.00  0.00    +0.000 N 
ATOM      2  C   UNL     1       1.450   8.469  20.810  0.00  0.00    +0.000 C 
ATOM      3  O   UNL     1       1.620   8.418  22.028  0.00  0.00    +0.000 OA
ATOM      4  H   UNL     1       0.572   9.369  19.165  0.00  0.00    +0.000 HD
ENDROOT
BRANCH   1  13
ATOM      5  C   UNL     1      -1.693  16.760  23.422  0.00  0.00    +0.000 C 
ATOM      6  N   UNL     1      -2.426  15.572  23.831  0.00  0.00    +0.000 N 
ATOM      7  C   UNL     1      -3.040  15.572  25.151  0.00  0.00    +0.000 C 
ATOM      8  C   UNL     1      -1.987  14.356  23.299  0.00  0.00    +0.000 A 
ATOM      9  C   UNL     1      -2.638  13.167  23.625  0.00  0.00    +0.000 A 
ATOM     10  C   UNL     1      -2.218  11.963  23.075  0.00  0.00    +0.000 A 
ATOM     11  C   UNL     1      -1.137  11.950  22.200  0.00  0.00    +0.000 A 
ATOM     12  C   UNL     1      -0.691  10.748  21.626  0.00  0.00    +0.000 A 
ATOM     13  C   UNL     1       0.391  10.716  20.748  0.00  0.00    +0.000 A 
ATOM     14  C   UNL     1       1.048  11.916  20.477  0.00  0.00    +0.000 A 
ATOM     15  C   UNL     1       0.584  13.119  21.048  0.00  0.00    +0.000 A 
ATOM     16  C   UNL     1      -0.512  13.169  21.908  0.00  0.00    +0.000 A 
ATOM     17  N   UNL     1      -0.937  14.340  22.437  0.00  0.00    +0.000 NA
ENDBRANCH   1  13
BRANCH   2  18
ATOM     18  C   UNL     1       1.903   7.277  20.040  0.00  0.00    +0.000 A 
ATOM     19  C   UNL     1       2.550   7.346  18.806  0.00  0.00    +0.000 A 
ATOM     20  C   UNL     1       3.039   6.171  18.207  0.00  0.00    +0.000 A 
ATOM     21  C   UNL     1       2.875   4.915  18.818  0.00  0.00    +0.000 A 
ATOM     22  C   UNL     1       2.229   4.855  20.057  0.00  0.00    +0.000 A 
ATOM     23  C   UNL     1       1.756   6.026  20.661  0.00  0.00    +0.000 A 
ATOM     24  C   UNL     1       2.164   3.549  20.794  0.00  0.00    +0.000 C 
ATOM     25  C   UNL     1       1.928   2.429  19.808  0.00  0.00    +0.000 C 
ATOM     26  C   UNL     1       2.958   2.449  18.702  0.00  0.00    +0.000 C 
ATOM     27  O   UNL     1       3.336   1.389  18.201  0.00  0.00    +0.000 OA
ATOM     28  N   UNL     1       3.359   3.704  18.240  0.00  0.00    +0.000 N 
ATOM     29  C   UNL     1       4.340   3.762  17.168  0.00  0.00    +0.000 C 
ENDBRANCH   2  18
TORSDOF 2
ENDMDL
MODEL 2
REMARK VINA RESULT:      -8.5      3.049      4.006
REMARK  Name = 
REMARK  5 active torsions:
REMARK  status: ('A' for Active; 'I' for Inactive)
REMARK    1  A    between atoms: C_1  and  N_2
REMARK    2  A    between atoms: N_2  and  C_3
REMARK    3  A    between atoms: C_9  and  N_10
REMARK    4  A    between atoms: C_11  and  C_13
REMARK    5  A    between atoms: N_23  and  C_24
REMARK                            x       y       z     vdW  Elec       q    Type
REMARK                         _______ _______ _______ _____ _____    ______ ____
ROOT
ATOM      1  N   UNL     1       1.215   9.731  19.542  0.00  0.00    +0.000 N 
ATOM      2  C   UNL     1       1.829   8.906  18.610  0.00  0.00    +0.000 C 
ATOM      3  O   UNL     1       2.193   9.251  17.485  0.00  0.00    +0.000 OA
ATOM      4  H   UNL     1       1.141   9.409  20.497  0.00  0.00    +0.000 HD
ENDROOT
BRANCH   1  13
ATOM      5  C   UNL     1      -1.243  17.617  18.289  0.00  0.00    +0.000 C 
ATOM      6  N   UNL     1       0.192  17.391  18.368  0.00  0.00    +0.000 N 
ATOM      7  C   UNL     1       1.065  18.294  17.632  0.00  0.00    +0.000 C 
ATOM      8  C   UNL     1       0.605  16.068  18.553  0.00  0.00    +0.000 A 
ATOM      9  C   UNL     1       1.961  15.759  18.654  0.00  0.00    +0.000 A 
ATOM     10  C   UNL     1       2.369  14.448  18.865  0.00  0.00    +0.000 A 
ATOM     11  C   UNL     1       1.414  13.443  18.969  0.00  0.00    +0.000 A 
ATOM     12  C   UNL     1       1.796  12.108  19.185  0.00  0.00    +0.000 A 
ATOM     13  C   UNL     1       0.853  11.087  19.291  0.00  0.00    +0.000 A 
ATOM     14  C   UNL     1      -0.492  11.424  19.142  0.00  0.00    +0.000 A 
ATOM     15  C   UNL     1      -0.866  12.768  18.939  0.00  0.00    +0.000 A 
ATOM     16  C   UNL     1       0.065  13.801  18.856  0.00  0.00    +0.000 A 
ATOM     17  N   UNL     1      -0.324  15.084  18.665  0.00  0.00    +0.000 NA
ENDBRANCH   1  13
BRANCH   2  18
ATOM     18  C   UNL     1       2.129   7.496  18.988  0.00  0.00    +0.000 A 
ATOM     19  C   UNL     1       1.850   6.949  20.239  0.00  0.00    +0.000 A 
ATOM     20  C   UNL     1       2.067   5.578  20.467  0.00  0.00    +0.000 A 
ATOM     21  C   UNL     1       2.580   4.741  19.460  0.00  0.00    +0.000 A 
ATOM     22  C   UNL     1       2.853   5.297  18.205  0.00  0.00    +0.000 A 
ATOM     23  C   UNL     1       2.622   6.658  17.975  0.00  0.00    +0.000 A 
ATOM     24  C   UNL     1       3.268   4.401  17.075  0.00  0.00    +0.000 C 
ATOM     25  C   UNL     1       4.193   3.328  17.599  0.00  0.00    +0.000 C 
ATOM     26  C   UNL     1       3.568   2.588  18.760  0.00  0.00    +0.000 C 
ATOM     27  O   UNL     1       3.809   1.390  18.921  0.00  0.00    +0.000 OA
ATOM     28  N   UNL     1       2.811   3.347  19.655  0.00  0.00    +0.000 N 
ATOM     29  C   UNL     1       2.204   2.670  20.790  0.00  0.00    +0.000 C 
ENDBRANCH   2  18
TORSDOF 2
ENDMDL
MODEL 3
REMARK VINA RESULT:      -8.2      7.904     12.041
REMARK  Name = 
REMARK  5 active torsions:
REMARK  status: ('A' for Active; 'I' for Inactive)
REMARK    1  A    between atoms: C_1  and  N_2
REMARK    2  A    between atoms: N_2  and  C_3
REMARK    3  A    between atoms: C_9  and  N_10
REMARK    4  A    between atoms: C_11  and  C_13
REMARK    5  A    between atoms: N_23  and  C_24
REMARK                            x       y       z     vdW  Elec       q    Type
REMARK                         _______ _______ _______ _____ _____    ______ ____
ROOT
ATOM      1  N   UNL     1       8.241   9.309  17.736  0.00  0.00    +0.000 N 
ATOM      2  C   UNL     1       8.923   9.989  18.737  0.00  0.00    +0.000 C 
ATOM      3  O   UNL     1       9.087   9.582  19.888  0.00  0.00    +0.000 OA
ATOM      4  H   UNL     1       8.337   9.632  16.784  0.00  0.00    +0.000 HD
ENDROOT
BRANCH   1  13
ATOM      5  C   UNL     1       4.492   1.997  19.241  0.00  0.00    +0.000 C 
ATOM      6  N   UNL     1       3.739   2.960  18.451  0.00  0.00    +0.000 N 
ATOM      7  C   UNL     1       2.780   2.446  17.484  0.00  0.00    +0.000 C 
ATOM      8  C   UNL     1       4.376   4.175  18.178  0.00  0.00    +0.000 A 
ATOM      9  C   UNL     1       3.725   5.162  17.440  0.00  0.00    +0.000 A 
ATOM     10  C   UNL     1       4.348   6.379  17.192  0.00  0.00    +0.000 A 
ATOM     11  C   UNL     1       5.630   6.603  17.681  0.00  0.00    +0.000 A 
ATOM     12  C   UNL     1       6.284   7.824  17.449  0.00  0.00    +0.000 A 
ATOM     13  C   UNL     1       7.569   8.067  17.931  0.00  0.00    +0.000 A 
ATOM     14  C   UNL     1       8.209   7.042  18.628  0.00  0.00    +0.000 A 
ATOM     15  C   UNL     1       7.538   5.825  18.868  0.00  0.00    +0.000 A 
ATOM     16  C   UNL     1       6.245   5.579  18.413  0.00  0.00    +0.000 A 
ATOM     17  N   UNL     1       5.624   4.402  18.662  0.00  0.00    +0.000 NA
ENDBRANCH   1  13
BRANCH   2  18
ATOM     18  C   UNL     1       9.559  11.296  18.411  0.00  0.00    +0.000 A 
ATOM     19  C   UNL     1      10.914  11.451  18.118  0.00  0.00    +0.000 A 
ATOM     20  C   UNL     1      11.402  12.707  17.713  0.00  0.00    +0.000 A 
ATOM     21  C   UNL     1      10.553  13.824  17.612  0.00  0.00    +0.000 A 
ATOM     22  C   UNL     1       9.194  13.659  17.903  0.00  0.00    +0.000 A 
ATOM     23  C   UNL     1       8.707  12.405  18.291  0.00  0.00    +0.000 A 
ATOM     24  C   UNL     1       8.245  14.797  17.670  0.00  0.00    +0.000 C 
ATOM     25  C   UNL     1       8.910  16.094  18.068  0.00  0.00    +0.000 C 
ATOM     26  C   UNL     1      10.240  16.262  17.370  0.00  0.00    +0.000 C 
ATOM     27  O   UNL     1      10.626  17.389  17.054  0.00  0.00    +0.000 OA
ATOM     28  N   UNL     1      11.013  15.111  17.203  0.00  0.00    +0.000 N 
ATOM     29  C   UNL     1      12.303  15.237  16.546  0.00  0.00    +0.000 C 
ENDBRANCH   2  18
TORSDOF 2
ENDMDL
MODEL 4
REMARK VINA RESULT:      -8.2      1.092      1.115
REMARK  Name = 
REMARK  5 active torsions:
REMARK  status: ('A' for Active; 'I' for Inactive)
REMARK    1  A    between atoms: C_1  and  N_2
REMARK    2  A    between atoms: N_2  and  C_3
REMARK    3  A    between atoms: C_9  and  N_10
REMARK    4  A    between atoms: C_11  and  C_13
REMARK    5  A    between atoms: N_23  and  C_24
REMARK                            x       y       z     vdW  Elec       q    Type
REMARK                         _______ _______ _______ _____ _____    ______ ____
ROOT
ATOM      1  N   UNL     1       1.171   9.587  20.914  0.00  0.00    +0.000 N 
ATOM      2  C   UNL     1       1.208   9.123  19.606  0.00  0.00    +0.000 C 
ATOM      3  O   UNL     1       0.736   9.707  18.630  0.00  0.00    +0.000 OA
ATOM      4  H   UNL     1       1.758   9.137  21.601  0.00  0.00    +0.000 HD
ENDROOT
BRANCH   1  13
ATOM      5  C   UNL     1      -2.603  16.766  22.917  0.00  0.00    +0.000 C 
ATOM      6  N   UNL     1      -3.199  15.551  23.450  0.00  0.00    +0.000 N 
ATOM      7  C   UNL     1      -3.919  15.642  24.712  0.00  0.00    +0.000 C 
ATOM      8  C   UNL     1      -2.554  14.350  23.135  0.00  0.00    +0.000 A 
ATOM      9  C   UNL     1      -3.063  13.135  23.591  0.00  0.00    +0.000 A 
ATOM     10  C   UNL     1      -2.436  11.942  23.256  0.00  0.00    +0.000 A 
ATOM     11  C   UNL     1      -1.293  11.968  22.465  0.00  0.00    +0.000 A 
ATOM     12  C   UNL     1      -0.639  10.777  22.107  0.00  0.00    +0.000 A 
ATOM     13  C   UNL     1       0.509  10.784  21.317  0.00  0.00    +0.000 A 
ATOM     14  C   UNL     1       1.016  12.019  20.914  0.00  0.00    +0.000 A 
ATOM     15  C   UNL     1       0.345  13.208  21.267  0.00  0.00    +0.000 A 
ATOM     16  C   UNL     1      -0.817  13.213  22.036  0.00  0.00    +0.000 A 
ATOM     17  N   UNL     1      -1.442  14.370  22.356  0.00  0.00    +0.000 NA
ENDBRANCH   1  13
BRANCH   2  18
ATOM     18  C   UNL     1       1.910   7.841  19.320  0.00  0.00    +0.000 A 
ATOM     19  C   UNL     1       2.800   7.659  18.262  0.00  0.00    +0.000 A 
ATOM     20  C   UNL     1       3.499   6.445  18.137  0.00  0.00    +0.000 A 
ATOM     21  C   UNL     1       3.309   5.393  19.052  0.00  0.00    +0.000 A 
ATOM     22  C   UNL     1       2.418   5.586  20.114  0.00  0.00    +0.000 A 
ATOM     23  C   UNL     1       1.734   6.799  20.246  0.00  0.00    +0.000 A 
ATOM     24  C   UNL     1       2.301   4.535  21.180  0.00  0.00    +0.000 C 
ATOM     25  C   UNL     1       2.374   3.167  20.544  0.00  0.00    +0.000 C 
ATOM     26  C   UNL     1       3.613   3.026  19.690  0.00  0.00    +0.000 C 
ATOM     27  O   UNL     1       4.175   1.933  19.604  0.00  0.00    +0.000 OA
ATOM     28  N   UNL     1       4.002   4.151  18.958  0.00  0.00    +0.000 N 
ATOM     29  C   UNL     1       5.183   4.049  18.116  0.00  0.00    +0.000 C 
ENDBRANCH   2  18
TORSDOF 2
ENDMDL
MODEL 5
REMARK VINA RESULT:      -8.2      1.691      2.919
REMARK  Name = 
REMARK  5 active torsions:
REMARK  status: ('A' for Active; 'I' for Inactive)
REMARK    1  A    between atoms: C_1  and  N_2
REMARK    2  A    between atoms: N_2  and  C_3
REMARK    3  A    between atoms: C_9  and  N_10
REMARK    4  A    between atoms: C_11  and  C_13
REMARK    5  A    between atoms: N_23  and  C_24
REMARK                            x       y       z     vdW  Elec       q    Type
REMARK                         _______ _______ _______ _____ _____    ______ ____
ROOT
ATOM      1  N   UNL     1       1.361   8.681  20.931  0.00  0.00    +0.000 N 
ATOM      2  C   UNL     1       1.553   8.532  19.564  0.00  0.00    +0.000 C 
ATOM      3  O   UNL     1       1.152   9.311  18.700  0.00  0.00    +0.000 OA
ATOM      4  H   UNL     1       1.898   8.101  21.559  0.00  0.00    +0.000 HD
ENDROOT
BRANCH   1  13
ATOM      5  C   UNL     1      -3.087  14.646  24.729  0.00  0.00    +0.000 C 
ATOM      6  N   UNL     1      -2.200  15.081  23.661  0.00  0.00    +0.000 N 
ATOM      7  C   UNL     1      -2.573  16.271  22.909  0.00  0.00    +0.000 C 
ATOM      8  C   UNL     1      -1.474  14.080  23.008  0.00  0.00    +0.000 A 
ATOM      9  C   UNL     1      -0.589  14.406  21.980  0.00  0.00    +0.000 A 
ATOM     10  C   UNL     1       0.151  13.414  21.351  0.00  0.00    +0.000 A 
ATOM     11  C   UNL     1       0.001  12.091  21.749  0.00  0.00    +0.000 A 
ATOM     12  C   UNL     1       0.739  11.066  21.133  0.00  0.00    +0.000 A 
ATOM     13  C   UNL     1       0.600   9.734  21.518  0.00  0.00    +0.000 A 
ATOM     14  C   UNL     1      -0.325   9.437  22.519  0.00  0.00    +0.000 A 
ATOM     15  C   UNL     1      -1.051  10.474  23.140  0.00  0.00    +0.000 A 
ATOM     16  C   UNL     1      -0.904  11.812  22.782  0.00  0.00    +0.000 A 
ATOM     17  N   UNL     1      -1.611  12.787  23.400  0.00  0.00    +0.000 NA
ENDBRANCH   1  13
BRANCH   2  18
ATOM     18  C   UNL     1       2.347   7.370  19.074  0.00  0.00    +0.000 A 
ATOM     19  C   UNL     1       2.204   6.070  19.558  0.00  0.00    +0.000 A 
ATOM     20  C   UNL     1       2.919   5.018  18.956  0.00  0.00    +0.000 A 
ATOM     21  C   UNL     1       3.795   5.249  17.881  0.00  0.00    +0.000 A 
ATOM     22  C   UNL     1       3.929   6.556  17.399  0.00  0.00    +0.000 A 
ATOM     23  C   UNL     1       3.206   7.600  17.987  0.00  0.00    +0.000 A 
ATOM     24  C   UNL     1       4.749   6.808  16.167  0.00  0.00    +0.000 C 
ATOM     25  C   UNL     1       5.973   5.924  16.190  0.00  0.00    +0.000 C 
ATOM     26  C   UNL     1       5.595   4.473  16.378  0.00  0.00    +0.000 C 
ATOM     27  O   UNL     1       6.269   3.591  15.842  0.00  0.00    +0.000 OA
ATOM     28  N   UNL     1       4.534   4.207  17.247  0.00  0.00    +0.000 N 
ATOM     29  C   UNL     1       4.150   2.821  17.461  0.00  0.00    +0.000 C 
ENDBRANCH   2  18
TORSDOF 2
ENDMDL
MODEL 6
REMARK VINA RESULT:      -8.2      2.131     10.403
REMARK  Name = 
REMARK  5 active torsions:
REMARK  status: ('A' for Active; 'I' for Inactive)
REMARK    1  A    between atoms: C_1  and  N_2
REMARK    2  A    between atoms: N_2  and  C_3
REMARK    3  A    between atoms: C_9  and  N_10
REMARK    4  A    between atoms: C_11  and  C_13
REMARK    5  A    between atoms: N_23  and  C_24
REMARK                            x       y       z     vdW  Elec       q    Type
REMARK                         _______ _______ _______ _____ _____    ______ ____
ROOT
ATOM      1  N   UNL     1       0.607  10.138  20.187  0.00  0.00    +0.000 N 
ATOM      2  C   UNL     1       0.584  10.482  21.532  0.00  0.00    +0.000 C 
ATOM      3  O   UNL     1       1.173   9.880  22.429  0.00  0.00    +0.000 OA
ATOM      4  H   UNL     1       0.261  10.807  19.513  0.00  0.00    +0.000 HD
ENDROOT
BRANCH   1  13
ATOM      5  C   UNL     1       4.729   3.627  16.963  0.00  0.00    +0.000 C 
ATOM      6  N   UNL     1       4.133   3.429  18.275  0.00  0.00    +0.000 N 
ATOM      7  C   UNL     1       3.720   2.082  18.640  0.00  0.00    +0.000 C 
ATOM      8  C   UNL     1       3.421   4.511  18.805  0.00  0.00    +0.000 A 
ATOM      9  C   UNL     1       2.827   4.417  20.063  0.00  0.00    +0.000 A 
ATOM     10  C   UNL     1       2.144   5.500  20.599  0.00  0.00    +0.000 A 
ATOM     11  C   UNL     1       2.051   6.680  19.869  0.00  0.00    +0.000 A 
ATOM     12  C   UNL     1       1.369   7.794  20.387  0.00  0.00    +0.000 A 
ATOM     13  C   UNL     1       1.265   8.985  19.669  0.00  0.00    +0.000 A 
ATOM     14  C   UNL     1       1.833   9.031  18.396  0.00  0.00    +0.000 A 
ATOM     15  C   UNL     1       2.527   7.912  17.891  0.00  0.00    +0.000 A 
ATOM     16  C   UNL     1       2.659   6.725  18.608  0.00  0.00    +0.000 A 
ATOM     17  N   UNL     1       3.336   5.668  18.100  0.00  0.00    +0.000 NA
ENDBRANCH   1  13
BRANCH   2  18
ATOM     18  C   UNL     1      -0.166  11.700  21.948  0.00  0.00    +0.000 A 
ATOM     19  C   UNL     1       0.172  12.995  21.556  0.00  0.00    +0.000 A 
ATOM     20  C   UNL     1      -0.661  14.072  21.909  0.00  0.00    +0.000 A 
ATOM     21  C   UNL     1      -1.828  13.876  22.670  0.00  0.00    +0.000 A 
ATOM     22  C   UNL     1      -2.163  12.573  23.055  0.00  0.00    +0.000 A 
ATOM     23  C   UNL     1      -1.342  11.500  22.690  0.00  0.00    +0.000 A 
ATOM     24  C   UNL     1      -3.471  12.319  23.745  0.00  0.00    +0.000 C 
ATOM     25  C   UNL     1      -3.755  13.447  24.710  0.00  0.00    +0.000 C 
ATOM     26  C   UNL     1      -3.687  14.788  24.017  0.00  0.00    +0.000 C 
ATOM     27  O   UNL     1      -4.429  15.702  24.380  0.00  0.00    +0.000 OA
ATOM     28  N   UNL     1      -2.697  14.943  23.043  0.00  0.00    +0.000 N 
ATOM     29  C   UNL     1      -2.594  16.225  22.364  0.00  0.00    +0.000 C 
ENDBRANCH   2  18
TORSDOF 2
ENDMDL
MODEL 7
REMARK VINA RESULT:      -8.2      0.963      1.745
REMARK  Name = 
REMARK  5 active torsions:
REMARK  status: ('A' for Active; 'I' for Inactive)
REMARK    1  A    between atoms: C_1  and  N_2
REMARK    2  A    between atoms: N_2  and  C_3
REMARK    3  A    between atoms: C_9  and  N_10
REMARK    4  A    between atoms: C_11  and  C_13
REMARK    5  A    between atoms: N_23  and  C_24
REMARK                            x       y       z     vdW  Elec       q    Type
REMARK                         _______ _______ _______ _____ _____    ______ ____
ROOT
ATOM      1  N   UNL     1       0.336   9.703  20.666  0.00  0.00    +0.000 N 
ATOM      2  C   UNL     1       1.247   8.781  21.163  0.00  0.00    +0.000 C 
ATOM      3  O   UNL     1       1.746   8.811  22.288  0.00  0.00    +0.000 OA
ATOM      4  H   UNL     1      -0.162   9.478  19.816  0.00  0.00    +0.000 HD
ENDROOT
BRANCH   1  13
ATOM      5  C   UNL     1      -2.218  16.267  25.158  0.00  0.00    +0.000 C 
ATOM      6  N   UNL     1      -1.256  16.541  24.101  0.00  0.00    +0.000 N 
ATOM      7  C   UNL     1      -1.287  17.856  23.477  0.00  0.00    +0.000 C 
ATOM      8  C   UNL     1      -0.847  15.447  23.333  0.00  0.00    +0.000 A 
ATOM      9  C   UNL     1       0.083  15.613  22.307  0.00  0.00    +0.000 A 
ATOM     10  C   UNL     1       0.509  14.521  21.562  0.00  0.00    +0.000 A 
ATOM     11  C   UNL     1      -0.004  13.259  21.843  0.00  0.00    +0.000 A 
ATOM     12  C   UNL     1       0.410  12.135  21.109  0.00  0.00    +0.000 A 
ATOM     13  C   UNL     1      -0.093  10.863  21.375  0.00  0.00    +0.000 A 
ATOM     14  C   UNL     1      -1.053  10.739  22.379  0.00  0.00    +0.000 A 
ATOM     15  C   UNL     1      -1.452  11.870  23.119  0.00  0.00    +0.000 A 
ATOM     16  C   UNL     1      -0.939  13.143  22.879  0.00  0.00    +0.000 A 
ATOM     17  N   UNL     1      -1.337  14.211  23.610  0.00  0.00    +0.000 NA
ENDBRANCH   1  13
BRANCH   2  18
ATOM     18  C   UNL     1       1.635   7.624  20.309  0.00  0.00    +0.000 A 
ATOM     19  C   UNL     1       2.263   7.747  19.070  0.00  0.00    +0.000 A 
ATOM     20  C   UNL     1       2.691   6.594  18.386  0.00  0.00    +0.000 A 
ATOM     21  C   UNL     1       2.484   5.309  18.917  0.00  0.00    +0.000 A 
ATOM     22  C   UNL     1       1.858   5.194  20.163  0.00  0.00    +0.000 A 
ATOM     23  C   UNL     1       1.446   6.342  20.850  0.00  0.00    +0.000 A 
ATOM     24  C   UNL     1       1.751   3.847  20.816  0.00  0.00    +0.000 C 
ATOM     25  C   UNL     1       1.450   2.804  19.765  0.00  0.00    +0.000 C 
ATOM     26  C   UNL     1       2.461   2.854  18.642  0.00  0.00    +0.000 C 
ATOM     27  O   UNL     1       2.786   1.814  18.066  0.00  0.00    +0.000 OA
ATOM     28  N   UNL     1       2.907   4.119  18.253  0.00  0.00    +0.000 N 
ATOM     29  C   UNL     1       3.871   4.206  17.168  0.00  0.00    +0.000 C 
ENDBRANCH   2  18
TORSDOF 2
ENDMDL
MODEL 8
REMARK VINA RESULT:      -8.1      2.882     10.435
REMARK  Name = 
REMARK  5 active torsions:
REMARK  status: ('A' for Active; 'I' for Inactive)
REMARK    1  A    between atoms: C_1  and  N_2
REMARK    2  A    between atoms: N_2  and  C_3
REMARK    3  A    between atoms: C_9  and  N_10
REMARK    4  A    between atoms: C_11  and  C_13
REMARK    5  A    between atoms: N_23  and  C_24
REMARK                            x       y       z     vdW  Elec       q    Type
REMARK                         _______ _______ _______ _____ _____    ______ ____
ROOT
ATOM      1  N   UNL     1      -0.442  10.648  20.514  0.00  0.00    +0.000 N 
ATOM      2  C   UNL     1      -0.067  11.685  21.358  0.00  0.00    +0.000 C 
ATOM      3  O   UNL     1       1.087  12.075  21.536  0.00  0.00    +0.000 OA
ATOM      4  H   UNL     1      -1.420  10.541  20.287  0.00  0.00    +0.000 HD
ENDROOT
BRANCH   1  13
ATOM      5  C   UNL     1       5.124   6.248  16.104  0.00  0.00    +0.000 C 
ATOM      6  N   UNL     1       4.700   5.670  17.370  0.00  0.00    +0.000 N 
ATOM      7  C   UNL     1       4.712   4.220  17.495  0.00  0.00    +0.000 C 
ATOM      8  C   UNL     1       3.749   6.394  18.097  0.00  0.00    +0.000 A 
ATOM      9  C   UNL     1       3.294   5.923  19.328  0.00  0.00    +0.000 A 
ATOM     10  C   UNL     1       2.370   6.656  20.062  0.00  0.00    +0.000 A 
ATOM     11  C   UNL     1       1.897   7.863  19.557  0.00  0.00    +0.000 A 
ATOM     12  C   UNL     1       0.965   8.628  20.278  0.00  0.00    +0.000 A 
ATOM     13  C   UNL     1       0.479   9.838  19.787  0.00  0.00    +0.000 A 
ATOM     14  C   UNL     1       0.922  10.259  18.533  0.00  0.00    +0.000 A 
ATOM     15  C   UNL     1       1.868   9.491  17.824  0.00  0.00    +0.000 A 
ATOM     16  C   UNL     1       2.380   8.291  18.314  0.00  0.00    +0.000 A 
ATOM     17  N   UNL     1       3.292   7.577  17.613  0.00  0.00    +0.000 NA
ENDBRANCH   1  13
BRANCH   2  18
ATOM     18  C   UNL     1      -1.127  12.437  22.084  0.00  0.00    +0.000 A 
ATOM     19  C   UNL     1      -0.872  13.381  23.078  0.00  0.00    +0.000 A 
ATOM     20  C   UNL     1      -1.933  14.122  23.629  0.00  0.00    +0.000 A 
ATOM     21  C   UNL     1      -3.261  13.919  23.212  0.00  0.00    +0.000 A 
ATOM     22  C   UNL     1      -3.509  12.973  22.211  0.00  0.00    +0.000 A 
ATOM     23  C   UNL     1      -2.450  12.248  21.652  0.00  0.00    +0.000 A 
ATOM     24  C   UNL     1      -4.895  12.836  21.650  0.00  0.00    +0.000 C 
ATOM     25  C   UNL     1      -5.903  12.980  22.766  0.00  0.00    +0.000 C 
ATOM     26  C   UNL     1      -5.686  14.262  23.537  0.00  0.00    +0.000 C 
ATOM     27  O   UNL     1      -6.652  14.859  24.013  0.00  0.00    +0.000 OA
ATOM     28  N   UNL     1      -4.361  14.652  23.747  0.00  0.00    +0.000 N 
ATOM     29  C   UNL     1      -4.114  15.875  24.494  0.00  0.00    +0.000 C 
ENDBRANCH   2  18
TORSDOF 2
ENDMDL
MODEL 9
REMARK VINA RESULT:      -8.1      1.819      1.969
REMARK  Name = 
REMARK  5 active torsions:
REMARK  status: ('A' for Active; 'I' for Inactive)
REMARK    1  A    between atoms: C_1  and  N_2
REMARK    2  A    between atoms: N_2  and  C_3
REMARK    3  A    between atoms: C_9  and  N_10
REMARK    4  A    between atoms: C_11  and  C_13
REMARK    5  A    between atoms: N_23  and  C_24
REMARK                            x       y       z     vdW  Elec       q    Type
REMARK                         _______ _______ _______ _____ _____    ______ ____
ROOT
ATOM      1  N   UNL     1       0.464   9.257  19.950  0.00  0.00    +0.000 N 
ATOM      2  C   UNL     1       1.425   9.193  18.950  0.00  0.00    +0.000 C 
ATOM      3  O   UNL     1       1.724  10.116  18.192  0.00  0.00    +0.000 OA
ATOM      4  H   UNL     1       0.438   8.521  20.641  0.00  0.00    +0.000 HD
ENDROOT
BRANCH   1  13
ATOM      5  C   UNL     1      -4.684  15.737  21.091  0.00  0.00    +0.000 C 
ATOM      6  N   UNL     1      -3.828  15.386  22.213  0.00  0.00    +0.000 N 
ATOM      7  C   UNL     1      -3.434  16.448  23.128  0.00  0.00    +0.000 C 
ATOM      8  C   UNL     1      -2.948  14.317  22.015  0.00  0.00    +0.000 A 
ATOM      9  C   UNL     1      -2.099  13.901  23.040  0.00  0.00    +0.000 A 
ATOM     10  C   UNL     1      -1.245  12.823  22.850  0.00  0.00    +0.000 A 
ATOM     11  C   UNL     1      -1.239  12.162  21.627  0.00  0.00    +0.000 A 
ATOM     12  C   UNL     1      -0.388  11.066  21.407  0.00  0.00    +0.000 A 
ATOM     13  C   UNL     1      -0.367  10.392  20.187  0.00  0.00    +0.000 A 
ATOM     14  C   UNL     1      -1.197  10.860  19.168  0.00  0.00    +0.000 A 
ATOM     15  C   UNL     1      -2.057  11.952  19.404  0.00  0.00    +0.000 A 
ATOM     16  C   UNL     1      -2.105  12.619  20.626  0.00  0.00    +0.000 A 
ATOM     17  N   UNL     1      -2.945  13.662  20.825  0.00  0.00    +0.000 NA
ENDBRANCH   1  13
BRANCH   2  18
ATOM     18  C   UNL     1       2.208   7.937  18.788  0.00  0.00    +0.000 A 
ATOM     19  C   UNL     1       3.200   7.756  17.825  0.00  0.00    +0.000 A 
ATOM     20  C   UNL     1       3.963   6.574  17.820  0.00  0.00    +0.000 A 
ATOM     21  C   UNL     1       3.737   5.553  18.761  0.00  0.00    +0.000 A 
ATOM     22  C   UNL     1       2.743   5.745  19.728  0.00  0.00    +0.000 A 
ATOM     23  C   UNL     1       1.995   6.928  19.741  0.00  0.00    +0.000 A 
ATOM     24  C   UNL     1       2.576   4.735  20.826  0.00  0.00    +0.000 C 
ATOM     25  C   UNL     1       2.770   3.347  20.263  0.00  0.00    +0.000 C 
ATOM     26  C   UNL     1       4.088   3.233  19.532  0.00  0.00    +0.000 C 
ATOM     27  O   UNL     1       4.705   2.166  19.547  0.00  0.00    +0.000 OA
ATOM     28  N   UNL     1       4.492   4.344  18.787  0.00  0.00    +0.000 N 
ATOM     29  C   UNL     1       5.749   4.266  18.062  0.00  0.00    +0.000 C 
ENDBRANCH   2  18
TORSDOF 2
ENDMDL
