MODEL 1
REMARK VINA RESULT:      -9.1      0.000      0.000
REMARK  Name = 
REMARK  3 active torsions:
REMARK  status: ('A' for Active; 'I' for Inactive)
REMARK    1  A    between atoms: C_2  and  C_14
REMARK    2  A    between atoms: N_3  and  C_4
REMARK    3  A    between atoms: C_16  and  C_17
REMARK                            x       y       z     vdW  Elec       q    Type
REMARK                         _______ _______ _______ _____ _____    ______ ____
ROOT
ATOM      1  O   UNL     1       2.149   7.534  19.664  0.00  0.00    +0.000 OA
ATOM      2  C   UNL     1       2.458   7.650  18.482  0.00  0.00    +0.000 C 
ATOM      3  N   UNL     1       1.980   8.628  17.616  0.00  0.00    +0.000 N 
ATOM      4  H   UNL     1       2.206   8.548  16.633  0.00  0.00    +0.000 HD
ENDROOT
BRANCH   3   5
ATOM      5  C   UNL     1       1.095   9.677  17.986  0.00  0.00    +0.000 A 
ATOM      6  C   UNL     1       1.562  10.918  18.490  0.00  0.00    +0.000 A 
ATOM      7  C   UNL     1       0.700  11.943  18.888  0.00  0.00    +0.000 A 
ATOM      8  C   UNL     1      -0.637  11.696  18.752  0.00  0.00    +0.000 A 
ATOM      9  N   UNL     1      -1.714  12.512  19.062  0.00  0.00    +0.000 N 
ATOM     10  C   UNL     1      -2.896  11.829  18.749  0.00  0.00    +0.000 A 
ATOM     11  O   UNL     1      -4.031  12.241  18.895  0.00  0.00    +0.000 OA
ATOM     12  N   UNL     1      -2.512  10.578  18.237  0.00  0.00    +0.000 N 
ATOM     13  C   UNL     1      -1.123  10.496  18.240  0.00  0.00    +0.000 A 
ATOM     14  C   UNL     1      -0.287   9.469  17.841  0.00  0.00    +0.000 A 
ATOM     15  H   UNL     1      -1.684  13.440  19.455  0.00  0.00    +0.000 HD
ATOM     16  H   UNL     1      -3.173   9.880  17.936  0.00  0.00    +0.000 HD
ENDBRANCH   3   5
BRANCH   2  17
ATOM     17  C   UNL     1       3.438   6.669  17.941  0.00  0.00    +0.000 A 
ATOM     18  C   UNL     1       4.753   7.091  17.728  0.00  0.00    +0.000 A 
ATOM     19  C   UNL     1       5.722   6.150  17.407  0.00  0.00    +0.000 A 
ATOM     20  N   UNL     1       5.408   4.837  17.303  0.00  0.00    +0.000 NA
ATOM     21  C   UNL     1       4.149   4.418  17.517  0.00  0.00    +0.000 A 
ATOM     22  C   UNL     1       3.891   3.053  17.453  0.00  0.00    +0.000 A 
ATOM     23  C   UNL     1       2.618   2.522  17.675  0.00  0.00    +0.000 A 
ATOM     24  C   UNL     1       1.563   3.374  17.949  0.00  0.00    +0.000 A 
ATOM     25  C   UNL     1       1.796   4.745  18.012  0.00  0.00    +0.000 A 
ATOM     26  C   UNL     1       3.096   5.295  17.825  0.00  0.00    +0.000 A 
BRANCH  19  27
ATOM     27  C   UNL     1       7.165   6.560  17.241  0.00  0.00    +0.000 C 
ATOM     28  C   UNL     1       8.017   6.850  18.456  0.00  0.00    +0.000 C 
ATOM     29  C   UNL     1       7.599   7.972  17.555  0.00  0.00    +0.000 C 
ENDBRANCH  19  27
ENDBRANCH   2  17
TORSDOF 3
ENDMDL
MODEL 2
REMARK VINA RESULT:      -9.0      1.165      1.732
REMARK  Name = 
REMARK  3 active torsions:
REMARK  status: ('A' for Active; 'I' for Inactive)
REMARK    1  A    between atoms: C_2  and  C_14
REMARK    2  A    between atoms: N_3  and  C_4
REMARK    3  A    between atoms: C_16  and  C_17
REMARK                            x       y       z     vdW  Elec       q    Type
REMARK                         _______ _______ _______ _____ _____    ______ ____
ROOT
ATOM      1  O   UNL     1       2.149   7.620  19.680  0.00  0.00    +0.000 OA
ATOM      2  C   UNL     1       2.429   7.707  18.489  0.00  0.00    +0.000 C 
ATOM      3  N   UNL     1       1.931   8.664  17.611  0.00  0.00    +0.000 N 
ATOM      4  H   UNL     1       2.132   8.560  16.625  0.00  0.00    +0.000 HD
ENDROOT
BRANCH   3   5
ATOM      5  C   UNL     1       1.055   9.722  17.977  0.00  0.00    +0.000 A 
ATOM      6  C   UNL     1      -0.355   9.614  17.856  0.00  0.00    +0.000 A 
ATOM      7  C   UNL     1      -1.222  10.660  18.181  0.00  0.00    +0.000 A 
ATOM      8  C   UNL     1      -0.641  11.806  18.644  0.00  0.00    +0.000 A 
ATOM      9  N   UNL     1      -1.239  12.994  19.036  0.00  0.00    +0.000 N 
ATOM     10  C   UNL     1      -0.237  13.887  19.437  0.00  0.00    +0.000 A 
ATOM     11  O   UNL     1      -0.398  15.024  19.839  0.00  0.00    +0.000 OA
ATOM     12  N   UNL     1       0.986  13.212  19.284  0.00  0.00    +0.000 N 
ATOM     13  C   UNL     1       0.737  11.933  18.795  0.00  0.00    +0.000 A 
ATOM     14  C   UNL     1       1.613  10.911  18.478  0.00  0.00    +0.000 A 
ATOM     15  H   UNL     1      -2.224  13.211  19.036  0.00  0.00    +0.000 HD
ATOM     16  H   UNL     1       1.877  13.630  19.497  0.00  0.00    +0.000 HD
ENDBRANCH   3   5
BRANCH   2  17
ATOM     17  C   UNL     1       3.395   6.712  17.948  0.00  0.00    +0.000 A 
ATOM     18  C   UNL     1       4.713   7.119  17.723  0.00  0.00    +0.000 A 
ATOM     19  C   UNL     1       5.670   6.166  17.402  0.00  0.00    +0.000 A 
ATOM     20  N   UNL     1       5.342   4.856  17.309  0.00  0.00    +0.000 NA
ATOM     21  C   UNL     1       4.080   4.452  17.533  0.00  0.00    +0.000 A 
ATOM     22  C   UNL     1       3.807   3.088  17.481  0.00  0.00    +0.000 A 
ATOM     23  C   UNL     1       2.530   2.572  17.714  0.00  0.00    +0.000 A 
ATOM     24  C   UNL     1       1.486   3.437  17.989  0.00  0.00    +0.000 A 
ATOM     25  C   UNL     1       1.734   4.806  18.042  0.00  0.00    +0.000 A 
ATOM     26  C   UNL     1       3.038   5.341  17.843  0.00  0.00    +0.000 A 
BRANCH  19  27
ATOM     27  C   UNL     1       7.116   6.560  17.224  0.00  0.00    +0.000 C 
ATOM     28  C   UNL     1       7.991   6.807  18.433  0.00  0.00    +0.000 C 
ATOM     29  C   UNL     1       7.575   7.958  17.566  0.00  0.00    +0.000 C 
ENDBRANCH  19  27
ENDBRANCH   2  17
TORSDOF 3
ENDMDL
MODEL 3
REMARK VINA RESULT:      -9.0      2.739      2.824
REMARK  Name = 
REMARK  3 active torsions:
REMARK  status: ('A' for Active; 'I' for Inactive)
REMARK    1  A    between atoms: C_2  and  C_14
REMARK    2  A    between atoms: N_3  and  C_4
REMARK    3  A    between atoms: C_16  and  C_17
REMARK                            x       y       z     vdW  Elec       q    Type
REMARK                         _______ _______ _______ _____ _____    ______ ____
ROOT
ATOM      1  O   UNL     1       1.961   7.555  18.088  0.00  0.00    +0.000 OA
ATOM      2  C   UNL     1       2.358   7.125  19.166  0.00  0.00    +0.000 C 
ATOM      3  N   UNL     1       2.053   7.665  20.410  0.00  0.00    +0.000 N 
ATOM      4  H   UNL     1       2.539   7.304  21.221  0.00  0.00    +0.000 HD
ENDROOT
BRANCH   3   5
ATOM      5  C   UNL     1       1.190   8.774  20.624  0.00  0.00    +0.000 A 
ATOM      6  C   UNL     1       0.969   9.763  19.632  0.00  0.00    +0.000 A 
ATOM      7  C   UNL     1       0.149  10.874  19.843  0.00  0.00    +0.000 A 
ATOM      8  C   UNL     1      -0.454  10.958  21.066  0.00  0.00    +0.000 A 
ATOM      9  N   UNL     1      -1.306  11.935  21.558  0.00  0.00    +0.000 N 
ATOM     10  C   UNL     1      -1.670  11.592  22.865  0.00  0.00    +0.000 A 
ATOM     11  O   UNL     1      -2.405  12.222  23.602  0.00  0.00    +0.000 OA
ATOM     12  N   UNL     1      -1.022  10.379  23.157  0.00  0.00    +0.000 N 
ATOM     13  C   UNL     1      -0.273   9.991  22.052  0.00  0.00    +0.000 A 
ATOM     14  C   UNL     1       0.535   8.884  21.863  0.00  0.00    +0.000 A 
ATOM     15  H   UNL     1      -1.620  12.766  21.081  0.00  0.00    +0.000 HD
ATOM     16  H   UNL     1      -1.108   9.908  24.043  0.00  0.00    +0.000 HD
ENDBRANCH   3   5
BRANCH   2  17
ATOM     17  C   UNL     1       3.224   5.914  19.132  0.00  0.00    +0.000 A 
ATOM     18  C   UNL     1       4.524   6.040  18.639  0.00  0.00    +0.000 A 
ATOM     19  C   UNL     1       5.405   4.976  18.774  0.00  0.00    +0.000 A 
ATOM     20  N   UNL     1       5.020   3.827  19.379  0.00  0.00    +0.000 NA
ATOM     21  C   UNL     1       3.774   3.699  19.867  0.00  0.00    +0.000 A 
ATOM     22  C   UNL     1       3.446   2.520  20.529  0.00  0.00    +0.000 A 
ATOM     23  C   UNL     1       2.182   2.301  21.082  0.00  0.00    +0.000 A 
ATOM     24  C   UNL     1       1.206   3.273  20.958  0.00  0.00    +0.000 A 
ATOM     25  C   UNL     1       1.510   4.459  20.294  0.00  0.00    +0.000 A 
ATOM     26  C   UNL     1       2.806   4.710  19.759  0.00  0.00    +0.000 A 
BRANCH  19  27
ATOM     27  C   UNL     1       6.839   5.102  18.318  0.00  0.00    +0.000 C 
ATOM     28  C   UNL     1       7.858   5.790  19.198  0.00  0.00    +0.000 C 
ATOM     29  C   UNL     1       7.402   6.450  17.932  0.00  0.00    +0.000 C 
ENDBRANCH  19  27
ENDBRANCH   2  17
TORSDOF 3
ENDMDL
MODEL 4
REMARK VINA RESULT:      -8.7      1.918      2.050
REMARK  Name = 
REMARK  3 active torsions:
REMARK  status: ('A' for Active; 'I' for Inactive)
REMARK    1  A    between atoms: C_2  and  C_14
REMARK    2  A    between atoms: N_3  and  C_4
REMARK    3  A    between atoms: C_16  and  C_17
REMARK                            x       y       z     vdW  Elec       q    Type
REMARK                         _______ _______ _______ _____ _____    ______ ____
ROOT
ATOM      1  O   UNL     1       1.804   8.090  17.624  0.00  0.00    +0.000 OA
ATOM      2  C   UNL     1       2.461   7.494  18.470  0.00  0.00    +0.000 C 
ATOM      3  N   UNL     1       2.375   7.692  19.844  0.00  0.00    +0.000 N 
ATOM      4  H   UNL     1       3.056   7.236  20.438  0.00  0.00    +0.000 HD
ENDROOT
BRANCH   3   5
ATOM      5  C   UNL     1       1.471   8.586  20.480  0.00  0.00    +0.000 A 
ATOM      6  C   UNL     1       1.137   8.474  21.855  0.00  0.00    +0.000 A 
ATOM      7  C   UNL     1       0.225   9.326  22.481  0.00  0.00    +0.000 A 
ATOM      8  C   UNL     1      -0.330  10.300  21.699  0.00  0.00    +0.000 A 
ATOM      9  N   UNL     1      -1.256  11.274  22.038  0.00  0.00    +0.000 N 
ATOM     10  C   UNL     1      -1.527  12.047  20.903  0.00  0.00    +0.000 A 
ATOM     11  O   UNL     1      -2.294  12.988  20.833  0.00  0.00    +0.000 OA
ATOM     12  N   UNL     1      -0.740  11.522  19.864  0.00  0.00    +0.000 N 
ATOM     13  C   UNL     1      -0.005  10.447  20.353  0.00  0.00    +0.000 A 
ATOM     14  C   UNL     1       0.895   9.614  19.714  0.00  0.00    +0.000 A 
ATOM     15  H   UNL     1      -1.685  11.420  22.939  0.00  0.00    +0.000 HD
ATOM     16  H   UNL     1      -0.746  11.892  18.927  0.00  0.00    +0.000 HD
ENDBRANCH   3   5
BRANCH   2  17
ATOM     17  C   UNL     1       3.416   6.462  17.981  0.00  0.00    +0.000 A 
ATOM     18  C   UNL     1       4.744   6.837  17.759  0.00  0.00    +0.000 A 
ATOM     19  C   UNL     1       5.687   5.856  17.487  0.00  0.00    +0.000 A 
ATOM     20  N   UNL     1       5.337   4.549  17.439  0.00  0.00    +0.000 NA
ATOM     21  C   UNL     1       4.065   4.176  17.661  0.00  0.00    +0.000 A 
ATOM     22  C   UNL     1       3.768   2.817  17.657  0.00  0.00    +0.000 A 
ATOM     23  C   UNL     1       2.479   2.333  17.892  0.00  0.00    +0.000 A 
ATOM     24  C   UNL     1       1.447   3.226  18.119  0.00  0.00    +0.000 A 
ATOM     25  C   UNL     1       1.719   4.591  18.124  0.00  0.00    +0.000 A 
ATOM     26  C   UNL     1       3.036   5.095  17.923  0.00  0.00    +0.000 A 
BRANCH  19  27
ATOM     27  C   UNL     1       7.143   6.217  17.314  0.00  0.00    +0.000 C 
ATOM     28  C   UNL     1       7.969   6.638  18.509  0.00  0.00    +0.000 C 
ATOM     29  C   UNL     1       7.598   7.650  17.466  0.00  0.00    +0.000 C 
ENDBRANCH  19  27
ENDBRANCH   2  17
TORSDOF 3
ENDMDL
MODEL 5
REMARK VINA RESULT:      -8.5      2.300      2.832
REMARK  Name = 
REMARK  3 active torsions:
REMARK  status: ('A' for Active; 'I' for Inactive)
REMARK    1  A    between atoms: C_2  and  C_14
REMARK    2  A    between atoms: N_3  and  C_4
REMARK    3  A    between atoms: C_16  and  C_17
REMARK                            x       y       z     vdW  Elec       q    Type
REMARK                         _______ _______ _______ _____ _____    ______ ____
ROOT
ATOM      1  O   UNL     1       2.613   7.164  19.955  0.00  0.00    +0.000 OA
ATOM      2  C   UNL     1       2.541   7.102  18.732  0.00  0.00    +0.000 C 
ATOM      3  N   UNL     1       2.066   8.112  17.901  0.00  0.00    +0.000 N 
ATOM      4  H   UNL     1       1.933   7.901  16.920  0.00  0.00    +0.000 HD
ENDROOT
BRANCH   3   5
ATOM      5  C   UNL     1       1.638   9.393  18.344  0.00  0.00    +0.000 A 
ATOM      6  C   UNL     1       0.574   9.558  19.267  0.00  0.00    +0.000 A 
ATOM      7  C   UNL     1       0.124  10.813  19.683  0.00  0.00    +0.000 A 
ATOM      8  C   UNL     1       0.778  11.894  19.162  0.00  0.00    +0.000 A 
ATOM      9  N   UNL     1       0.553  13.244  19.384  0.00  0.00    +0.000 N 
ATOM     10  C   UNL     1       1.476  13.980  18.630  0.00  0.00    +0.000 A 
ATOM     11  O   UNL     1       1.568  15.191  18.579  0.00  0.00    +0.000 OA
ATOM     12  N   UNL     1       2.270  13.044  17.945  0.00  0.00    +0.000 N 
ATOM     13  C   UNL     1       1.840  11.762  18.271  0.00  0.00    +0.000 A 
ATOM     14  C   UNL     1       2.300  10.529  17.847  0.00  0.00    +0.000 A 
ATOM     15  H   UNL     1      -0.151  13.656  19.976  0.00  0.00    +0.000 HD
ATOM     16  H   UNL     1       3.015  13.307  17.320  0.00  0.00    +0.000 HD
ENDBRANCH   3   5
BRANCH   2  17
ATOM     17  C   UNL     1       3.017   5.847  18.090  0.00  0.00    +0.000 A 
ATOM     18  C   UNL     1       4.137   5.909  17.258  0.00  0.00    +0.000 A 
ATOM     19  C   UNL     1       4.708   4.728  16.803  0.00  0.00    +0.000 A 
ATOM     20  N   UNL     1       4.197   3.526  17.159  0.00  0.00    +0.000 NA
ATOM     21  C   UNL     1       3.126   3.455  17.968  0.00  0.00    +0.000 A 
ATOM     22  C   UNL     1       2.674   2.195  18.349  0.00  0.00    +0.000 A 
ATOM     23  C   UNL     1       1.578   2.020  19.198  0.00  0.00    +0.000 A 
ATOM     24  C   UNL     1       0.896   3.129  19.668  0.00  0.00    +0.000 A 
ATOM     25  C   UNL     1       1.327   4.399  19.295  0.00  0.00    +0.000 A 
ATOM     26  C   UNL     1       2.465   4.592  18.461  0.00  0.00    +0.000 A 
BRANCH  19  27
ATOM     27  C   UNL     1       5.962   4.755  15.962  0.00  0.00    +0.000 C 
ATOM     28  C   UNL     1       5.881   5.085  14.489  0.00  0.00    +0.000 C 
ATOM     29  C   UNL     1       6.207   3.687  14.922  0.00  0.00    +0.000 C 
ENDBRANCH  19  27
ENDBRANCH   2  17
TORSDOF 3
ENDMDL
MODEL 6
REMARK VINA RESULT:      -8.4      2.443      2.532
REMARK  Name = 
REMARK  3 active torsions:
REMARK  status: ('A' for Active; 'I' for Inactive)
REMARK    1  A    between atoms: C_2  and  C_14
REMARK    2  A    between atoms: N_3  and  C_4
REMARK    3  A    between atoms: C_16  and  C_17
REMARK                            x       y       z     vdW  Elec       q    Type
REMARK                         _______ _______ _______ _____ _____    ______ ____
ROOT
ATOM      1  O   UNL     1       2.029   7.936  18.399  0.00  0.00    +0.000 OA
ATOM      2  C   UNL     1       2.327   7.309  19.410  0.00  0.00    +0.000 C 
ATOM      3  N   UNL     1       1.944   7.639  20.705  0.00  0.00    +0.000 N 
ATOM      4  H   UNL     1       2.355   7.123  21.473  0.00  0.00    +0.000 HD
ENDROOT
BRANCH   3   5
ATOM      5  C   UNL     1       1.102   8.732  21.049  0.00  0.00    +0.000 A 
ATOM      6  C   UNL     1       0.740   9.016  22.391  0.00  0.00    +0.000 A 
ATOM      7  C   UNL     1      -0.113  10.067  22.736  0.00  0.00    +0.000 A 
ATOM      8  C   UNL     1      -0.578  10.832  21.705  0.00  0.00    +0.000 A 
ATOM      9  N   UNL     1      -1.431  11.925  21.741  0.00  0.00    +0.000 N 
ATOM     10  C   UNL     1      -1.624  12.384  20.432  0.00  0.00    +0.000 A 
ATOM     11  O   UNL     1      -2.315  13.324  20.088  0.00  0.00    +0.000 OA
ATOM     12  N   UNL     1      -0.864  11.546  19.598  0.00  0.00    +0.000 N 
ATOM     13  C   UNL     1      -0.223  10.591  20.381  0.00  0.00    +0.000 A 
ATOM     14  C   UNL     1       0.619   9.556  20.018  0.00  0.00    +0.000 A 
ATOM     15  H   UNL     1      -1.861  12.336  22.554  0.00  0.00    +0.000 HD
ATOM     16  H   UNL     1      -0.827  11.651  18.597  0.00  0.00    +0.000 HD
ENDBRANCH   3   5
BRANCH   2  17
ATOM     17  C   UNL     1       3.154   6.085  19.226  0.00  0.00    +0.000 A 
ATOM     18  C   UNL     1       4.435   6.222  18.685  0.00  0.00    +0.000 A 
ATOM     19  C   UNL     1       5.289   5.128  18.682  0.00  0.00    +0.000 A 
ATOM     20  N   UNL     1       4.897   3.939  19.197  0.00  0.00    +0.000 NA
ATOM     21  C   UNL     1       3.671   3.798  19.730  0.00  0.00    +0.000 A 
ATOM     22  C   UNL     1       3.338   2.572  20.297  0.00  0.00    +0.000 A 
ATOM     23  C   UNL     1       2.094   2.335  20.887  0.00  0.00    +0.000 A 
ATOM     24  C   UNL     1       1.143   3.340  20.897  0.00  0.00    +0.000 A 
ATOM     25  C   UNL     1       1.452   4.574  20.331  0.00  0.00    +0.000 A 
ATOM     26  C   UNL     1       2.729   4.839  19.760  0.00  0.00    +0.000 A 
BRANCH  19  27
ATOM     27  C   UNL     1       6.704   5.259  18.172  0.00  0.00    +0.000 C 
ATOM     28  C   UNL     1       7.780   5.843  19.059  0.00  0.00    +0.000 C 
ATOM     29  C   UNL     1       7.286   6.622  17.878  0.00  0.00    +0.000 C 
ENDBRANCH  19  27
ENDBRANCH   2  17
TORSDOF 3
ENDMDL
MODEL 7
REMARK VINA RESULT:      -8.4      1.835      2.279
REMARK  Name = 
REMARK  3 active torsions:
REMARK  status: ('A' for Active; 'I' for Inactive)
REMARK    1  A    between atoms: C_2  and  C_14
REMARK    2  A    between atoms: N_3  and  C_4
REMARK    3  A    between atoms: C_16  and  C_17
REMARK                            x       y       z     vdW  Elec       q    Type
REMARK                         _______ _______ _______ _____ _____    ______ ____
ROOT
ATOM      1  O   UNL     1       1.827   7.937  20.409  0.00  0.00    +0.000 OA
ATOM      2  C   UNL     1       2.109   7.731  19.233  0.00  0.00    +0.000 C 
ATOM      3  N   UNL     1       1.710   8.519  18.159  0.00  0.00    +0.000 N 
ATOM      4  H   UNL     1       1.894   8.181  17.223  0.00  0.00    +0.000 HD
ENDROOT
BRANCH   3   5
ATOM      5  C   UNL     1       0.953   9.717  18.268  0.00  0.00    +0.000 A 
ATOM      6  C   UNL     1      -0.456   9.740  18.104  0.00  0.00    +0.000 A 
ATOM      7  C   UNL     1      -1.205  10.917  18.177  0.00  0.00    +0.000 A 
ATOM      8  C   UNL     1      -0.508  12.063  18.433  0.00  0.00    +0.000 A 
ATOM      9  N   UNL     1      -0.974  13.363  18.555  0.00  0.00    +0.000 N 
ATOM     10  C   UNL     1       0.113  14.204  18.820  0.00  0.00    +0.000 A 
ATOM     11  O   UNL     1       0.075  15.409  18.983  0.00  0.00    +0.000 OA
ATOM     12  N   UNL     1       1.254  13.384  18.860  0.00  0.00    +0.000 N 
ATOM     13  C   UNL     1       0.872  12.068  18.620  0.00  0.00    +0.000 A 
ATOM     14  C   UNL     1       1.632  10.915  18.551  0.00  0.00    +0.000 A 
ATOM     15  H   UNL     1      -1.927  13.680  18.466  0.00  0.00    +0.000 HD
ATOM     16  H   UNL     1       2.182  13.738  19.028  0.00  0.00    +0.000 HD
ENDBRANCH   3   5
BRANCH   2  17
ATOM     17  C   UNL     1       2.962   6.546  18.941  0.00  0.00    +0.000 A 
ATOM     18  C   UNL     1       4.166   6.745  18.261  0.00  0.00    +0.000 A 
ATOM     19  C   UNL     1       5.061   5.690  18.147  0.00  0.00    +0.000 A 
ATOM     20  N   UNL     1       4.781   4.480  18.686  0.00  0.00    +0.000 NA
ATOM     21  C   UNL     1       3.630   4.281  19.351  0.00  0.00    +0.000 A 
ATOM     22  C   UNL     1       3.417   3.036  19.935  0.00  0.00    +0.000 A 
ATOM     23  C   UNL     1       2.259   2.739  20.658  0.00  0.00    +0.000 A 
ATOM     24  C   UNL     1       1.273   3.700  20.790  0.00  0.00    +0.000 A 
ATOM     25  C   UNL     1       1.462   4.951  20.209  0.00  0.00    +0.000 A 
ATOM     26  C   UNL     1       2.654   5.278  19.502  0.00  0.00    +0.000 A 
BRANCH  19  27
ATOM     27  C   UNL     1       6.402   5.889  17.483  0.00  0.00    +0.000 C 
ATOM     28  C   UNL     1       7.617   6.236  18.313  0.00  0.00    +0.000 C 
ATOM     29  C   UNL     1       7.019   7.266  17.403  0.00  0.00    +0.000 C 
ENDBRANCH  19  27
ENDBRANCH   2  17
TORSDOF 3
ENDMDL
MODEL 8
REMARK VINA RESULT:      -8.4      1.897      2.477
REMARK  Name = 
REMARK  3 active torsions:
REMARK  status: ('A' for Active; 'I' for Inactive)
REMARK    1  A    between atoms: C_2  and  C_14
REMARK    2  A    between atoms: N_3  and  C_4
REMARK    3  A    between atoms: C_16  and  C_17
REMARK                            x       y       z     vdW  Elec       q    Type
REMARK                         _______ _______ _______ _____ _____    ______ ____
ROOT
ATOM      1  O   UNL     1       2.237   7.395  19.986  0.00  0.00    +0.000 OA
ATOM      2  C   UNL     1       2.369   7.279  18.772  0.00  0.00    +0.000 C 
ATOM      3  N   UNL     1       1.995   8.228  17.826  0.00  0.00    +0.000 N 
ATOM      4  H   UNL     1       2.034   7.970  16.848  0.00  0.00    +0.000 HD
ENDROOT
BRANCH   3   5
ATOM      5  C   UNL     1       1.446   9.503  18.130  0.00  0.00    +0.000 A 
ATOM      6  C   UNL     1       0.067   9.687  18.410  0.00  0.00    +0.000 A 
ATOM      7  C   UNL     1      -0.488  10.940  18.676  0.00  0.00    +0.000 A 
ATOM      8  C   UNL     1       0.375  11.999  18.670  0.00  0.00    +0.000 A 
ATOM      9  N   UNL     1       0.115  13.342  18.893  0.00  0.00    +0.000 N 
ATOM     10  C   UNL     1       1.316  14.053  18.784  0.00  0.00    +0.000 A 
ATOM     11  O   UNL     1       1.463  15.254  18.915  0.00  0.00    +0.000 OA
ATOM     12  N   UNL     1       2.316  13.109  18.492  0.00  0.00    +0.000 N 
ATOM     13  C   UNL     1       1.736  11.846  18.421  0.00  0.00    +0.000 A 
ATOM     14  C   UNL     1       2.306  10.615  18.154  0.00  0.00    +0.000 A 
ATOM     15  H   UNL     1      -0.777  13.766  19.094  0.00  0.00    +0.000 HD
ATOM     16  H   UNL     1       3.283  13.355  18.355  0.00  0.00    +0.000 HD
ENDBRANCH   3   5
BRANCH   2  17
ATOM     17  C   UNL     1       2.998   6.023  18.278  0.00  0.00    +0.000 A 
ATOM     18  C   UNL     1       4.198   6.114  17.570  0.00  0.00    +0.000 A 
ATOM     19  C   UNL     1       4.895   4.952  17.267  0.00  0.00    +0.000 A 
ATOM     20  N   UNL     1       4.428   3.741  17.652  0.00  0.00    +0.000 NA
ATOM     21  C   UNL     1       3.279   3.643  18.343  0.00  0.00    +0.000 A 
ATOM     22  C   UNL     1       2.872   2.381  18.764  0.00  0.00    +0.000 A 
ATOM     23  C   UNL     1       1.701   2.180  19.500  0.00  0.00    +0.000 A 
ATOM     24  C   UNL     1       0.898   3.264  19.811  0.00  0.00    +0.000 A 
ATOM     25  C   UNL     1       1.283   4.536  19.396  0.00  0.00    +0.000 A 
ATOM     26  C   UNL     1       2.493   4.757  18.678  0.00  0.00    +0.000 A 
BRANCH  19  27
ATOM     27  C   UNL     1       6.231   5.018  16.567  0.00  0.00    +0.000 C 
ATOM     28  C   UNL     1       7.500   4.686  17.319  0.00  0.00    +0.000 C 
ATOM     29  C   UNL     1       7.223   6.103  16.914  0.00  0.00    +0.000 C 
ENDBRANCH  19  27
ENDBRANCH   2  17
TORSDOF 3
ENDMDL
MODEL 9
REMARK VINA RESULT:      -8.4      2.182      2.423
REMARK  Name = 
REMARK  3 active torsions:
REMARK  status: ('A' for Active; 'I' for Inactive)
REMARK    1  A    between atoms: C_2  and  C_14
REMARK    2  A    between atoms: N_3  and  C_4
REMARK    3  A    between atoms: C_16  and  C_17
REMARK                            x       y       z     vdW  Elec       q    Type
REMARK                         _______ _______ _______ _____ _____    ______ ____
ROOT
ATOM      1  O   UNL     1       1.961   7.287  17.678  0.00  0.00    +0.000 OA
ATOM      2  C   UNL     1       2.427   7.027  18.783  0.00  0.00    +0.000 C 
ATOM      3  N   UNL     1       2.215   7.768  19.941  0.00  0.00    +0.000 N 
ATOM      4  H   UNL     1       2.753   7.532  20.765  0.00  0.00    +0.000 HD
ENDROOT
BRANCH   3   5
ATOM      5  C   UNL     1       1.382   8.916  20.029  0.00  0.00    +0.000 A 
ATOM      6  C   UNL     1       0.366   9.041  21.012  0.00  0.00    +0.000 A 
ATOM      7  C   UNL     1      -0.480  10.150  21.087  0.00  0.00    +0.000 A 
ATOM      8  C   UNL     1      -0.270  11.134  20.163  0.00  0.00    +0.000 A 
ATOM      9  N   UNL     1      -0.946  12.332  19.991  0.00  0.00    +0.000 N 
ATOM     10  C   UNL     1      -0.374  13.016  18.911  0.00  0.00    +0.000 A 
ATOM     11  O   UNL     1      -0.717  14.099  18.476  0.00  0.00    +0.000 OA
ATOM     12  N   UNL     1       0.670  12.207  18.432  0.00  0.00    +0.000 N 
ATOM     13  C   UNL     1       0.733  11.049  19.200  0.00  0.00    +0.000 A 
ATOM     14  C   UNL     1       1.580   9.960  19.109  0.00  0.00    +0.000 A 
ATOM     15  H   UNL     1      -1.726  12.675  20.530  0.00  0.00    +0.000 HD
ATOM     16  H   UNL     1       1.248  12.461  17.647  0.00  0.00    +0.000 HD
ENDBRANCH   3   5
BRANCH   2  17
ATOM     17  C   UNL     1       3.274   5.808  18.889  0.00  0.00    +0.000 A 
ATOM     18  C   UNL     1       4.594   5.874  18.437  0.00  0.00    +0.000 A 
ATOM     19  C   UNL     1       5.452   4.815  18.698  0.00  0.00    +0.000 A 
ATOM     20  N   UNL     1       5.027   3.729  19.385  0.00  0.00    +0.000 NA
ATOM     21  C   UNL     1       3.762   3.659  19.835  0.00  0.00    +0.000 A 
ATOM     22  C   UNL     1       3.391   2.547  20.584  0.00  0.00    +0.000 A 
ATOM     23  C   UNL     1       2.104   2.393  21.105  0.00  0.00    +0.000 A 
ATOM     24  C   UNL     1       1.149   3.363  20.859  0.00  0.00    +0.000 A 
ATOM     25  C   UNL     1       1.496   4.482  20.107  0.00  0.00    +0.000 A 
ATOM     26  C   UNL     1       2.814   4.669  19.602  0.00  0.00    +0.000 A 
BRANCH  19  27
ATOM     27  C   UNL     1       6.904   4.883  18.288  0.00  0.00    +0.000 C 
ATOM     28  C   UNL     1       7.887   5.692  19.105  0.00  0.00    +0.000 C 
ATOM     29  C   UNL     1       7.484   6.166  17.741  0.00  0.00    +0.000 C 
ENDBRANCH  19  27
ENDBRANCH   2  17
TORSDOF 3
ENDMDL
