MODEL 1
REMARK VINA RESULT:      -8.5      0.000      0.000
REMARK  Name = 
REMARK  5 active torsions:
REMARK  status: ('A' for Active; 'I' for Inactive)
REMARK    1  A    between atoms: C_1  and  C_2
REMARK    2  A    between atoms: C_8  and  N_9
REMARK    3  A    between atoms: C_13  and  O_14
REMARK    4  A    between atoms: O_14  and  C_15
REMARK    5  A    between atoms: C_15  and  C_17
REMARK                            x       y       z     vdW  Elec       q    Type
REMARK                         _______ _______ _______ _____ _____    ______ ____
ROOT
ATOM      1  N   UNL     1       1.100   9.782  19.474  0.00  0.00    +0.000 N 
ATOM      2  C   UNL     1       0.882   9.298  20.842  0.00  0.00    +0.000 C 
ATOM      3  C   UNL     1       1.728   8.086  21.197  0.00  0.00    +0.000 C 
ATOM      4  C   UNL     1       1.548   7.031  20.122  0.00  0.00    +0.000 C 
ATOM      5  C   UNL     1       2.017   7.556  18.776  0.00  0.00    +0.000 C 
ATOM      6  C   UNL     1       1.659   9.010  18.462  0.00  0.00    +0.000 C 
ATOM      7  O   UNL     1       1.959   9.459  17.351  0.00  0.00    +0.000 OA
ENDROOT
BRANCH   1  15
ATOM      8  C   UNL     1      -1.632  10.321  18.334  0.00  0.00    +0.000 C 
ATOM      9  C   UNL     1      -0.599  11.382  18.603  0.00  0.00    +0.000 A 
ATOM     10  C   UNL     1      -0.920  12.712  18.278  0.00  0.00    +0.000 A 
ATOM     11  C   UNL     1      -0.017  13.738  18.532  0.00  0.00    +0.000 A 
ATOM     12  F   UNL     1      -0.340  14.996  18.204  0.00  0.00    +0.000 F 
ATOM     13  C   UNL     1       1.212  13.480  19.117  0.00  0.00    +0.000 A 
ATOM     14  C   UNL     1       1.547  12.168  19.451  0.00  0.00    +0.000 A 
ATOM     15  C   UNL     1       0.662  11.109  19.183  0.00  0.00    +0.000 A 
ENDBRANCH   1  15
BRANCH   5  16
ATOM     16  O   UNL     1       3.449   7.490  18.721  0.00  0.00    +0.000 OA
BRANCH  16  17
ATOM     17  C   UNL     1       3.967   6.648  17.804  0.00  0.00    +0.000 C 
ATOM     18  O   UNL     1       4.160   6.890  16.624  0.00  0.00    +0.000 OA
BRANCH  17  19
ATOM     19  C   UNL     1       4.201   5.264  18.405  0.00  0.00    +0.000 A 
ATOM     20  N   UNL     1       5.378   5.046  18.923  0.00  0.00    +0.000 NA
ATOM     21  N   UNL     1       5.620   3.843  19.507  0.00  0.00    +0.000 N 
ATOM     22  C   UNL     1       4.721   2.816  19.641  0.00  0.00    +0.000 A 
ATOM     23  O   UNL     1       5.005   1.766  20.208  0.00  0.00    +0.000 OA
ATOM     24  C   UNL     1       3.383   3.044  19.067  0.00  0.00    +0.000 A 
ATOM     25  C   UNL     1       2.403   2.050  19.174  0.00  0.00    +0.000 A 
ATOM     26  C   UNL     1       1.132   2.270  18.647  0.00  0.00    +0.000 A 
ATOM     27  C   UNL     1       0.850   3.474  18.005  0.00  0.00    +0.000 A 
ATOM     28  C   UNL     1       1.835   4.461  17.887  0.00  0.00    +0.000 A 
ATOM     29  C   UNL     1       3.111   4.256  18.431  0.00  0.00    +0.000 A 
ATOM     30  H   UNL     1       6.542   3.708  19.912  0.00  0.00    +0.000 HD
ENDBRANCH  17  19
ENDBRANCH  16  17
ENDBRANCH   5  16
TORSDOF 4
ENDMDL
MODEL 2
REMARK VINA RESULT:      -8.0      3.486      8.282
REMARK  Name = 
REMARK  5 active torsions:
REMARK  status: ('A' for Active; 'I' for Inactive)
REMARK    1  A    between atoms: C_1  and  C_2
REMARK    2  A    between atoms: C_8  and  N_9
REMARK    3  A    between atoms: C_13  and  O_14
REMARK    4  A    between atoms: O_14  and  C_15
REMARK    5  A    between atoms: C_15  and  C_17
REMARK                            x       y       z     vdW  Elec       q    Type
REMARK                         _______ _______ _______ _____ _____    ______ ____
ROOT
ATOM      1  N   UNL     1       2.631   6.539  19.070  0.00  0.00    +0.000 N 
ATOM      2  C   UNL     1       2.105   5.954  20.310  0.00  0.00    +0.000 C 
ATOM      3  C   UNL     1       1.006   6.785  20.952  0.00  0.00    +0.000 C 
ATOM      4  C   UNL     1       1.490   8.216  21.089  0.00  0.00    +0.000 C 
ATOM      5  C   UNL     1       1.793   8.809  19.724  0.00  0.00    +0.000 C 
ATOM      6  C   UNL     1       2.488   7.878  18.728  0.00  0.00    +0.000 C 
ATOM      7  O   UNL     1       2.817   8.338  17.630  0.00  0.00    +0.000 OA
ENDROOT
BRANCH   1  15
ATOM      8  C   UNL     1       1.324   4.181  17.733  0.00  0.00    +0.000 C 
ATOM      9  C   UNL     1       2.783   4.529  17.607  0.00  0.00    +0.000 A 
ATOM     10  C   UNL     1       3.598   3.684  16.833  0.00  0.00    +0.000 A 
ATOM     11  C   UNL     1       4.947   3.971  16.656  0.00  0.00    +0.000 A 
ATOM     12  F   UNL     1       5.706   3.146  15.923  0.00  0.00    +0.000 F 
ATOM     13  C   UNL     1       5.518   5.098  17.226  0.00  0.00    +0.000 A 
ATOM     14  C   UNL     1       4.726   5.951  17.994  0.00  0.00    +0.000 A 
ATOM     15  C   UNL     1       3.364   5.669  18.208  0.00  0.00    +0.000 A 
ENDBRANCH   1  15
BRANCH   5  16
ATOM     16  O   UNL     1       0.562   9.195  19.097  0.00  0.00    +0.000 OA
BRANCH  16  17
ATOM     17  C   UNL     1       0.468  10.488  18.725  0.00  0.00    +0.000 C 
ATOM     18  O   UNL     1       1.369  11.184  18.288  0.00  0.00    +0.000 OA
BRANCH  17  19
ATOM     19  C   UNL     1      -0.926  11.041  19.020  0.00  0.00    +0.000 A 
ATOM     20  N   UNL     1      -1.073  11.672  20.152  0.00  0.00    +0.000 NA
ATOM     21  N   UNL     1      -2.284  12.217  20.439  0.00  0.00    +0.000 N 
ATOM     22  C   UNL     1      -3.390  12.201  19.628  0.00  0.00    +0.000 A 
ATOM     23  O   UNL     1      -4.445  12.742  19.946  0.00  0.00    +0.000 OA
ATOM     24  C   UNL     1      -3.243  11.497  18.342  0.00  0.00    +0.000 A 
ATOM     25  C   UNL     1      -4.321  11.447  17.451  0.00  0.00    +0.000 A 
ATOM     26  C   UNL     1      -4.178  10.797  16.226  0.00  0.00    +0.000 A 
ATOM     27  C   UNL     1      -2.966  10.189  15.904  0.00  0.00    +0.000 A 
ATOM     28  C   UNL     1      -1.894  10.229  16.802  0.00  0.00    +0.000 A 
ATOM     29  C   UNL     1      -2.022  10.897  18.028  0.00  0.00    +0.000 A 
ATOM     30  H   UNL     1      -2.364  12.713  21.323  0.00  0.00    +0.000 HD
ENDBRANCH  17  19
ENDBRANCH  16  17
ENDBRANCH   5  16
TORSDOF 4
ENDMDL
MODEL 3
REMARK VINA RESULT:      -8.0      3.607      8.226
REMARK  Name = 
REMARK  5 active torsions:
REMARK  status: ('A' for Active; 'I' for Inactive)
REMARK    1  A    between atoms: C_1  and  C_2
REMARK    2  A    between atoms: C_8  and  N_9
REMARK    3  A    between atoms: C_13  and  O_14
REMARK    4  A    between atoms: O_14  and  C_15
REMARK    5  A    between atoms: C_15  and  C_17
REMARK                            x       y       z     vdW  Elec       q    Type
REMARK                         _______ _______ _______ _____ _____    ______ ____
ROOT
ATOM      1  N   UNL     1       4.572   4.604  17.480  0.00  0.00    +0.000 N 
ATOM      2  C   UNL     1       4.069   3.319  17.979  0.00  0.00    +0.000 C 
ATOM      3  C   UNL     1       2.896   3.458  18.936  0.00  0.00    +0.000 C 
ATOM      4  C   UNL     1       3.264   4.452  20.021  0.00  0.00    +0.000 C 
ATOM      5  C   UNL     1       3.547   5.817  19.420  0.00  0.00    +0.000 C 
ATOM      6  C   UNL     1       4.332   5.822  18.106  0.00  0.00    +0.000 C 
ATOM      7  O   UNL     1       4.645   6.911  17.616  0.00  0.00    +0.000 OA
ENDROOT
BRANCH   1  15
ATOM      8  C   UNL     1       7.570   4.790  17.647  0.00  0.00    +0.000 C 
ATOM      9  C   UNL     1       6.795   4.699  16.360  0.00  0.00    +0.000 A 
ATOM     10  C   UNL     1       7.514   4.728  15.152  0.00  0.00    +0.000 A 
ATOM     11  C   UNL     1       6.855   4.617  13.934  0.00  0.00    +0.000 A 
ATOM     12  F   UNL     1       7.560   4.658  12.796  0.00  0.00    +0.000 F 
ATOM     13  C   UNL     1       5.478   4.467  13.878  0.00  0.00    +0.000 A 
ATOM     14  C   UNL     1       4.746   4.432  15.065  0.00  0.00    +0.000 A 
ATOM     15  C   UNL     1       5.387   4.566  16.309  0.00  0.00    +0.000 A 
ENDBRANCH   1  15
BRANCH   5  16
ATOM     16  O   UNL     1       2.302   6.468  19.127  0.00  0.00    +0.000 OA
BRANCH  16  17
ATOM     17  C   UNL     1       1.715   7.111  20.157  0.00  0.00    +0.000 C 
ATOM     18  O   UNL     1       1.371   6.619  21.219  0.00  0.00    +0.000 OA
BRANCH  17  19
ATOM     19  C   UNL     1       1.421   8.566  19.795  0.00  0.00    +0.000 A 
ATOM     20  N   UNL     1       1.769   8.948  18.597  0.00  0.00    +0.000 NA
ATOM     21  N   UNL     1       1.490  10.222  18.214  0.00  0.00    +0.000 N 
ATOM     22  C   UNL     1       0.834  11.165  18.964  0.00  0.00    +0.000 A 
ATOM     23  O   UNL     1       0.593  12.290  18.538  0.00  0.00    +0.000 OA
ATOM     24  C   UNL     1       0.429  10.752  20.319  0.00  0.00    +0.000 A 
ATOM     25  C   UNL     1      -0.256  11.651  21.143  0.00  0.00    +0.000 A 
ATOM     26  C   UNL     1      -0.656  11.257  22.418  0.00  0.00    +0.000 A 
ATOM     27  C   UNL     1      -0.358   9.972  22.869  0.00  0.00    +0.000 A 
ATOM     28  C   UNL     1       0.339   9.078  22.048  0.00  0.00    +0.000 A 
ATOM     29  C   UNL     1       0.728   9.460  20.757  0.00  0.00    +0.000 A 
ATOM     30  H   UNL     1       1.762  10.485  17.271  0.00  0.00    +0.000 HD
ENDBRANCH  17  19
ENDBRANCH  16  17
ENDBRANCH   5  16
TORSDOF 4
ENDMDL
MODEL 4
REMARK VINA RESULT:      -7.9      2.714      3.886
REMARK  Name = 
REMARK  5 active torsions:
REMARK  status: ('A' for Active; 'I' for Inactive)
REMARK    1  A    between atoms: C_1  and  C_2
REMARK    2  A    between atoms: C_8  and  N_9
REMARK    3  A    between atoms: C_13  and  O_14
REMARK    4  A    between atoms: O_14  and  C_15
REMARK    5  A    between atoms: C_15  and  C_17
REMARK                            x       y       z     vdW  Elec       q    Type
REMARK                         _______ _______ _______ _____ _____    ______ ____
ROOT
ATOM      1  N   UNL     1       1.538   8.566  19.659  0.00  0.00    +0.000 N 
ATOM      2  C   UNL     1       1.910   9.399  18.509  0.00  0.00    +0.000 C 
ATOM      3  C   UNL     1       2.395   8.597  17.313  0.00  0.00    +0.000 C 
ATOM      4  C   UNL     1       3.479   7.640  17.771  0.00  0.00    +0.000 C 
ATOM      5  C   UNL     1       2.931   6.667  18.801  0.00  0.00    +0.000 C 
ATOM      6  C   UNL     1       1.970   7.257  19.835  0.00  0.00    +0.000 C 
ATOM      7  O   UNL     1       1.553   6.518  20.733  0.00  0.00    +0.000 OA
ENDROOT
BRANCH   1  15
ATOM      8  C   UNL     1      -0.850  10.248  18.935  0.00  0.00    +0.000 C 
ATOM      9  C   UNL     1      -0.375  10.009  20.343  0.00  0.00    +0.000 A 
ATOM     10  C   UNL     1      -1.076  10.631  21.391  0.00  0.00    +0.000 A 
ATOM     11  C   UNL     1      -0.701  10.423  22.713  0.00  0.00    +0.000 A 
ATOM     12  F   UNL     1      -1.378  11.035  23.694  0.00  0.00    +0.000 F 
ATOM     13  C   UNL     1       0.362   9.593  23.032  0.00  0.00    +0.000 A 
ATOM     14  C   UNL     1       1.068   8.963  22.008  0.00  0.00    +0.000 A 
ATOM     15  C   UNL     1       0.724   9.176  20.661  0.00  0.00    +0.000 A 
ENDBRANCH   1  15
BRANCH   5  16
ATOM     16  O   UNL     1       2.190   5.640  18.126  0.00  0.00    +0.000 OA
BRANCH  16  17
ATOM     17  C   UNL     1       2.766   4.421  18.093  0.00  0.00    +0.000 C 
ATOM     18  O   UNL     1       2.190   3.346  18.100  0.00  0.00    +0.000 OA
BRANCH  17  19
ATOM     19  C   UNL     1       4.289   4.535  18.152  0.00  0.00    +0.000 A 
ATOM     20  N   UNL     1       4.823   4.574  19.341  0.00  0.00    +0.000 NA
ATOM     21  N   UNL     1       6.176   4.634  19.444  0.00  0.00    +0.000 N 
ATOM     22  C   UNL     1       7.067   4.625  18.401  0.00  0.00    +0.000 A 
ATOM     23  O   UNL     1       8.281   4.652  18.575  0.00  0.00    +0.000 OA
ATOM     24  C   UNL     1       6.484   4.576  17.049  0.00  0.00    +0.000 A 
ATOM     25  C   UNL     1       7.325   4.550  15.931  0.00  0.00    +0.000 A 
ATOM     26  C   UNL     1       6.775   4.486  14.651  0.00  0.00    +0.000 A 
ATOM     27  C   UNL     1       5.391   4.462  14.495  0.00  0.00    +0.000 A 
ATOM     28  C   UNL     1       4.551   4.502  15.614  0.00  0.00    +0.000 A 
ATOM     29  C   UNL     1       5.096   4.547  16.905  0.00  0.00    +0.000 A 
ATOM     30  H   UNL     1       6.563   4.651  20.384  0.00  0.00    +0.000 HD
ENDBRANCH  17  19
ENDBRANCH  16  17
ENDBRANCH   5  16
TORSDOF 4
ENDMDL
MODEL 5
REMARK VINA RESULT:      -7.9      3.425      8.267
REMARK  Name = 
REMARK  5 active torsions:
REMARK  status: ('A' for Active; 'I' for Inactive)
REMARK    1  A    between atoms: C_1  and  C_2
REMARK    2  A    between atoms: C_8  and  N_9
REMARK    3  A    between atoms: C_13  and  O_14
REMARK    4  A    between atoms: O_14  and  C_15
REMARK    5  A    between atoms: C_15  and  C_17
REMARK                            x       y       z     vdW  Elec       q    Type
REMARK                         _______ _______ _______ _____ _____    ______ ____
ROOT
ATOM      1  N   UNL     1       2.317   5.609  19.629  0.00  0.00    +0.000 N 
ATOM      2  C   UNL     1       1.516   5.673  20.857  0.00  0.00    +0.000 C 
ATOM      3  C   UNL     1       0.724   6.963  20.997  0.00  0.00    +0.000 C 
ATOM      4  C   UNL     1       1.662   8.138  20.799  0.00  0.00    +0.000 C 
ATOM      5  C   UNL     1       2.270   8.105  19.407  0.00  0.00    +0.000 C 
ATOM      6  C   UNL     1       2.680   6.726  18.887  0.00  0.00    +0.000 C 
ATOM      7  O   UNL     1       3.242   6.659  17.788  0.00  0.00    +0.000 OA
ENDROOT
BRANCH   1  15
ATOM      8  C   UNL     1       0.991   4.107  17.384  0.00  0.00    +0.000 C 
ATOM      9  C   UNL     1       2.136   3.574  18.204  0.00  0.00    +0.000 A 
ATOM     10  C   UNL     1       2.604   2.279  17.920  0.00  0.00    +0.000 A 
ATOM     11  C   UNL     1       3.678   1.746  18.623  0.00  0.00    +0.000 A 
ATOM     12  F   UNL     1       4.100   0.506  18.342  0.00  0.00    +0.000 F 
ATOM     13  C   UNL     1       4.319   2.478  19.610  0.00  0.00    +0.000 A 
ATOM     14  C   UNL     1       3.873   3.766  19.904  0.00  0.00    +0.000 A 
ATOM     15  C   UNL     1       2.773   4.319  19.224  0.00  0.00    +0.000 A 
ENDBRANCH   1  15
BRANCH   5  16
ATOM     16  O   UNL     1       1.309   8.603  18.465  0.00  0.00    +0.000 OA
BRANCH  16  17
ATOM     17  C   UNL     1       1.405   9.913  18.159  0.00  0.00    +0.000 C 
ATOM     18  O   UNL     1       2.303  10.448  17.530  0.00  0.00    +0.000 OA
BRANCH  17  19
ATOM     19  C   UNL     1       0.271  10.708  18.803  0.00  0.00    +0.000 A 
ATOM     20  N   UNL     1       0.594  11.468  19.813  0.00  0.00    +0.000 NA
ATOM     21  N   UNL     1      -0.374  12.226  20.393  0.00  0.00    +0.000 N 
ATOM     22  C   UNL     1      -1.685  12.304  19.996  0.00  0.00    +0.000 A 
ATOM     23  O   UNL     1      -2.496  13.035  20.553  0.00  0.00    +0.000 OA
ATOM     24  C   UNL     1      -2.068  11.457  18.853  0.00  0.00    +0.000 A 
ATOM     25  C   UNL     1      -3.385  11.488  18.377  0.00  0.00    +0.000 A 
ATOM     26  C   UNL     1      -3.746  10.702  17.285  0.00  0.00    +0.000 A 
ATOM     27  C   UNL     1      -2.796   9.879  16.682  0.00  0.00    +0.000 A 
ATOM     28  C   UNL     1      -1.484   9.839  17.167  0.00  0.00    +0.000 A 
ATOM     29  C   UNL     1      -1.107  10.641  18.254  0.00  0.00    +0.000 A 
ATOM     30  H   UNL     1      -0.088  12.815  21.169  0.00  0.00    +0.000 HD
ENDBRANCH  17  19
ENDBRANCH  16  17
ENDBRANCH   5  16
TORSDOF 4
ENDMDL
MODEL 6
REMARK VINA RESULT:      -7.8      3.569      8.496
REMARK  Name = 
REMARK  5 active torsions:
REMARK  status: ('A' for Active; 'I' for Inactive)
REMARK    1  A    between atoms: C_1  and  C_2
REMARK    2  A    between atoms: C_8  and  N_9
REMARK    3  A    between atoms: C_13  and  O_14
REMARK    4  A    between atoms: O_14  and  C_15
REMARK    5  A    between atoms: C_15  and  C_17
REMARK                            x       y       z     vdW  Elec       q    Type
REMARK                         _______ _______ _______ _____ _____    ______ ____
ROOT
ATOM      1  N   UNL     1       2.658   6.682  18.915  0.00  0.00    +0.000 N 
ATOM      2  C   UNL     1       2.227   6.152  20.214  0.00  0.00    +0.000 C 
ATOM      3  C   UNL     1       1.103   6.953  20.852  0.00  0.00    +0.000 C 
ATOM      4  C   UNL     1       1.496   8.418  20.872  0.00  0.00    +0.000 C 
ATOM      5  C   UNL     1       1.700   8.934  19.458  0.00  0.00    +0.000 C 
ATOM      6  C   UNL     1       2.412   7.983  18.493  0.00  0.00    +0.000 C 
ATOM      7  O   UNL     1       2.660   8.386  17.352  0.00  0.00    +0.000 OA
ENDROOT
BRANCH   1  15
ATOM      8  C   UNL     1       1.447   4.172  17.781  0.00  0.00    +0.000 C 
ATOM      9  C   UNL     1       2.877   4.595  17.572  0.00  0.00    +0.000 A 
ATOM     10  C   UNL     1       3.711   3.752  16.818  0.00  0.00    +0.000 A 
ATOM     11  C   UNL     1       5.032   4.106  16.567  0.00  0.00    +0.000 A 
ATOM     12  F   UNL     1       5.812   3.281  15.855  0.00  0.00    +0.000 F 
ATOM     13  C   UNL     1       5.554   5.298  17.043  0.00  0.00    +0.000 A 
ATOM     14  C   UNL     1       4.742   6.150  17.790  0.00  0.00    +0.000 A 
ATOM     15  C   UNL     1       3.409   5.804  18.078  0.00  0.00    +0.000 A 
ENDBRANCH   1  15
BRANCH   5  16
ATOM     16  O   UNL     1       0.419   9.197  18.866  0.00  0.00    +0.000 OA
BRANCH  16  17
ATOM     17  C   UNL     1       0.198  10.469  18.477  0.00  0.00    +0.000 C 
ATOM     18  O   UNL     1       1.014  11.375  18.460  0.00  0.00    +0.000 OA
BRANCH  17  19
ATOM     19  C   UNL     1      -1.276  10.688  18.141  0.00  0.00    +0.000 A 
ATOM     20  N   UNL     1      -1.739  10.041  17.107  0.00  0.00    +0.000 NA
ATOM     21  N   UNL     1      -3.055  10.171  16.794  0.00  0.00    +0.000 N 
ATOM     22  C   UNL     1      -3.981  10.908  17.488  0.00  0.00    +0.000 A 
ATOM     23  O   UNL     1      -5.162  10.954  17.159  0.00  0.00    +0.000 OA
ATOM     24  C   UNL     1      -3.479  11.642  18.662  0.00  0.00    +0.000 A 
ATOM     25  C   UNL     1      -4.363  12.407  19.433  0.00  0.00    +0.000 A 
ATOM     26  C   UNL     1      -3.894  13.089  20.554  0.00  0.00    +0.000 A 
ATOM     27  C   UNL     1      -2.544  13.016  20.892  0.00  0.00    +0.000 A 
ATOM     28  C   UNL     1      -1.659  12.262  20.113  0.00  0.00    +0.000 A 
ATOM     29  C   UNL     1      -2.126  11.557  18.994  0.00  0.00    +0.000 A 
ATOM     30  H   UNL     1      -3.388   9.645  15.991  0.00  0.00    +0.000 HD
ENDBRANCH  17  19
ENDBRANCH  16  17
ENDBRANCH   5  16
TORSDOF 4
ENDMDL
MODEL 7
REMARK VINA RESULT:      -7.7      3.810      8.057
REMARK  Name = 
REMARK  5 active torsions:
REMARK  status: ('A' for Active; 'I' for Inactive)
REMARK    1  A    between atoms: C_1  and  C_2
REMARK    2  A    between atoms: C_8  and  N_9
REMARK    3  A    between atoms: C_13  and  O_14
REMARK    4  A    between atoms: O_14  and  C_15
REMARK    5  A    between atoms: C_15  and  C_17
REMARK                            x       y       z     vdW  Elec       q    Type
REMARK                         _______ _______ _______ _____ _____    ______ ____
ROOT
ATOM      1  N   UNL     1       4.459   4.905  17.070  0.00  0.00    +0.000 N 
ATOM      2  C   UNL     1       4.023   3.727  17.829  0.00  0.00    +0.000 C 
ATOM      3  C   UNL     1       2.837   4.000  18.740  0.00  0.00    +0.000 C 
ATOM      4  C   UNL     1       3.142   5.217  19.592  0.00  0.00    +0.000 C 
ATOM      5  C   UNL     1       3.356   6.440  18.718  0.00  0.00    +0.000 C 
ATOM      6  C   UNL     1       4.149   6.212  17.429  0.00  0.00    +0.000 C 
ATOM      7  O   UNL     1       4.407   7.191  16.720  0.00  0.00    +0.000 OA
ENDROOT
BRANCH   1  15
ATOM      8  C   UNL     1       7.443   5.271  17.187  0.00  0.00    +0.000 C 
ATOM      9  C   UNL     1       6.683   4.879  15.948  0.00  0.00    +0.000 A 
ATOM     10  C   UNL     1       7.410   4.694  14.759  0.00  0.00    +0.000 A 
ATOM     11  C   UNL     1       6.765   4.303  13.591  0.00  0.00    +0.000 A 
ATOM     12  F   UNL     1       7.477   4.144  12.467  0.00  0.00    +0.000 F 
ATOM     13  C   UNL     1       5.398   4.076  13.572  0.00  0.00    +0.000 A 
ATOM     14  C   UNL     1       4.660   4.249  14.742  0.00  0.00    +0.000 A 
ATOM     15  C   UNL     1       5.284   4.668  15.930  0.00  0.00    +0.000 A 
ENDBRANCH   1  15
BRANCH   5  16
ATOM     16  O   UNL     1       2.080   6.946  18.301  0.00  0.00    +0.000 OA
BRANCH  16  17
ATOM     17  C   UNL     1       1.940   8.287  18.322  0.00  0.00    +0.000 C 
ATOM     18  O   UNL     1       2.279   9.066  17.447  0.00  0.00    +0.000 OA
BRANCH  17  19
ATOM     19  C   UNL     1       1.381   8.756  19.665  0.00  0.00    +0.000 A 
ATOM     20  N   UNL     1       1.903   8.216  20.731  0.00  0.00    +0.000 NA
ATOM     21  N   UNL     1       1.468   8.632  21.950  0.00  0.00    +0.000 N 
ATOM     22  C   UNL     1       0.534   9.610  22.184  0.00  0.00    +0.000 A 
ATOM     23  O   UNL     1       0.212   9.951  23.317  0.00  0.00    +0.000 OA
ATOM     24  C   UNL     1      -0.063  10.235  20.991  0.00  0.00    +0.000 A 
ATOM     25  C   UNL     1      -1.014  11.251  21.143  0.00  0.00    +0.000 A 
ATOM     26  C   UNL     1      -1.568  11.857  20.017  0.00  0.00    +0.000 A 
ATOM     27  C   UNL     1      -1.180  11.437  18.746  0.00  0.00    +0.000 A 
ATOM     28  C   UNL     1      -0.239  10.412  18.596  0.00  0.00    +0.000 A 
ATOM     29  C   UNL     1       0.337   9.810  19.724  0.00  0.00    +0.000 A 
ATOM     30  H   UNL     1       1.902   8.201  22.761  0.00  0.00    +0.000 HD
ENDBRANCH  17  19
ENDBRANCH  16  17
ENDBRANCH   5  16
TORSDOF 4
ENDMDL
MODEL 8
REMARK VINA RESULT:      -7.7      3.479      8.422
REMARK  Name = 
REMARK  5 active torsions:
REMARK  status: ('A' for Active; 'I' for Inactive)
REMARK    1  A    between atoms: C_1  and  C_2
REMARK    2  A    between atoms: C_8  and  N_9
REMARK    3  A    between atoms: C_13  and  O_14
REMARK    4  A    between atoms: O_14  and  C_15
REMARK    5  A    between atoms: C_15  and  C_17
REMARK                            x       y       z     vdW  Elec       q    Type
REMARK                         _______ _______ _______ _____ _____    ______ ____
ROOT
ATOM      1  N   UNL     1       2.125   6.205  19.631  0.00  0.00    +0.000 N 
ATOM      2  C   UNL     1       1.569   6.218  20.989  0.00  0.00    +0.000 C 
ATOM      3  C   UNL     1       0.789   7.483  21.311  0.00  0.00    +0.000 C 
ATOM      4  C   UNL     1       1.647   8.687  20.972  0.00  0.00    +0.000 C 
ATOM      5  C   UNL     1       1.982   8.704  19.491  0.00  0.00    +0.000 C 
ATOM      6  C   UNL     1       2.317   7.348  18.864  0.00  0.00    +0.000 C 
ATOM      7  O   UNL     1       2.663   7.322  17.679  0.00  0.00    +0.000 OA
ENDROOT
BRANCH   1  15
ATOM      8  C   UNL     1       5.026   5.430  19.435  0.00  0.00    +0.000 C 
ATOM      9  C   UNL     1       3.883   4.570  18.965  0.00  0.00    +0.000 A 
ATOM     10  C   UNL     1       4.189   3.332  18.373  0.00  0.00    +0.000 A 
ATOM     11  C   UNL     1       3.174   2.483  17.948  0.00  0.00    +0.000 A 
ATOM     12  F   UNL     1       3.490   1.313  17.376  0.00  0.00    +0.000 F 
ATOM     13  C   UNL     1       1.841   2.828  18.105  0.00  0.00    +0.000 A 
ATOM     14  C   UNL     1       1.517   4.049  18.694  0.00  0.00    +0.000 A 
ATOM     15  C   UNL     1       2.525   4.937  19.111  0.00  0.00    +0.000 A 
ENDBRANCH   1  15
BRANCH   5  16
ATOM     16  O   UNL     1       0.850   9.197  18.760  0.00  0.00    +0.000 OA
BRANCH  16  17
ATOM     17  C   UNL     1       0.811  10.531  18.560  0.00  0.00    +0.000 C 
ATOM     18  O   UNL     1       1.733  11.235  18.184  0.00  0.00    +0.000 OA
BRANCH  17  19
ATOM     19  C   UNL     1      -0.543  11.105  18.973  0.00  0.00    +0.000 A 
ATOM     20  N   UNL     1      -0.569  11.795  20.079  0.00  0.00    +0.000 NA
ATOM     21  N   UNL     1      -1.743  12.361  20.466  0.00  0.00    +0.000 N 
ATOM     22  C   UNL     1      -2.929  12.308  19.779  0.00  0.00    +0.000 A 
ATOM     23  O   UNL     1      -3.943  12.870  20.179  0.00  0.00    +0.000 OA
ATOM     24  C   UNL     1      -2.919  11.538  18.524  0.00  0.00    +0.000 A 
ATOM     25  C   UNL     1      -4.087  11.446  17.756  0.00  0.00    +0.000 A 
ATOM     26  C   UNL     1      -4.075  10.732  16.559  0.00  0.00    +0.000 A 
ATOM     27  C   UNL     1      -2.904  10.102  16.142  0.00  0.00    +0.000 A 
ATOM     28  C   UNL     1      -1.742  10.184  16.917  0.00  0.00    +0.000 A 
ATOM     29  C   UNL     1      -1.739  10.916  18.113  0.00  0.00    +0.000 A 
ATOM     30  H   UNL     1      -1.728  12.902  21.326  0.00  0.00    +0.000 HD
ENDBRANCH  17  19
ENDBRANCH  16  17
ENDBRANCH   5  16
TORSDOF 4
ENDMDL
MODEL 9
REMARK VINA RESULT:      -7.6      2.663      4.143
REMARK  Name = 
REMARK  5 active torsions:
REMARK  status: ('A' for Active; 'I' for Inactive)
REMARK    1  A    between atoms: C_1  and  C_2
REMARK    2  A    between atoms: C_8  and  N_9
REMARK    3  A    between atoms: C_13  and  O_14
REMARK    4  A    between atoms: O_14  and  C_15
REMARK    5  A    between atoms: C_15  and  C_17
REMARK                            x       y       z     vdW  Elec       q    Type
REMARK                         _______ _______ _______ _____ _____    ______ ____
ROOT
ATOM      1  N   UNL     1      -1.404  11.636  18.841  0.00  0.00    +0.000 N 
ATOM      2  C   UNL     1      -0.612  12.804  18.439  0.00  0.00    +0.000 C 
ATOM      3  C   UNL     1       0.888  12.561  18.476  0.00  0.00    +0.000 C 
ATOM      4  C   UNL     1       1.258  11.988  19.831  0.00  0.00    +0.000 C 
ATOM      5  C   UNL     1       0.559  10.659  20.057  0.00  0.00    +0.000 C 
ATOM      6  C   UNL     1      -0.894  10.577  19.584  0.00  0.00    +0.000 C 
ATOM      7  O   UNL     1      -1.525   9.539  19.809  0.00  0.00    +0.000 OA
ENDROOT
BRANCH   1  15
ATOM      8  C   UNL     1      -2.341  10.421  16.253  0.00  0.00    +0.000 C 
ATOM      9  C   UNL     1      -3.241  11.112  17.242  0.00  0.00    +0.000 A 
ATOM     10  C   UNL     1      -4.607  11.221  16.928  0.00  0.00    +0.000 A 
ATOM     11  C   UNL     1      -5.491  11.822  17.817  0.00  0.00    +0.000 A 
ATOM     12  F   UNL     1      -6.786  11.924  17.491  0.00  0.00    +0.000 F 
ATOM     13  C   UNL     1      -5.052  12.318  19.034  0.00  0.00    +0.000 A 
ATOM     14  C   UNL     1      -3.702  12.216  19.367  0.00  0.00    +0.000 A 
ATOM     15  C   UNL     1      -2.783  11.635  18.474  0.00  0.00    +0.000 A 
ENDBRANCH   1  15
BRANCH   5  16
ATOM     16  O   UNL     1       1.258   9.633  19.336  0.00  0.00    +0.000 OA
BRANCH  16  17
ATOM     17  C   UNL     1       1.619   8.549  20.053  0.00  0.00    +0.000 C 
ATOM     18  O   UNL     1       1.480   8.394  21.255  0.00  0.00    +0.000 OA
BRANCH  17  19
ATOM     19  C   UNL     1       2.347   7.533  19.175  0.00  0.00    +0.000 A 
ATOM     20  N   UNL     1       2.966   8.007  18.129  0.00  0.00    +0.000 NA
ATOM     21  N   UNL     1       3.662   7.147  17.340  0.00  0.00    +0.000 N 
ATOM     22  C   UNL     1       3.815   5.800  17.552  0.00  0.00    +0.000 A 
ATOM     23  O   UNL     1       4.486   5.091  16.809  0.00  0.00    +0.000 OA
ATOM     24  C   UNL     1       3.129   5.246  18.732  0.00  0.00    +0.000 A 
ATOM     25  C   UNL     1       3.245   3.883  19.027  0.00  0.00    +0.000 A 
ATOM     26  C   UNL     1       2.611   3.360  20.152  0.00  0.00    +0.000 A 
ATOM     27  C   UNL     1       1.853   4.197  20.969  0.00  0.00    +0.000 A 
ATOM     28  C   UNL     1       1.727   5.557  20.666  0.00  0.00    +0.000 A 
ATOM     29  C   UNL     1       2.377   6.096  19.546  0.00  0.00    +0.000 A 
ATOM     30  H   UNL     1       4.143   7.548  16.540  0.00  0.00    +0.000 HD
ENDBRANCH  17  19
ENDBRANCH  16  17
ENDBRANCH   5  16
TORSDOF 4
ENDMDL
