MODEL 1
REMARK VINA RESULT:      -9.1      0.000      0.000
REMARK  Name = 
REMARK  7 active torsions:
REMARK  status: ('A' for Active; 'I' for Inactive)
REMARK    1  A    between atoms: C_1  and  C_2
REMARK    2  A    between atoms: C_6  and  C_7
REMARK    3  A    between atoms: N_9  and  C_10
REMARK    4  A    between atoms: C_10  and  C_11
REMARK    5  A    between atoms: C_11  and  C_12
REMARK    6  A    between atoms: N_20  and  C_21
REMARK    7  A    between atoms: C_21  and  C_22
REMARK                            x       y       z     vdW  Elec       q    Type
REMARK                         _______ _______ _______ _____ _____    ______ ____
ROOT
ATOM      1  C   UNL     1       3.281   7.045  17.962  0.00  0.00    +0.000 A 
ATOM      2  N   UNL     1       4.500   7.438  17.643  0.00  0.00    +0.000 NA
ATOM      3  C   UNL     1       5.118   6.350  17.086  0.00  0.00    +0.000 A 
ATOM      4  C   UNL     1       6.438   6.212  16.631  0.00  0.00    +0.000 A 
ATOM      5  C   UNL     1       6.842   4.984  16.096  0.00  0.00    +0.000 A 
ATOM      6  C   UNL     1       5.944   3.921  15.995  0.00  0.00    +0.000 A 
ATOM      7  C   UNL     1       4.622   4.042  16.442  0.00  0.00    +0.000 A 
ATOM      8  C   UNL     1       4.247   5.271  17.002  0.00  0.00    +0.000 A 
ATOM      9  N   UNL     1       3.082   5.731  17.582  0.00  0.00    +0.000 N 
ENDROOT
BRANCH   1  10
ATOM     10  C   UNL     1       2.249   7.892  18.649  0.00  0.00    +0.000 C 
BRANCH  10  11
ATOM     11  C   UNL     1       2.107   9.271  17.991  0.00  0.00    +0.000 C 
BRANCH  11  14
ATOM     12  C   UNL     1       0.006  10.486  18.457  0.00  0.00    +0.000 C 
ATOM     13  O   UNL     1       0.471  11.010  19.465  0.00  0.00    +0.000 OA
ATOM     14  N   UNL     1       0.722   9.604  17.674  0.00  0.00    +0.000 N 
ATOM     15  H   UNL     1       0.264   9.091  16.936  0.00  0.00    +0.000 HD
BRANCH  12  21
ATOM     16  C   UNL     1      -3.572  10.046  15.020  0.00  0.00    +0.000 C 
ATOM     17  C   UNL     1      -3.148  10.529  16.376  0.00  0.00    +0.000 A 
ATOM     18  C   UNL     1      -4.044  11.183  17.228  0.00  0.00    +0.000 A 
ATOM     19  C   UNL     1      -3.632  11.613  18.490  0.00  0.00    +0.000 A 
ATOM     20  C   UNL     1      -2.316  11.401  18.916  0.00  0.00    +0.000 A 
ATOM     21  C   UNL     1      -1.406  10.760  18.068  0.00  0.00    +0.000 A 
ATOM     22  C   UNL     1      -1.832  10.315  16.808  0.00  0.00    +0.000 A 
ENDBRANCH  12  21
ENDBRANCH  11  14
ENDBRANCH  10  11
ENDBRANCH   1  10
BRANCH   9  23
ATOM     23  C   UNL     1       1.901   4.918  17.841  0.00  0.00    +0.000 C 
BRANCH  23  24
ATOM     24  C   UNL     1       1.932   4.146  19.138  0.00  0.00    +0.000 A 
ATOM     25  C   UNL     1       1.973   4.727  20.413  0.00  0.00    +0.000 A 
ATOM     26  C   UNL     1       2.048   3.924  21.558  0.00  0.00    +0.000 A 
ATOM     27  C   UNL     1       2.071   2.535  21.446  0.00  0.00    +0.000 A 
ATOM     28  C   UNL     1       2.003   1.943  20.188  0.00  0.00    +0.000 A 
ATOM     29  C   UNL     1       1.933   2.747  19.054  0.00  0.00    +0.000 A 
ATOM     30  F   UNL     1       1.873   2.159  17.851  0.00  0.00    +0.000 F 
ENDBRANCH  23  24
ENDBRANCH   9  23
TORSDOF 6
ENDMDL
MODEL 2
REMARK VINA RESULT:      -9.1      3.173      8.066
REMARK  Name = 
REMARK  7 active torsions:
REMARK  status: ('A' for Active; 'I' for Inactive)
REMARK    1  A    between atoms: C_1  and  C_2
REMARK    2  A    between atoms: C_6  and  C_7
REMARK    3  A    between atoms: N_9  and  C_10
REMARK    4  A    between atoms: C_10  and  C_11
REMARK    5  A    between atoms: C_11  and  C_12
REMARK    6  A    between atoms: N_20  and  C_21
REMARK    7  A    between atoms: C_21  and  C_22
REMARK                            x       y       z     vdW  Elec       q    Type
REMARK                         _______ _______ _______ _____ _____    ______ ____
ROOT
ATOM      1  C   UNL     1       3.425   6.064  18.002  0.00  0.00    +0.000 A 
ATOM      2  N   UNL     1       3.308   4.884  17.421  0.00  0.00    +0.000 NA
ATOM      3  C   UNL     1       2.461   4.152  18.211  0.00  0.00    +0.000 A 
ATOM      4  C   UNL     1       2.050   2.817  18.078  0.00  0.00    +0.000 A 
ATOM      5  C   UNL     1       1.170   2.284  19.025  0.00  0.00    +0.000 A 
ATOM      6  C   UNL     1       0.690   3.071  20.073  0.00  0.00    +0.000 A 
ATOM      7  C   UNL     1       1.087   4.406  20.221  0.00  0.00    +0.000 A 
ATOM      8  C   UNL     1       1.994   4.910  19.277  0.00  0.00    +0.000 A 
ATOM      9  N   UNL     1       2.634   6.125  19.134  0.00  0.00    +0.000 N 
ENDROOT
BRANCH   1  10
ATOM     10  C   UNL     1       4.296   7.185  17.517  0.00  0.00    +0.000 C 
BRANCH  10  11
ATOM     11  C   UNL     1       5.752   6.743  17.329  0.00  0.00    +0.000 C 
BRANCH  11  14
ATOM     12  C   UNL     1       6.449   5.063  15.656  0.00  0.00    +0.000 C 
ATOM     13  O   UNL     1       6.603   4.197  16.512  0.00  0.00    +0.000 OA
ATOM     14  N   UNL     1       6.050   6.349  15.956  0.00  0.00    +0.000 N 
ATOM     15  H   UNL     1       6.068   7.066  15.246  0.00  0.00    +0.000 HD
BRANCH  12  21
ATOM     16  C   UNL     1       5.370   2.331  11.632  0.00  0.00    +0.000 C 
ATOM     17  C   UNL     1       6.199   3.409  12.266  0.00  0.00    +0.000 A 
ATOM     18  C   UNL     1       7.182   4.091  11.543  0.00  0.00    +0.000 A 
ATOM     19  C   UNL     1       7.933   5.099  12.148  0.00  0.00    +0.000 A 
ATOM     20  C   UNL     1       7.717   5.435  13.489  0.00  0.00    +0.000 A 
ATOM     21  C   UNL     1       6.745   4.751  14.229  0.00  0.00    +0.000 A 
ATOM     22  C   UNL     1       5.982   3.751  13.608  0.00  0.00    +0.000 A 
ENDBRANCH  12  21
ENDBRANCH  11  14
ENDBRANCH  10  11
ENDBRANCH   1  10
BRANCH   9  23
ATOM     23  C   UNL     1       2.561   7.224  20.088  0.00  0.00    +0.000 C 
BRANCH  23  24
ATOM     24  C   UNL     1       1.563   8.301  19.744  0.00  0.00    +0.000 A 
ATOM     25  C   UNL     1       1.450   8.915  18.489  0.00  0.00    +0.000 A 
ATOM     26  C   UNL     1       0.520   9.942  18.281  0.00  0.00    +0.000 A 
ATOM     27  C   UNL     1      -0.314  10.360  19.316  0.00  0.00    +0.000 A 
ATOM     28  C   UNL     1      -0.233   9.741  20.560  0.00  0.00    +0.000 A 
ATOM     29  C   UNL     1       0.697   8.724  20.761  0.00  0.00    +0.000 A 
ATOM     30  F   UNL     1       0.763   8.144  21.967  0.00  0.00    +0.000 F 
ENDBRANCH  23  24
ENDBRANCH   9  23
TORSDOF 6
ENDMDL
MODEL 3
REMARK VINA RESULT:      -9.1      3.171      8.500
REMARK  Name = 
REMARK  7 active torsions:
REMARK  status: ('A' for Active; 'I' for Inactive)
REMARK    1  A    between atoms: C_1  and  C_2
REMARK    2  A    between atoms: C_6  and  C_7
REMARK    3  A    between atoms: N_9  and  C_10
REMARK    4  A    between atoms: C_10  and  C_11
REMARK    5  A    between atoms: C_11  and  C_12
REMARK    6  A    between atoms: N_20  and  C_21
REMARK    7  A    between atoms: C_21  and  C_22
REMARK                            x       y       z     vdW  Elec       q    Type
REMARK                         _______ _______ _______ _____ _____    ______ ____
ROOT
ATOM      1  C   UNL     1       1.183   9.543  19.175  0.00  0.00    +0.000 A 
ATOM      2  N   UNL     1       1.526   8.832  20.233  0.00  0.00    +0.000 NA
ATOM      3  C   UNL     1       0.788   9.322  21.279  0.00  0.00    +0.000 A 
ATOM      4  C   UNL     1       0.814   8.959  22.633  0.00  0.00    +0.000 A 
ATOM      5  C   UNL     1      -0.044   9.615  23.523  0.00  0.00    +0.000 A 
ATOM      6  C   UNL     1      -0.924  10.598  23.070  0.00  0.00    +0.000 A 
ATOM      7  C   UNL     1      -0.964  10.972  21.721  0.00  0.00    +0.000 A 
ATOM      8  C   UNL     1      -0.076  10.323  20.852  0.00  0.00    +0.000 A 
ATOM      9  N   UNL     1       0.203  10.460  19.507  0.00  0.00    +0.000 N 
ENDROOT
BRANCH   1  10
ATOM     10  C   UNL     1       1.772   9.394  17.803  0.00  0.00    +0.000 C 
BRANCH  10  11
ATOM     11  C   UNL     1       2.843   8.297  17.753  0.00  0.00    +0.000 C 
BRANCH  11  14
ATOM     12  C   UNL     1       3.076   6.006  18.649  0.00  0.00    +0.000 C 
ATOM     13  O   UNL     1       4.247   6.192  18.966  0.00  0.00    +0.000 OA
ATOM     14  N   UNL     1       2.305   6.970  18.033  0.00  0.00    +0.000 N 
ATOM     15  H   UNL     1       1.395   6.735  17.664  0.00  0.00    +0.000 HD
BRANCH  12  21
ATOM     16  C   UNL     1       1.578   2.582  21.943  0.00  0.00    +0.000 C 
ATOM     17  C   UNL     1       1.718   3.011  20.512  0.00  0.00    +0.000 A 
ATOM     18  C   UNL     1       1.265   2.204  19.464  0.00  0.00    +0.000 A 
ATOM     19  C   UNL     1       1.393   2.627  18.140  0.00  0.00    +0.000 A 
ATOM     20  C   UNL     1       1.982   3.861  17.845  0.00  0.00    +0.000 A 
ATOM     21  C   UNL     1       2.451   4.673  18.884  0.00  0.00    +0.000 A 
ATOM     22  C   UNL     1       2.303   4.248  20.213  0.00  0.00    +0.000 A 
ENDBRANCH  12  21
ENDBRANCH  11  14
ENDBRANCH  10  11
ENDBRANCH   1  10
BRANCH   9  23
ATOM     23  C   UNL     1      -0.367  11.480  18.636  0.00  0.00    +0.000 C 
BRANCH  23  24
ATOM     24  C   UNL     1      -1.690  11.114  18.009  0.00  0.00    +0.000 A 
ATOM     25  C   UNL     1      -1.854  10.181  16.976  0.00  0.00    +0.000 A 
ATOM     26  C   UNL     1      -3.121   9.945  16.426  0.00  0.00    +0.000 A 
ATOM     27  C   UNL     1      -4.237  10.626  16.907  0.00  0.00    +0.000 A 
ATOM     28  C   UNL     1      -4.094  11.535  17.950  0.00  0.00    +0.000 A 
ATOM     29  C   UNL     1      -2.832  11.769  18.489  0.00  0.00    +0.000 A 
ATOM     30  F   UNL     1      -2.714  12.651  19.491  0.00  0.00    +0.000 F 
ENDBRANCH  23  24
ENDBRANCH   9  23
TORSDOF 6
ENDMDL
MODEL 4
REMARK VINA RESULT:      -9.1      2.841      5.232
REMARK  Name = 
REMARK  7 active torsions:
REMARK  status: ('A' for Active; 'I' for Inactive)
REMARK    1  A    between atoms: C_1  and  C_2
REMARK    2  A    between atoms: C_6  and  C_7
REMARK    3  A    between atoms: N_9  and  C_10
REMARK    4  A    between atoms: C_10  and  C_11
REMARK    5  A    between atoms: C_11  and  C_12
REMARK    6  A    between atoms: N_20  and  C_21
REMARK    7  A    between atoms: C_21  and  C_22
REMARK                            x       y       z     vdW  Elec       q    Type
REMARK                         _______ _______ _______ _____ _____    ______ ____
ROOT
ATOM      1  C   UNL     1       3.077   6.244  18.657  0.00  0.00    +0.000 A 
ATOM      2  N   UNL     1       1.848   5.958  19.043  0.00  0.00    +0.000 NA
ATOM      3  C   UNL     1       1.937   4.802  19.773  0.00  0.00    +0.000 A 
ATOM      4  C   UNL     1       0.916   4.040  20.361  0.00  0.00    +0.000 A 
ATOM      5  C   UNL     1       1.259   2.880  21.064  0.00  0.00    +0.000 A 
ATOM      6  C   UNL     1       2.595   2.498  21.197  0.00  0.00    +0.000 A 
ATOM      7  C   UNL     1       3.627   3.247  20.619  0.00  0.00    +0.000 A 
ATOM      8  C   UNL     1       3.258   4.389  19.893  0.00  0.00    +0.000 A 
ATOM      9  N   UNL     1       3.970   5.316  19.160  0.00  0.00    +0.000 N 
ENDROOT
BRANCH   1  10
ATOM     10  C   UNL     1       3.465   7.405  17.788  0.00  0.00    +0.000 C 
BRANCH  10  11
ATOM     11  C   UNL     1       2.381   8.490  17.761  0.00  0.00    +0.000 C 
BRANCH  11  14
ATOM     12  C   UNL     1       0.870   9.733  19.270  0.00  0.00    +0.000 C 
ATOM     13  O   UNL     1       0.576  10.543  18.395  0.00  0.00    +0.000 OA
ATOM     14  N   UNL     1       1.759   8.699  19.064  0.00  0.00    +0.000 N 
ATOM     15  H   UNL     1       2.078   8.140  19.841  0.00  0.00    +0.000 HD
BRANCH  12  21
ATOM     16  C   UNL     1      -1.073  12.765  22.713  0.00  0.00    +0.000 C 
ATOM     17  C   UNL     1      -0.663  11.380  22.308  0.00  0.00    +0.000 A 
ATOM     18  C   UNL     1      -0.836  10.289  23.166  0.00  0.00    +0.000 A 
ATOM     19  C   UNL     1      -0.460   9.007  22.764  0.00  0.00    +0.000 A 
ATOM     20  C   UNL     1       0.101   8.797  21.500  0.00  0.00    +0.000 A 
ATOM     21  C   UNL     1       0.292   9.881  20.636  0.00  0.00    +0.000 A 
ATOM     22  C   UNL     1      -0.105  11.164  21.041  0.00  0.00    +0.000 A 
ENDBRANCH  12  21
ENDBRANCH  11  14
ENDBRANCH  10  11
ENDBRANCH   1  10
BRANCH   9  23
ATOM     23  C   UNL     1       5.399   5.242  18.883  0.00  0.00    +0.000 C 
BRANCH  23  24
ATOM     24  C   UNL     1       5.753   4.911  17.454  0.00  0.00    +0.000 A 
ATOM     25  C   UNL     1       5.036   4.027  16.636  0.00  0.00    +0.000 A 
ATOM     26  C   UNL     1       5.474   3.748  15.335  0.00  0.00    +0.000 A 
ATOM     27  C   UNL     1       6.623   4.355  14.832  0.00  0.00    +0.000 A 
ATOM     28  C   UNL     1       7.331   5.255  15.622  0.00  0.00    +0.000 A 
ATOM     29  C   UNL     1       6.892   5.524  16.916  0.00  0.00    +0.000 A 
ATOM     30  F   UNL     1       7.590   6.392  17.663  0.00  0.00    +0.000 F 
ENDBRANCH  23  24
ENDBRANCH   9  23
TORSDOF 6
ENDMDL
MODEL 5
REMARK VINA RESULT:      -9.0      1.776      4.182
REMARK  Name = 
REMARK  7 active torsions:
REMARK  status: ('A' for Active; 'I' for Inactive)
REMARK    1  A    between atoms: C_1  and  C_2
REMARK    2  A    between atoms: C_6  and  C_7
REMARK    3  A    between atoms: N_9  and  C_10
REMARK    4  A    between atoms: C_10  and  C_11
REMARK    5  A    between atoms: C_11  and  C_12
REMARK    6  A    between atoms: N_20  and  C_21
REMARK    7  A    between atoms: C_21  and  C_22
REMARK                            x       y       z     vdW  Elec       q    Type
REMARK                         _______ _______ _______ _____ _____    ______ ____
ROOT
ATOM      1  C   UNL     1       2.474   6.535  18.573  0.00  0.00    +0.000 A 
ATOM      2  N   UNL     1       1.573   6.276  19.502  0.00  0.00    +0.000 NA
ATOM      3  C   UNL     1       1.797   4.985  19.902  0.00  0.00    +0.000 A 
ATOM      4  C   UNL     1       1.085   4.202  20.823  0.00  0.00    +0.000 A 
ATOM      5  C   UNL     1       1.511   2.891  21.065  0.00  0.00    +0.000 A 
ATOM      6  C   UNL     1       2.636   2.378  20.420  0.00  0.00    +0.000 A 
ATOM      7  C   UNL     1       3.360   3.145  19.499  0.00  0.00    +0.000 A 
ATOM      8  C   UNL     1       2.899   4.445  19.249  0.00  0.00    +0.000 A 
ATOM      9  N   UNL     1       3.308   5.447  18.392  0.00  0.00    +0.000 N 
ENDROOT
BRANCH   1  10
ATOM     10  C   UNL     1       2.584   7.821  17.807  0.00  0.00    +0.000 C 
BRANCH  10  11
ATOM     11  C   UNL     1       1.951   8.996  18.563  0.00  0.00    +0.000 C 
BRANCH  11  14
ATOM     12  C   UNL     1      -0.291  10.020  18.735  0.00  0.00    +0.000 C 
ATOM     13  O   UNL     1      -0.189  10.167  19.950  0.00  0.00    +0.000 OA
ATOM     14  N   UNL     1       0.696   9.441  17.966  0.00  0.00    +0.000 N 
ATOM     15  H   UNL     1       0.520   9.213  16.998  0.00  0.00    +0.000 HD
BRANCH  12  21
ATOM     16  C   UNL     1      -3.036   9.925  14.580  0.00  0.00    +0.000 C 
ATOM     17  C   UNL     1      -2.880  10.370  16.004  0.00  0.00    +0.000 A 
ATOM     18  C   UNL     1      -3.874  11.116  16.646  0.00  0.00    +0.000 A 
ATOM     19  C   UNL     1      -3.714  11.508  17.975  0.00  0.00    +0.000 A 
ATOM     20  C   UNL     1      -2.555  11.167  18.681  0.00  0.00    +0.000 A 
ATOM     21  C   UNL     1      -1.546  10.433  18.046  0.00  0.00    +0.000 A 
ATOM     22  C   UNL     1      -1.722  10.027  16.714  0.00  0.00    +0.000 A 
ENDBRANCH  12  21
ENDBRANCH  11  14
ENDBRANCH  10  11
ENDBRANCH   1  10
BRANCH   9  23
ATOM     23  C   UNL     1       4.365   5.315  17.398  0.00  0.00    +0.000 C 
BRANCH  23  24
ATOM     24  C   UNL     1       5.718   5.817  17.836  0.00  0.00    +0.000 A 
ATOM     25  C   UNL     1       6.452   5.301  18.913  0.00  0.00    +0.000 A 
ATOM     26  C   UNL     1       7.681   5.868  19.272  0.00  0.00    +0.000 A 
ATOM     27  C   UNL     1       8.197   6.947  18.556  0.00  0.00    +0.000 A 
ATOM     28  C   UNL     1       7.493   7.453  17.468  0.00  0.00    +0.000 A 
ATOM     29  C   UNL     1       6.270   6.887  17.119  0.00  0.00    +0.000 A 
ATOM     30  F   UNL     1       5.605   7.391  16.070  0.00  0.00    +0.000 F 
ENDBRANCH  23  24
ENDBRANCH   9  23
TORSDOF 6
ENDMDL
MODEL 6
REMARK VINA RESULT:      -9.0      2.770      5.086
REMARK  Name = 
REMARK  7 active torsions:
REMARK  status: ('A' for Active; 'I' for Inactive)
REMARK    1  A    between atoms: C_1  and  C_2
REMARK    2  A    between atoms: C_6  and  C_7
REMARK    3  A    between atoms: N_9  and  C_10
REMARK    4  A    between atoms: C_10  and  C_11
REMARK    5  A    between atoms: C_11  and  C_12
REMARK    6  A    between atoms: N_20  and  C_21
REMARK    7  A    between atoms: C_21  and  C_22
REMARK                            x       y       z     vdW  Elec       q    Type
REMARK                         _______ _______ _______ _____ _____    ______ ____
ROOT
ATOM      1  C   UNL     1       2.399   5.780  18.553  0.00  0.00    +0.000 A 
ATOM      2  N   UNL     1       1.609   5.497  19.571  0.00  0.00    +0.000 NA
ATOM      3  C   UNL     1       2.129   4.373  20.157  0.00  0.00    +0.000 A 
ATOM      4  C   UNL     1       1.639   3.625  21.239  0.00  0.00    +0.000 A 
ATOM      5  C   UNL     1       2.355   2.499  21.659  0.00  0.00    +0.000 A 
ATOM      6  C   UNL     1       3.546   2.137  21.030  0.00  0.00    +0.000 A 
ATOM      7  C   UNL     1       4.051   2.873  19.951  0.00  0.00    +0.000 A 
ATOM      8  C   UNL     1       3.302   3.979  19.526  0.00  0.00    +0.000 A 
ATOM      9  N   UNL     1       3.450   4.883  18.493  0.00  0.00    +0.000 N 
ENDROOT
BRANCH   1  10
ATOM     10  C   UNL     1       2.195   6.907  17.584  0.00  0.00    +0.000 C 
BRANCH  10  11
ATOM     11  C   UNL     1       2.673   8.249  18.153  0.00  0.00    +0.000 C 
BRANCH  11  14
ATOM     12  C   UNL     1       0.936   9.502  19.386  0.00  0.00    +0.000 C 
ATOM     13  O   UNL     1       0.535  10.054  18.366  0.00  0.00    +0.000 OA
ATOM     14  N   UNL     1       1.991   8.612  19.391  0.00  0.00    +0.000 N 
ATOM     15  H   UNL     1       2.378   8.287  20.264  0.00  0.00    +0.000 HD
BRANCH  12  21
ATOM     16  C   UNL     1      -1.910  12.620  22.030  0.00  0.00    +0.000 C 
ATOM     17  C   UNL     1      -1.096  11.361  21.975  0.00  0.00    +0.000 A 
ATOM     18  C   UNL     1      -0.957  10.535  23.094  0.00  0.00    +0.000 A 
ATOM     19  C   UNL     1      -0.206   9.362  23.017  0.00  0.00    +0.000 A 
ATOM     20  C   UNL     1       0.425   9.001  21.822  0.00  0.00    +0.000 A 
ATOM     21  C   UNL     1       0.306   9.826  20.697  0.00  0.00    +0.000 A 
ATOM     22  C   UNL     1      -0.466  10.995  20.778  0.00  0.00    +0.000 A 
ENDBRANCH  12  21
ENDBRANCH  11  14
ENDBRANCH  10  11
ENDBRANCH   1  10
BRANCH   9  23
ATOM     23  C   UNL     1       4.478   4.812  17.463  0.00  0.00    +0.000 C 
BRANCH  23  24
ATOM     24  C   UNL     1       5.748   5.564  17.779  0.00  0.00    +0.000 A 
ATOM     25  C   UNL     1       6.656   5.213  18.786  0.00  0.00    +0.000 A 
ATOM     26  C   UNL     1       7.785   6.004  19.034  0.00  0.00    +0.000 A 
ATOM     27  C   UNL     1       8.027   7.147  18.273  0.00  0.00    +0.000 A 
ATOM     28  C   UNL     1       7.149   7.494  17.251  0.00  0.00    +0.000 A 
ATOM     29  C   UNL     1       6.026   6.705  17.014  0.00  0.00    +0.000 A 
ATOM     30  F   UNL     1       5.189   7.058  16.028  0.00  0.00    +0.000 F 
ENDBRANCH  23  24
ENDBRANCH   9  23
TORSDOF 6
ENDMDL
MODEL 7
REMARK VINA RESULT:      -9.0      0.919      1.135
REMARK  Name = 
REMARK  7 active torsions:
REMARK  status: ('A' for Active; 'I' for Inactive)
REMARK    1  A    between atoms: C_1  and  C_2
REMARK    2  A    between atoms: C_6  and  C_7
REMARK    3  A    between atoms: N_9  and  C_10
REMARK    4  A    between atoms: C_10  and  C_11
REMARK    5  A    between atoms: C_11  and  C_12
REMARK    6  A    between atoms: N_20  and  C_21
REMARK    7  A    between atoms: C_21  and  C_22
REMARK                            x       y       z     vdW  Elec       q    Type
REMARK                         _______ _______ _______ _____ _____    ______ ____
ROOT
ATOM      1  C   UNL     1       3.218   6.851  17.864  0.00  0.00    +0.000 A 
ATOM      2  N   UNL     1       4.353   7.357  17.418  0.00  0.00    +0.000 NA
ATOM      3  C   UNL     1       5.042   6.314  16.859  0.00  0.00    +0.000 A 
ATOM      4  C   UNL     1       6.326   6.297  16.294  0.00  0.00    +0.000 A 
ATOM      5  C   UNL     1       6.822   5.092  15.783  0.00  0.00    +0.000 A 
ATOM      6  C   UNL     1       6.046   3.933  15.812  0.00  0.00    +0.000 A 
ATOM      7  C   UNL     1       4.762   3.932  16.370  0.00  0.00    +0.000 A 
ATOM      8  C   UNL     1       4.297   5.143  16.904  0.00  0.00    +0.000 A 
ATOM      9  N   UNL     1       3.140   5.504  17.565  0.00  0.00    +0.000 N 
ENDROOT
BRANCH   1  10
ATOM     10  C   UNL     1       2.158   7.617  18.600  0.00  0.00    +0.000 C 
BRANCH  10  11
ATOM     11  C   UNL     1       2.142   9.100  18.208  0.00  0.00    +0.000 C 
BRANCH  11  14
ATOM     12  C   UNL     1      -0.083  10.077  18.653  0.00  0.00    +0.000 C 
ATOM     13  O   UNL     1       0.138  10.167  19.858  0.00  0.00    +0.000 OA
ATOM     14  N   UNL     1       0.829   9.552  17.762  0.00  0.00    +0.000 N 
ATOM     15  H   UNL     1       0.559   9.368  16.806  0.00  0.00    +0.000 HD
BRANCH  12  21
ATOM     16  C   UNL     1      -3.333   9.927  14.880  0.00  0.00    +0.000 C 
ATOM     17  C   UNL     1      -2.988  10.411  16.258  0.00  0.00    +0.000 A 
ATOM     18  C   UNL     1      -3.875  11.203  16.993  0.00  0.00    +0.000 A 
ATOM     19  C   UNL     1      -3.540  11.632  18.278  0.00  0.00    +0.000 A 
ATOM     20  C   UNL     1      -2.309  11.282  18.844  0.00  0.00    +0.000 A 
ATOM     21  C   UNL     1      -1.406  10.501  18.113  0.00  0.00    +0.000 A 
ATOM     22  C   UNL     1      -1.758  10.059  16.829  0.00  0.00    +0.000 A 
ENDBRANCH  12  21
ENDBRANCH  11  14
ENDBRANCH  10  11
ENDBRANCH   1  10
BRANCH   9  23
ATOM     23  C   UNL     1       2.086   4.581  17.967  0.00  0.00    +0.000 C 
BRANCH  23  24
ATOM     24  C   UNL     1       2.352   3.832  19.249  0.00  0.00    +0.000 A 
ATOM     25  C   UNL     1       3.423   2.952  19.454  0.00  0.00    +0.000 A 
ATOM     26  C   UNL     1       3.558   2.265  20.667  0.00  0.00    +0.000 A 
ATOM     27  C   UNL     1       2.634   2.456  21.693  0.00  0.00    +0.000 A 
ATOM     28  C   UNL     1       1.580   3.347  21.515  0.00  0.00    +0.000 A 
ATOM     29  C   UNL     1       1.450   4.023  20.305  0.00  0.00    +0.000 A 
ATOM     30  F   UNL     1       0.426   4.874  20.151  0.00  0.00    +0.000 F 
ENDBRANCH  23  24
ENDBRANCH   9  23
TORSDOF 6
ENDMDL
MODEL 8
REMARK VINA RESULT:      -8.9      2.427      4.869
REMARK  Name = 
REMARK  7 active torsions:
REMARK  status: ('A' for Active; 'I' for Inactive)
REMARK    1  A    between atoms: C_1  and  C_2
REMARK    2  A    between atoms: C_6  and  C_7
REMARK    3  A    between atoms: N_9  and  C_10
REMARK    4  A    between atoms: C_10  and  C_11
REMARK    5  A    between atoms: C_11  and  C_12
REMARK    6  A    between atoms: N_20  and  C_21
REMARK    7  A    between atoms: C_21  and  C_22
REMARK                            x       y       z     vdW  Elec       q    Type
REMARK                         _______ _______ _______ _____ _____    ______ ____
ROOT
ATOM      1  C   UNL     1       2.812   6.464  18.347  0.00  0.00    +0.000 A 
ATOM      2  N   UNL     1       1.802   6.067  19.100  0.00  0.00    +0.000 NA
ATOM      3  C   UNL     1       1.863   4.698  19.129  0.00  0.00    +0.000 A 
ATOM      4  C   UNL     1       0.992   3.782  19.738  0.00  0.00    +0.000 A 
ATOM      5  C   UNL     1       1.266   2.415  19.625  0.00  0.00    +0.000 A 
ATOM      6  C   UNL     1       2.396   1.969  18.939  0.00  0.00    +0.000 A 
ATOM      7  C   UNL     1       3.277   2.870  18.328  0.00  0.00    +0.000 A 
ATOM      8  C   UNL     1       2.968   4.233  18.427  0.00  0.00    +0.000 A 
ATOM      9  N   UNL     1       3.553   5.377  17.922  0.00  0.00    +0.000 N 
ENDROOT
BRANCH   1  10
ATOM     10  C   UNL     1       3.118   7.888  17.989  0.00  0.00    +0.000 C 
BRANCH  10  11
ATOM     11  C   UNL     1       1.846   8.736  17.865  0.00  0.00    +0.000 C 
BRANCH  11  14
ATOM     12  C   UNL     1       0.131   9.851  19.253  0.00  0.00    +0.000 C 
ATOM     13  O   UNL     1      -0.534  10.167  18.270  0.00  0.00    +0.000 OA
ATOM     14  N   UNL     1       1.323   9.162  19.159  0.00  0.00    +0.000 N 
ATOM     15  H   UNL     1       1.907   9.042  19.974  0.00  0.00    +0.000 HD
BRANCH  12  21
ATOM     16  C   UNL     1      -2.143  13.260  22.085  0.00  0.00    +0.000 C 
ATOM     17  C   UNL     1      -1.444  11.937  21.983  0.00  0.00    +0.000 A 
ATOM     18  C   UNL     1      -1.249  11.129  23.108  0.00  0.00    +0.000 A 
ATOM     19  C   UNL     1      -0.608   9.895  22.989  0.00  0.00    +0.000 A 
ATOM     20  C   UNL     1      -0.145   9.454  21.744  0.00  0.00    +0.000 A 
ATOM     21  C   UNL     1      -0.321  10.259  20.613  0.00  0.00    +0.000 A 
ATOM     22  C   UNL     1      -0.983  11.490  20.737  0.00  0.00    +0.000 A 
ENDBRANCH  12  21
ENDBRANCH  11  14
ENDBRANCH  10  11
ENDBRANCH   1  10
BRANCH   9  23
ATOM     23  C   UNL     1       4.686   5.400  17.006  0.00  0.00    +0.000 C 
BRANCH  23  24
ATOM     24  C   UNL     1       5.928   6.064  17.546  0.00  0.00    +0.000 A 
ATOM     25  C   UNL     1       6.486   7.247  17.042  0.00  0.00    +0.000 A 
ATOM     26  C   UNL     1       7.671   7.761  17.582  0.00  0.00    +0.000 A 
ATOM     27  C   UNL     1       8.307   7.109  18.638  0.00  0.00    +0.000 A 
ATOM     28  C   UNL     1       7.750   5.949  19.168  0.00  0.00    +0.000 A 
ATOM     29  C   UNL     1       6.574   5.441  18.622  0.00  0.00    +0.000 A 
ATOM     30  F   UNL     1       6.055   4.321  19.144  0.00  0.00    +0.000 F 
ENDBRANCH  23  24
ENDBRANCH   9  23
TORSDOF 6
ENDMDL
MODEL 9
REMARK VINA RESULT:      -8.9      1.565      3.980
REMARK  Name = 
REMARK  7 active torsions:
REMARK  status: ('A' for Active; 'I' for Inactive)
REMARK    1  A    between atoms: C_1  and  C_2
REMARK    2  A    between atoms: C_6  and  C_7
REMARK    3  A    between atoms: N_9  and  C_10
REMARK    4  A    between atoms: C_10  and  C_11
REMARK    5  A    between atoms: C_11  and  C_12
REMARK    6  A    between atoms: N_20  and  C_21
REMARK    7  A    between atoms: C_21  and  C_22
REMARK                            x       y       z     vdW  Elec       q    Type
REMARK                         _______ _______ _______ _____ _____    ______ ____
ROOT
ATOM      1  C   UNL     1       2.767   6.302  18.048  0.00  0.00    +0.000 A 
ATOM      2  N   UNL     1       1.766   5.811  18.755  0.00  0.00    +0.000 NA
ATOM      3  C   UNL     1       1.936   4.451  18.763  0.00  0.00    +0.000 A 
ATOM      4  C   UNL     1       1.120   3.456  19.322  0.00  0.00    +0.000 A 
ATOM      5  C   UNL     1       1.507   2.117  19.196  0.00  0.00    +0.000 A 
ATOM      6  C   UNL     1       2.695   1.778  18.546  0.00  0.00    +0.000 A 
ATOM      7  C   UNL     1       3.522   2.758  17.984  0.00  0.00    +0.000 A 
ATOM      8  C   UNL     1       3.099   4.090  18.096  0.00  0.00    +0.000 A 
ATOM      9  N   UNL     1       3.608   5.287  17.633  0.00  0.00    +0.000 N 
ENDROOT
BRANCH   1  10
ATOM     10  C   UNL     1       2.970   7.754  17.727  0.00  0.00    +0.000 C 
BRANCH  10  11
ATOM     11  C   UNL     1       2.275   8.670  18.742  0.00  0.00    +0.000 C 
BRANCH  11  14
ATOM     12  C   UNL     1       0.184   9.946  19.065  0.00  0.00    +0.000 C 
ATOM     13  O   UNL     1       0.439  10.168  20.245  0.00  0.00    +0.000 OA
ATOM     14  N   UNL     1       1.012   9.207  18.246  0.00  0.00    +0.000 N 
ATOM     15  H   UNL     1       0.704   8.930  17.326  0.00  0.00    +0.000 HD
BRANCH  12  21
ATOM     16  C   UNL     1      -3.017   9.850  15.249  0.00  0.00    +0.000 C 
ATOM     17  C   UNL     1      -2.653  10.380  16.604  0.00  0.00    +0.000 A 
ATOM     18  C   UNL     1      -3.484  11.277  17.282  0.00  0.00    +0.000 A 
ATOM     19  C   UNL     1      -3.133  11.747  18.548  0.00  0.00    +0.000 A 
ATOM     20  C   UNL     1      -1.941  11.332  19.153  0.00  0.00    +0.000 A 
ATOM     21  C   UNL     1      -1.094  10.444  18.480  0.00  0.00    +0.000 A 
ATOM     22  C   UNL     1      -1.463   9.963  17.215  0.00  0.00    +0.000 A 
ENDBRANCH  12  21
ENDBRANCH  11  14
ENDBRANCH  10  11
ENDBRANCH   1  10
BRANCH   9  23
ATOM     23  C   UNL     1       4.769   5.419  16.761  0.00  0.00    +0.000 C 
BRANCH  23  24
ATOM     24  C   UNL     1       5.970   6.074  17.396  0.00  0.00    +0.000 A 
ATOM     25  C   UNL     1       6.468   7.338  17.050  0.00  0.00    +0.000 A 
ATOM     26  C   UNL     1       7.621   7.840  17.666  0.00  0.00    +0.000 A 
ATOM     27  C   UNL     1       8.284   7.095  18.639  0.00  0.00    +0.000 A 
ATOM     28  C   UNL     1       7.787   5.850  19.012  0.00  0.00    +0.000 A 
ATOM     29  C   UNL     1       6.643   5.355  18.393  0.00  0.00    +0.000 A 
ATOM     30  F   UNL     1       6.181   4.152  18.763  0.00  0.00    +0.000 F 
ENDBRANCH  23  24
ENDBRANCH   9  23
TORSDOF 6
ENDMDL
