MODEL 1
REMARK VINA RESULT:      -8.2      0.000      0.000
REMARK  Name = 
REMARK  5 active torsions:
REMARK  status: ('A' for Active; 'I' for Inactive)
REMARK    1  A    between atoms: C_1  and  C_2
REMARK    2  A    between atoms: C_9  and  C_10
REMARK    3  A    between atoms: N_12  and  C_13
REMARK    4  A    between atoms: N_12  and  C_21
REMARK    5  A    between atoms: C_13  and  C_14
REMARK                            x       y       z     vdW  Elec       q    Type
REMARK                         _______ _______ _______ _____ _____    ______ ____
ROOT
ATOM      1  C   UNL     1       4.031   6.184  18.486  0.00  0.00    +0.000 C 
ATOM      2  O   UNL     1       5.235   6.266  18.748  0.00  0.00    +0.000 OA
ATOM      3  N   UNL     1       3.507   5.038  17.851  0.00  0.00    +0.000 N 
ENDROOT
BRANCH   1  12
ATOM      4  C   UNL     1      -0.656   9.533  23.197  0.00  0.00    +0.000 C 
ATOM      5  C   UNL     1      -0.084   9.369  21.816  0.00  0.00    +0.000 A 
ATOM      6  C   UNL     1      -0.574  10.148  20.760  0.00  0.00    +0.000 A 
ATOM      7  C   UNL     1       0.059  10.126  19.516  0.00  0.00    +0.000 A 
ATOM      8  C   UNL     1       1.163   9.294  19.318  0.00  0.00    +0.000 A 
ATOM      9  C   UNL     1       1.924   9.333  18.064  0.00  0.00    +0.000 A 
ATOM     10  O   UNL     1       1.774  10.225  17.240  0.00  0.00    +0.000 OA
ATOM     11  C   UNL     1       2.887   8.241  17.848  0.00  0.00    +0.000 A 
ATOM     12  C   UNL     1       3.137   7.373  18.841  0.00  0.00    +0.000 A 
ATOM     13  O   UNL     1       2.585   7.503  20.112  0.00  0.00    +0.000 OA
ATOM     14  C   UNL     1       1.590   8.431  20.319  0.00  0.00    +0.000 A 
ATOM     15  C   UNL     1       0.992   8.495  21.583  0.00  0.00    +0.000 A 
ENDBRANCH   1  12
BRANCH   3  16
ATOM     16  C   UNL     1       2.074   4.690  17.958  0.00  0.00    +0.000 C 
ATOM     17  C   UNL     1       1.387   4.802  19.335  0.00  0.00    +0.000 C 
ATOM     18  C   UNL     1       1.399   3.454  20.045  0.00  0.00    +0.000 C 
ATOM     19  S   UNL     1       1.645   2.212  18.801  0.00  0.00    +0.000 S 
ATOM     20  O   UNL     1       2.941   1.595  19.014  0.00  0.00    +0.000 OA
ATOM     21  O   UNL     1       0.433   1.436  18.657  0.00  0.00    +0.000 OA
ATOM     22  C   UNL     1       1.771   3.295  17.415  0.00  0.00    +0.000 C 
ENDBRANCH   3  16
BRANCH   3  23
ATOM     23  C   UNL     1       4.486   3.974  17.511  0.00  0.00    +0.000 C 
BRANCH  23  24
ATOM     24  C   UNL     1       5.306   4.156  16.249  0.00  0.00    +0.000 A 
ATOM     25  C   UNL     1       4.743   3.953  14.979  0.00  0.00    +0.000 A 
ATOM     26  C   UNL     1       5.485   4.189  13.818  0.00  0.00    +0.000 A 
ATOM     27  C   UNL     1       6.813   4.598  13.903  0.00  0.00    +0.000 A 
ATOM     28  C   UNL     1       7.418   4.711  15.152  0.00  0.00    +0.000 A 
ATOM     29  C   UNL     1       6.678   4.471  16.314  0.00  0.00    +0.000 A 
ATOM     30 CL   UNL     1       7.536   4.522  17.817  0.00  0.00    +0.000 Cl
ENDBRANCH  23  24
ENDBRANCH   3  23
TORSDOF 4
ENDMDL
MODEL 2
REMARK VINA RESULT:      -7.7      1.417      1.927
REMARK  Name = 
REMARK  5 active torsions:
REMARK  status: ('A' for Active; 'I' for Inactive)
REMARK    1  A    between atoms: C_1  and  C_2
REMARK    2  A    between atoms: C_9  and  C_10
REMARK    3  A    between atoms: N_12  and  C_13
REMARK    4  A    between atoms: N_12  and  C_21
REMARK    5  A    between atoms: C_13  and  C_14
REMARK                            x       y       z     vdW  Elec       q    Type
REMARK                         _______ _______ _______ _____ _____    ______ ____
ROOT
ATOM      1  C   UNL     1       3.178   6.945  17.771  0.00  0.00    +0.000 C 
ATOM      2  O   UNL     1       4.153   7.330  17.120  0.00  0.00    +0.000 OA
ATOM      3  N   UNL     1       2.832   5.577  17.813  0.00  0.00    +0.000 N 
ENDROOT
BRANCH   1  12
ATOM      4  C   UNL     1       0.071   9.485  24.037  0.00  0.00    +0.000 C 
ATOM      5  C   UNL     1       0.148   9.450  22.536  0.00  0.00    +0.000 A 
ATOM      6  C   UNL     1      -0.755  10.202  21.773  0.00  0.00    +0.000 A 
ATOM      7  C   UNL     1      -0.589  10.311  20.391  0.00  0.00    +0.000 A 
ATOM      8  C   UNL     1       0.460   9.632  19.767  0.00  0.00    +0.000 A 
ATOM      9  C   UNL     1       0.737   9.817  18.337  0.00  0.00    +0.000 A 
ATOM     10  O   UNL     1       0.219  10.715  17.687  0.00  0.00    +0.000 OA
ATOM     11  C   UNL     1       1.675   8.865  17.723  0.00  0.00    +0.000 A 
ATOM     12  C   UNL     1       2.340   7.996  18.501  0.00  0.00    +0.000 A 
ATOM     13  O   UNL     1       2.248   8.004  19.889  0.00  0.00    +0.000 OA
ATOM     14  C   UNL     1       1.294   8.791  20.492  0.00  0.00    +0.000 A 
ATOM     15  C   UNL     1       1.164   8.729  21.885  0.00  0.00    +0.000 A 
ENDBRANCH   1  12
BRANCH   3  16
ATOM     16  C   UNL     1       2.020   5.024  18.917  0.00  0.00    +0.000 C 
ATOM     17  C   UNL     1       2.715   4.696  20.254  0.00  0.00    +0.000 C 
ATOM     18  C   UNL     1       3.119   3.227  20.295  0.00  0.00    +0.000 C 
ATOM     19  S   UNL     1       2.126   2.380  19.092  0.00  0.00    +0.000 S 
ATOM     20  O   UNL     1       2.991   1.909  18.028  0.00  0.00    +0.000 OA
ATOM     21  O   UNL     1       1.193   1.510  19.773  0.00  0.00    +0.000 OA
ATOM     22  C   UNL     1       1.236   3.782  18.499  0.00  0.00    +0.000 C 
ENDBRANCH   3  16
BRANCH   3  23
ATOM     23  C   UNL     1       3.694   4.661  17.021  0.00  0.00    +0.000 C 
BRANCH  23  24
ATOM     24  C   UNL     1       5.184   4.689  17.300  0.00  0.00    +0.000 A 
ATOM     25  C   UNL     1       5.679   4.960  18.585  0.00  0.00    +0.000 A 
ATOM     26  C   UNL     1       7.051   4.916  18.851  0.00  0.00    +0.000 A 
ATOM     27  C   UNL     1       7.956   4.637  17.832  0.00  0.00    +0.000 A 
ATOM     28  C   UNL     1       7.493   4.462  16.530  0.00  0.00    +0.000 A 
ATOM     29  C   UNL     1       6.120   4.510  16.263  0.00  0.00    +0.000 A 
ATOM     30 CL   UNL     1       5.639   4.396  14.603  0.00  0.00    +0.000 Cl
ENDBRANCH  23  24
ENDBRANCH   3  23
TORSDOF 4
ENDMDL
MODEL 3
REMARK VINA RESULT:      -7.6      1.949      3.050
REMARK  Name = 
REMARK  5 active torsions:
REMARK  status: ('A' for Active; 'I' for Inactive)
REMARK    1  A    between atoms: C_1  and  C_2
REMARK    2  A    between atoms: C_9  and  C_10
REMARK    3  A    between atoms: N_12  and  C_13
REMARK    4  A    between atoms: N_12  and  C_21
REMARK    5  A    between atoms: C_13  and  C_14
REMARK                            x       y       z     vdW  Elec       q    Type
REMARK                         _______ _______ _______ _____ _____    ______ ____
ROOT
ATOM      1  C   UNL     1       2.710   7.360  18.440  0.00  0.00    +0.000 C 
ATOM      2  O   UNL     1       3.628   7.971  17.884  0.00  0.00    +0.000 OA
ATOM      3  N   UNL     1       2.600   5.957  18.319  0.00  0.00    +0.000 N 
ENDROOT
BRANCH   1  12
ATOM      4  C   UNL     1      -2.910  12.233  18.598  0.00  0.00    +0.000 C 
ATOM      5  C   UNL     1      -1.781  11.517  19.284  0.00  0.00    +0.000 A 
ATOM      6  C   UNL     1      -1.488  11.797  20.625  0.00  0.00    +0.000 A 
ATOM      7  C   UNL     1      -0.557  11.022  21.319  0.00  0.00    +0.000 A 
ATOM      8  C   UNL     1       0.112   9.989  20.658  0.00  0.00    +0.000 A 
ATOM      9  C   UNL     1       1.007   9.081  21.384  0.00  0.00    +0.000 A 
ATOM     10  O   UNL     1       1.041   9.042  22.606  0.00  0.00    +0.000 OA
ATOM     11  C   UNL     1       1.864   8.211  20.563  0.00  0.00    +0.000 A 
ATOM     12  C   UNL     1       1.684   8.170  19.233  0.00  0.00    +0.000 A 
ATOM     13  O   UNL     1       0.659   8.857  18.589  0.00  0.00    +0.000 OA
ATOM     14  C   UNL     1      -0.082   9.773  19.300  0.00  0.00    +0.000 A 
ATOM     15  C   UNL     1      -1.058  10.511  18.619  0.00  0.00    +0.000 A 
ENDBRANCH   1  12
BRANCH   3  16
ATOM     16  C   UNL     1       1.857   5.158  19.316  0.00  0.00    +0.000 C 
ATOM     17  C   UNL     1       2.599   4.675  20.578  0.00  0.00    +0.000 C 
ATOM     18  C   UNL     1       3.131   3.262  20.374  0.00  0.00    +0.000 C 
ATOM     19  S   UNL     1       2.199   2.542  19.046  0.00  0.00    +0.000 S 
ATOM     20  O   UNL     1       3.086   2.334  17.918  0.00  0.00    +0.000 OA
ATOM     21  O   UNL     1       1.357   1.490  19.573  0.00  0.00    +0.000 OA
ATOM     22  C   UNL     1       1.180   3.938  18.696  0.00  0.00    +0.000 C 
ENDBRANCH   3  16
BRANCH   3  23
ATOM     23  C   UNL     1       3.630   5.291  17.480  0.00  0.00    +0.000 C 
BRANCH  23  24
ATOM     24  C   UNL     1       5.084   5.587  17.794  0.00  0.00    +0.000 A 
ATOM     25  C   UNL     1       5.612   5.366  19.075  0.00  0.00    +0.000 A 
ATOM     26  C   UNL     1       6.969   5.575  19.340  0.00  0.00    +0.000 A 
ATOM     27  C   UNL     1       7.816   6.043  18.339  0.00  0.00    +0.000 A 
ATOM     28  C   UNL     1       7.292   6.361  17.089  0.00  0.00    +0.000 A 
ATOM     29  C   UNL     1       5.934   6.155  16.825  0.00  0.00    +0.000 A 
ATOM     30 CL   UNL     1       5.344   6.683  15.284  0.00  0.00    +0.000 Cl
ENDBRANCH  23  24
ENDBRANCH   3  23
TORSDOF 4
ENDMDL
MODEL 4
REMARK VINA RESULT:      -7.5      1.760      2.883
REMARK  Name = 
REMARK  5 active torsions:
REMARK  status: ('A' for Active; 'I' for Inactive)
REMARK    1  A    between atoms: C_1  and  C_2
REMARK    2  A    between atoms: C_9  and  C_10
REMARK    3  A    between atoms: N_12  and  C_13
REMARK    4  A    between atoms: N_12  and  C_21
REMARK    5  A    between atoms: C_13  and  C_14
REMARK                            x       y       z     vdW  Elec       q    Type
REMARK                         _______ _______ _______ _____ _____    ______ ____
ROOT
ATOM      1  C   UNL     1       3.041   7.086  18.082  0.00  0.00    +0.000 C 
ATOM      2  O   UNL     1       3.985   7.592  17.468  0.00  0.00    +0.000 OA
ATOM      3  N   UNL     1       2.816   5.693  18.040  0.00  0.00    +0.000 N 
ENDROOT
BRANCH   1  12
ATOM      4  C   UNL     1      -0.790  13.449  18.536  0.00  0.00    +0.000 C 
ATOM      5  C   UNL     1      -0.143  12.262  19.194  0.00  0.00    +0.000 A 
ATOM      6  C   UNL     1      -0.164  12.139  20.589  0.00  0.00    +0.000 A 
ATOM      7  C   UNL     1       0.282  10.965  21.199  0.00  0.00    +0.000 A 
ATOM      8  C   UNL     1       0.786   9.927  20.413  0.00  0.00    +0.000 A 
ATOM      9  C   UNL     1       1.152   8.636  21.007  0.00  0.00    +0.000 A 
ATOM     10  O   UNL     1       0.836   8.335  22.151  0.00  0.00    +0.000 OA
ATOM     11  C   UNL     1       1.920   7.716  20.154  0.00  0.00    +0.000 A 
ATOM     12  C   UNL     1       2.109   8.017  18.859  0.00  0.00    +0.000 A 
ATOM     13  O   UNL     1       1.538   9.132  18.253  0.00  0.00    +0.000 OA
ATOM     14  C   UNL     1       0.920  10.078  19.039  0.00  0.00    +0.000 A 
ATOM     15  C   UNL     1       0.419  11.230  18.422  0.00  0.00    +0.000 A 
ENDBRANCH   1  12
BRANCH   3  16
ATOM     16  C   UNL     1       2.044   5.009  19.099  0.00  0.00    +0.000 C 
ATOM     17  C   UNL     1       2.799   4.468  20.330  0.00  0.00    +0.000 C 
ATOM     18  C   UNL     1       3.149   2.998  20.135  0.00  0.00    +0.000 C 
ATOM     19  S   UNL     1       2.062   2.365  18.884  0.00  0.00    +0.000 S 
ATOM     20  O   UNL     1       2.849   2.030  17.713  0.00  0.00    +0.000 OA
ATOM     21  O   UNL     1       1.135   1.432  19.486  0.00  0.00    +0.000 OA
ATOM     22  C   UNL     1       1.194   3.865  18.553  0.00  0.00    +0.000 C 
ENDBRANCH   3  16
BRANCH   3  23
ATOM     23  C   UNL     1       3.761   4.904  17.209  0.00  0.00    +0.000 C 
BRANCH  23  24
ATOM     24  C   UNL     1       5.227   4.937  17.596  0.00  0.00    +0.000 A 
ATOM     25  C   UNL     1       5.634   5.364  18.869  0.00  0.00    +0.000 A 
ATOM     26  C   UNL     1       6.981   5.328  19.244  0.00  0.00    +0.000 A 
ATOM     27  C   UNL     1       7.950   4.899  18.341  0.00  0.00    +0.000 A 
ATOM     28  C   UNL     1       7.578   4.564  17.041  0.00  0.00    +0.000 A 
ATOM     29  C   UNL     1       6.231   4.604  16.665  0.00  0.00    +0.000 A 
ATOM     30 CL   UNL     1       5.870   4.285  15.002  0.00  0.00    +0.000 Cl
ENDBRANCH  23  24
ENDBRANCH   3  23
TORSDOF 4
ENDMDL
MODEL 5
REMARK VINA RESULT:      -7.5      5.778      9.039
REMARK  Name = 
REMARK  5 active torsions:
REMARK  status: ('A' for Active; 'I' for Inactive)
REMARK    1  A    between atoms: C_1  and  C_2
REMARK    2  A    between atoms: C_9  and  C_10
REMARK    3  A    between atoms: N_12  and  C_13
REMARK    4  A    between atoms: N_12  and  C_21
REMARK    5  A    between atoms: C_13  and  C_14
REMARK                            x       y       z     vdW  Elec       q    Type
REMARK                         _______ _______ _______ _____ _____    ______ ____
ROOT
ATOM      1  C   UNL     1      -2.123  11.222  18.584  0.00  0.00    +0.000 C 
ATOM      2  O   UNL     1      -2.061  10.177  17.931  0.00  0.00    +0.000 OA
ATOM      3  N   UNL     1      -0.951  11.840  19.071  0.00  0.00    +0.000 N 
ENDROOT
BRANCH   1  12
ATOM      4  C   UNL     1      -7.217  13.574  23.472  0.00  0.00    +0.000 C 
ATOM      5  C   UNL     1      -6.851  13.076  22.102  0.00  0.00    +0.000 A 
ATOM      6  C   UNL     1      -7.850  12.885  21.138  0.00  0.00    +0.000 A 
ATOM      7  C   UNL     1      -7.508  12.586  19.819  0.00  0.00    +0.000 A 
ATOM      8  C   UNL     1      -6.163  12.439  19.470  0.00  0.00    +0.000 A 
ATOM      9  C   UNL     1      -5.760  12.243  18.073  0.00  0.00    +0.000 A 
ATOM     10  O   UNL     1      -6.536  12.415  17.143  0.00  0.00    +0.000 OA
ATOM     11  C   UNL     1      -4.366  11.830  17.845  0.00  0.00    +0.000 A 
ATOM     12  C   UNL     1      -3.506  11.806  18.876  0.00  0.00    +0.000 A 
ATOM     13  O   UNL     1      -3.849  12.237  20.154  0.00  0.00    +0.000 OA
ATOM     14  C   UNL     1      -5.168  12.511  20.436  0.00  0.00    +0.000 A 
ATOM     15  C   UNL     1      -5.507  12.869  21.747  0.00  0.00    +0.000 A 
ENDBRANCH   1  12
BRANCH   3  16
ATOM     16  C   UNL     1      -0.927  13.279  19.411  0.00  0.00    +0.000 C 
ATOM     17  C   UNL     1      -0.031  14.220  18.582  0.00  0.00    +0.000 C 
ATOM     18  C   UNL     1       1.320  14.405  19.264  0.00  0.00    +0.000 C 
ATOM     19  S   UNL     1       1.106  13.967  20.970  0.00  0.00    +0.000 S 
ATOM     20  O   UNL     1       1.873  12.765  21.239  0.00  0.00    +0.000 OA
ATOM     21  O   UNL     1       1.221  15.156  21.784  0.00  0.00    +0.000 OA
ATOM     22  C   UNL     1      -0.599  13.524  20.883  0.00  0.00    +0.000 C 
ENDBRANCH   3  16
BRANCH   3  23
ATOM     23  C   UNL     1       0.328  11.149  18.764  0.00  0.00    +0.000 C 
BRANCH  23  24
ATOM     24  C   UNL     1       0.709   9.967  19.635  0.00  0.00    +0.000 A 
ATOM     25  C   UNL     1       0.309   9.893  20.978  0.00  0.00    +0.000 A 
ATOM     26  C   UNL     1       0.605   8.769  21.756  0.00  0.00    +0.000 A 
ATOM     27  C   UNL     1       1.335   7.714  21.216  0.00  0.00    +0.000 A 
ATOM     28  C   UNL     1       1.824   7.810  19.916  0.00  0.00    +0.000 A 
ATOM     29  C   UNL     1       1.532   8.937  19.139  0.00  0.00    +0.000 A 
ATOM     30 CL   UNL     1       2.273   9.027  17.576  0.00  0.00    +0.000 Cl
ENDBRANCH  23  24
ENDBRANCH   3  23
TORSDOF 4
ENDMDL
MODEL 6
REMARK VINA RESULT:      -7.3      2.027      3.206
REMARK  Name = 
REMARK  5 active torsions:
REMARK  status: ('A' for Active; 'I' for Inactive)
REMARK    1  A    between atoms: C_1  and  C_2
REMARK    2  A    between atoms: C_9  and  C_10
REMARK    3  A    between atoms: N_12  and  C_13
REMARK    4  A    between atoms: N_12  and  C_21
REMARK    5  A    between atoms: C_13  and  C_14
REMARK                            x       y       z     vdW  Elec       q    Type
REMARK                         _______ _______ _______ _____ _____    ______ ____
ROOT
ATOM      1  C   UNL     1       2.189   7.913  18.323  0.00  0.00    +0.000 C 
ATOM      2  O   UNL     1       2.527   8.523  17.305  0.00  0.00    +0.000 OA
ATOM      3  N   UNL     1       2.506   6.547  18.484  0.00  0.00    +0.000 N 
ENDROOT
BRANCH   1  12
ATOM      4  C   UNL     1      -3.085  12.852  20.099  0.00  0.00    +0.000 C 
ATOM      5  C   UNL     1      -1.858  12.062  20.460  0.00  0.00    +0.000 A 
ATOM      6  C   UNL     1      -1.268  12.225  21.720  0.00  0.00    +0.000 A 
ATOM      7  C   UNL     1      -0.235  11.380  22.129  0.00  0.00    +0.000 A 
ATOM      8  C   UNL     1       0.235  10.394  21.258  0.00  0.00    +0.000 A 
ATOM      9  C   UNL     1       1.236   9.413  21.695  0.00  0.00    +0.000 A 
ATOM     10  O   UNL     1       1.536   9.273  22.873  0.00  0.00    +0.000 OA
ATOM     11  C   UNL     1       1.860   8.600  20.639  0.00  0.00    +0.000 A 
ATOM     12  C   UNL     1       1.391   8.672  19.383  0.00  0.00    +0.000 A 
ATOM     13  O   UNL     1       0.274   9.427  19.039  0.00  0.00    +0.000 OA
ATOM     14  C   UNL     1      -0.260  10.294  19.964  0.00  0.00    +0.000 A 
ATOM     15  C   UNL     1      -1.335  11.102  19.576  0.00  0.00    +0.000 A 
ENDBRANCH   1  12
BRANCH   3  16
ATOM     16  C   UNL     1       2.562   5.926  19.825  0.00  0.00    +0.000 C 
ATOM     17  C   UNL     1       3.710   4.946  20.138  0.00  0.00    +0.000 C 
ATOM     18  C   UNL     1       3.266   3.510  19.887  0.00  0.00    +0.000 C 
ATOM     19  S   UNL     1       1.492   3.501  19.917  0.00  0.00    +0.000 S 
ATOM     20  O   UNL     1       1.008   3.189  18.586  0.00  0.00    +0.000 OA
ATOM     21  O   UNL     1       1.039   2.788  21.092  0.00  0.00    +0.000 OA
ATOM     22  C   UNL     1       1.257   5.227  20.198  0.00  0.00    +0.000 C 
ENDBRANCH   3  16
BRANCH   3  23
ATOM     23  C   UNL     1       3.240   5.909  17.361  0.00  0.00    +0.000 C 
BRANCH  23  24
ATOM     24  C   UNL     1       4.755   5.951  17.404  0.00  0.00    +0.000 A 
ATOM     25  C   UNL     1       5.446   7.159  17.586  0.00  0.00    +0.000 A 
ATOM     26  C   UNL     1       6.839   7.181  17.693  0.00  0.00    +0.000 A 
ATOM     27  C   UNL     1       7.572   6.002  17.586  0.00  0.00    +0.000 A 
ATOM     28  C   UNL     1       6.913   4.807  17.309  0.00  0.00    +0.000 A 
ATOM     29  C   UNL     1       5.519   4.785  17.197  0.00  0.00    +0.000 A 
ATOM     30 CL   UNL     1       4.791   3.282  16.738  0.00  0.00    +0.000 Cl
ENDBRANCH  23  24
ENDBRANCH   3  23
TORSDOF 4
ENDMDL
MODEL 7
REMARK VINA RESULT:      -7.2      3.633      8.184
REMARK  Name = 
REMARK  5 active torsions:
REMARK  status: ('A' for Active; 'I' for Inactive)
REMARK    1  A    between atoms: C_1  and  C_2
REMARK    2  A    between atoms: C_9  and  C_10
REMARK    3  A    between atoms: N_12  and  C_13
REMARK    4  A    between atoms: N_12  and  C_21
REMARK    5  A    between atoms: C_13  and  C_14
REMARK                            x       y       z     vdW  Elec       q    Type
REMARK                         _______ _______ _______ _____ _____    ______ ____
ROOT
ATOM      1  C   UNL     1       1.903   9.055  18.307  0.00  0.00    +0.000 C 
ATOM      2  O   UNL     1       1.729   9.677  17.256  0.00  0.00    +0.000 OA
ATOM      3  N   UNL     1       1.392   9.546  19.529  0.00  0.00    +0.000 N 
ENDROOT
BRANCH   1  12
ATOM      4  C   UNL     1       6.866   4.714  14.859  0.00  0.00    +0.000 C 
ATOM      5  C   UNL     1       5.741   4.890  15.841  0.00  0.00    +0.000 A 
ATOM      6  C   UNL     1       5.238   3.781  16.533  0.00  0.00    +0.000 A 
ATOM      7  C   UNL     1       4.313   3.955  17.564  0.00  0.00    +0.000 A 
ATOM      8  C   UNL     1       3.861   5.239  17.877  0.00  0.00    +0.000 A 
ATOM      9  C   UNL     1       2.983   5.472  19.030  0.00  0.00    +0.000 A 
ATOM     10  O   UNL     1       2.787   4.615  19.880  0.00  0.00    +0.000 OA
ATOM     11  C   UNL     1       2.350   6.798  19.113  0.00  0.00    +0.000 A 
ATOM     12  C   UNL     1       2.714   7.760  18.250  0.00  0.00    +0.000 A 
ATOM     13  O   UNL     1       3.734   7.591  17.319  0.00  0.00    +0.000 OA
ATOM     14  C   UNL     1       4.263   6.336  17.126  0.00  0.00    +0.000 A 
ATOM     15  C   UNL     1       5.233   6.169  16.131  0.00  0.00    +0.000 A 
ENDBRANCH   1  12
BRANCH   3  16
ATOM     16  C   UNL     1       1.150   8.644  20.676  0.00  0.00    +0.000 C 
ATOM     17  C   UNL     1      -0.290   8.169  20.951  0.00  0.00    +0.000 C 
ATOM     18  C   UNL     1      -0.960   9.071  21.981  0.00  0.00    +0.000 C 
ATOM     19  S   UNL     1       0.335   9.906  22.862  0.00  0.00    +0.000 S 
ATOM     20  O   UNL     1       0.271  11.321  22.549  0.00  0.00    +0.000 OA
ATOM     21  O   UNL     1       0.377   9.416  24.222  0.00  0.00    +0.000 OA
ATOM     22  C   UNL     1       1.697   9.209  21.985  0.00  0.00    +0.000 C 
ENDBRANCH   3  16
BRANCH   3  23
ATOM     23  C   UNL     1       0.666  10.840  19.460  0.00  0.00    +0.000 C 
BRANCH  23  24
ATOM     24  C   UNL     1      -0.734  10.825  18.878  0.00  0.00    +0.000 A 
ATOM     25  C   UNL     1      -1.105   9.891  17.899  0.00  0.00    +0.000 A 
ATOM     26  C   UNL     1      -2.416   9.839  17.415  0.00  0.00    +0.000 A 
ATOM     27  C   UNL     1      -3.372  10.740  17.875  0.00  0.00    +0.000 A 
ATOM     28  C   UNL     1      -2.999  11.737  18.774  0.00  0.00    +0.000 A 
ATOM     29  C   UNL     1      -1.687  11.792  19.255  0.00  0.00    +0.000 A 
ATOM     30 CL   UNL     1      -1.281  13.129  20.279  0.00  0.00    +0.000 Cl
ENDBRANCH  23  24
ENDBRANCH   3  23
TORSDOF 4
ENDMDL
MODEL 8
REMARK VINA RESULT:      -7.1      3.751      8.149
REMARK  Name = 
REMARK  5 active torsions:
REMARK  status: ('A' for Active; 'I' for Inactive)
REMARK    1  A    between atoms: C_1  and  C_2
REMARK    2  A    between atoms: C_9  and  C_10
REMARK    3  A    between atoms: N_12  and  C_13
REMARK    4  A    between atoms: N_12  and  C_21
REMARK    5  A    between atoms: C_13  and  C_14
REMARK                            x       y       z     vdW  Elec       q    Type
REMARK                         _______ _______ _______ _____ _____    ______ ____
ROOT
ATOM      1  C   UNL     1       1.623   8.776  18.235  0.00  0.00    +0.000 C 
ATOM      2  O   UNL     1       1.237   9.222  17.151  0.00  0.00    +0.000 OA
ATOM      3  N   UNL     1       1.149   9.317  19.449  0.00  0.00    +0.000 N 
ENDROOT
BRANCH   1  12
ATOM      4  C   UNL     1       6.988   5.000  14.723  0.00  0.00    +0.000 C 
ATOM      5  C   UNL     1       5.939   5.089  15.797  0.00  0.00    +0.000 A 
ATOM      6  C   UNL     1       5.714   3.998  16.646  0.00  0.00    +0.000 A 
ATOM      7  C   UNL     1       4.867   4.126  17.748  0.00  0.00    +0.000 A 
ATOM      8  C   UNL     1       4.213   5.339  17.979  0.00  0.00    +0.000 A 
ATOM      9  C   UNL     1       3.411   5.548  19.189  0.00  0.00    +0.000 A 
ATOM     10  O   UNL     1       3.453   4.775  20.137  0.00  0.00    +0.000 OA
ATOM     11  C   UNL     1       2.552   6.742  19.208  0.00  0.00    +0.000 A 
ATOM     12  C   UNL     1       2.653   7.646  18.221  0.00  0.00    +0.000 A 
ATOM     13  O   UNL     1       3.602   7.550  17.206  0.00  0.00    +0.000 OA
ATOM     14  C   UNL     1       4.336   6.393  17.083  0.00  0.00    +0.000 A 
ATOM     15  C   UNL     1       5.230   6.284  16.012  0.00  0.00    +0.000 A 
ENDBRANCH   1  12
BRANCH   3  16
ATOM     16  C   UNL     1       1.190   8.537  20.705  0.00  0.00    +0.000 C 
ATOM     17  C   UNL     1      -0.094   7.824  21.174  0.00  0.00    +0.000 C 
ATOM     18  C   UNL     1      -0.855   8.697  22.164  0.00  0.00    +0.000 C 
ATOM     19  S   UNL     1       0.301   9.876  22.815  0.00  0.00    +0.000 S 
ATOM     20  O   UNL     1      -0.082  11.199  22.360  0.00  0.00    +0.000 OA
ATOM     21  O   UNL     1       0.549   9.579  24.208  0.00  0.00    +0.000 OA
ATOM     22  C   UNL     1       1.707   9.359  21.884  0.00  0.00    +0.000 C 
ENDBRANCH   3  16
BRANCH   3  23
ATOM     23  C   UNL     1       0.190  10.446  19.331  0.00  0.00    +0.000 C 
BRANCH  23  24
ATOM     24  C   UNL     1       0.766  11.832  19.111  0.00  0.00    +0.000 A 
ATOM     25  C   UNL     1       2.134  12.020  18.859  0.00  0.00    +0.000 A 
ATOM     26  C   UNL     1       2.647  13.292  18.590  0.00  0.00    +0.000 A 
ATOM     27  C   UNL     1       1.810  14.404  18.600  0.00  0.00    +0.000 A 
ATOM     28  C   UNL     1       0.469  14.252  18.943  0.00  0.00    +0.000 A 
ATOM     29  C   UNL     1      -0.044  12.979  19.218  0.00  0.00    +0.000 A 
ATOM     30 CL   UNL     1      -1.691  12.893  19.746  0.00  0.00    +0.000 Cl
ENDBRANCH  23  24
ENDBRANCH   3  23
TORSDOF 4
ENDMDL
MODEL 9
REMARK VINA RESULT:      -7.1      1.247      1.440
REMARK  Name = 
REMARK  5 active torsions:
REMARK  status: ('A' for Active; 'I' for Inactive)
REMARK    1  A    between atoms: C_1  and  C_2
REMARK    2  A    between atoms: C_9  and  C_10
REMARK    3  A    between atoms: N_12  and  C_13
REMARK    4  A    between atoms: N_12  and  C_21
REMARK    5  A    between atoms: C_13  and  C_14
REMARK                            x       y       z     vdW  Elec       q    Type
REMARK                         _______ _______ _______ _____ _____    ______ ____
ROOT
ATOM      1  C   UNL     1       3.366   6.319  17.739  0.00  0.00    +0.000 C 
ATOM      2  O   UNL     1       3.949   6.463  16.661  0.00  0.00    +0.000 OA
ATOM      3  N   UNL     1       3.258   5.044  18.336  0.00  0.00    +0.000 N 
ENDROOT
BRANCH   1  12
ATOM      4  C   UNL     1      -0.336   9.443  23.387  0.00  0.00    +0.000 C 
ATOM      5  C   UNL     1       0.122   9.459  21.956  0.00  0.00    +0.000 A 
ATOM      6  C   UNL     1      -0.262  10.508  21.111  0.00  0.00    +0.000 A 
ATOM      7  C   UNL     1       0.290  10.623  19.835  0.00  0.00    +0.000 A 
ATOM      8  C   UNL     1       1.200   9.663  19.387  0.00  0.00    +0.000 A 
ATOM      9  C   UNL     1       1.890   9.814  18.101  0.00  0.00    +0.000 A 
ATOM     10  O   UNL     1       1.873  10.866  17.475  0.00  0.00    +0.000 OA
ATOM     11  C   UNL     1       2.610   8.633  17.600  0.00  0.00    +0.000 A 
ATOM     12  C   UNL     1       2.738   7.553  18.387  0.00  0.00    +0.000 A 
ATOM     13  O   UNL     1       2.288   7.523  19.704  0.00  0.00    +0.000 OA
ATOM     14  C   UNL     1       1.504   8.554  20.167  0.00  0.00    +0.000 A 
ATOM     15  C   UNL     1       0.996   8.470  21.469  0.00  0.00    +0.000 A 
ENDBRANCH   1  12
BRANCH   3  16
ATOM     16  C   UNL     1       3.022   4.895  19.788  0.00  0.00    +0.000 C 
ATOM     17  C   UNL     1       3.943   3.957  20.594  0.00  0.00    +0.000 C 
ATOM     18  C   UNL     1       3.317   2.573  20.715  0.00  0.00    +0.000 C 
ATOM     19  S   UNL     1       1.578   2.760  20.413  0.00  0.00    +0.000 S 
ATOM     20  O   UNL     1       1.247   2.082  19.175  0.00  0.00    +0.000 OA
ATOM     21  O   UNL     1       0.854   2.523  21.643  0.00  0.00    +0.000 OA
ATOM     22  C   UNL     1       1.583   4.497  20.105  0.00  0.00    +0.000 C 
ENDBRANCH   3  16
BRANCH   3  23
ATOM     23  C   UNL     1       3.866   3.917  17.582  0.00  0.00    +0.000 C 
BRANCH  23  24
ATOM     24  C   UNL     1       5.066   4.226  16.709  0.00  0.00    +0.000 A 
ATOM     25  C   UNL     1       5.044   3.982  15.327  0.00  0.00    +0.000 A 
ATOM     26  C   UNL     1       6.128   4.333  14.517  0.00  0.00    +0.000 A 
ATOM     27  C   UNL     1       7.268   4.902  15.077  0.00  0.00    +0.000 A 
ATOM     28  C   UNL     1       7.348   5.063  16.458  0.00  0.00    +0.000 A 
ATOM     29  C   UNL     1       6.266   4.708  17.269  0.00  0.00    +0.000 A 
ATOM     30 CL   UNL     1       6.492   4.834  18.982  0.00  0.00    +0.000 Cl
ENDBRANCH  23  24
ENDBRANCH   3  23
TORSDOF 4
ENDMDL
