MODEL 1
REMARK VINA RESULT:      -8.2      0.000      0.000
REMARK  Name = 
REMARK  5 active torsions:
REMARK  status: ('A' for Active; 'I' for Inactive)
REMARK    1  A    between atoms: C_2  and  C_17
REMARK    2  A    between atoms: N_3  and  C_4
REMARK    3  A    between atoms: C_4  and  C_5
REMARK    4  A    between atoms: C_9  and  C_10
REMARK    5  A    between atoms: C_10  and  N_11
REMARK                            x       y       z     vdW  Elec       q    Type
REMARK                         _______ _______ _______ _____ _____    ______ ____
ROOT
ATOM      1  O   UNL     1       1.485   3.743  20.759  0.00  0.00    +0.000 OA
ATOM      2  C   UNL     1       2.555   4.320  20.624  0.00  0.00    +0.000 C 
ATOM      3  N   UNL     1       2.757   5.671  20.684  0.00  0.00    +0.000 N 
ATOM      4  H   UNL     1       3.669   6.042  20.437  0.00  0.00    +0.000 HD
ENDROOT
BRANCH   2   5
ATOM      5  C   UNL     1       3.812   3.600  20.336  0.00  0.00    +0.000 C 
ATOM      6  C   UNL     1       4.129   2.206  19.953  0.00  0.00    +0.000 C 
ATOM      7  C   UNL     1       4.079   3.215  18.843  0.00  0.00    +0.000 C 
ATOM      8  C   UNL     1       3.020   2.763  17.843  0.00  0.00    +0.000 C 
ATOM      9  C   UNL     1       2.904   3.684  16.655  0.00  0.00    +0.000 C 
ATOM     10  O   UNL     1       4.158   3.998  16.054  0.00  0.00    +0.000 OA
ATOM     11  C   UNL     1       5.007   4.617  16.934  0.00  0.00    +0.000 A 
ATOM     12  C   UNL     1       5.705   5.730  16.448  0.00  0.00    +0.000 A 
ATOM     13  C   UNL     1       6.599   6.398  17.273  0.00  0.00    +0.000 A 
ATOM     14  C   UNL     1       6.863   5.872  18.526  0.00  0.00    +0.000 A 
ATOM     15  F   UNL     1       7.752   6.480  19.321  0.00  0.00    +0.000 F 
ATOM     16  C   UNL     1       6.179   4.750  19.002  0.00  0.00    +0.000 A 
ATOM     17  C   UNL     1       5.152   4.144  18.254  0.00  0.00    +0.000 A 
ENDBRANCH   2   5
BRANCH   3  18
ATOM     18  C   UNL     1       1.703   6.644  20.851  0.00  0.00    +0.000 C 
BRANCH  18  19
ATOM     19  C   UNL     1       1.796   7.724  19.798  0.00  0.00    +0.000 A 
ATOM     20  C   UNL     1       2.487   7.506  18.600  0.00  0.00    +0.000 A 
ATOM     21  C   UNL     1       2.546   8.504  17.627  0.00  0.00    +0.000 A 
ATOM     22  C   UNL     1       1.900   9.722  17.834  0.00  0.00    +0.000 A 
ATOM     23  C   UNL     1       1.177   9.949  19.012  0.00  0.00    +0.000 A 
ATOM     24  C   UNL     1       1.133   8.946  19.991  0.00  0.00    +0.000 A 
BRANCH  23  25
ATOM     25  C   UNL     1       0.381  11.226  19.174  0.00  0.00    +0.000 C 
BRANCH  25  26
ATOM     26  N   UNL     1      -1.006  11.097  18.752  0.00  0.00    +0.000 N 
ATOM     27  C   UNL     1      -2.088  11.838  19.143  0.00  0.00    +0.000 A 
ATOM     28  C   UNL     1      -3.118  11.431  18.327  0.00  0.00    +0.000 A 
ATOM     29  N   UNL     1      -2.718  10.412  17.509  0.00  0.00    +0.000 NA
ATOM     30  C   UNL     1      -1.449  10.218  17.795  0.00  0.00    +0.000 A 
ENDBRANCH  25  26
ENDBRANCH  23  25
ENDBRANCH  18  19
ENDBRANCH   3  18
TORSDOF 5
ENDMDL
MODEL 2
REMARK VINA RESULT:      -8.1      1.357      2.090
REMARK  Name = 
REMARK  5 active torsions:
REMARK  status: ('A' for Active; 'I' for Inactive)
REMARK    1  A    between atoms: C_2  and  C_17
REMARK    2  A    between atoms: N_3  and  C_4
REMARK    3  A    between atoms: C_4  and  C_5
REMARK    4  A    between atoms: C_9  and  C_10
REMARK    5  A    between atoms: C_10  and  N_11
REMARK                            x       y       z     vdW  Elec       q    Type
REMARK                         _______ _______ _______ _____ _____    ______ ____
ROOT
ATOM      1  O   UNL     1       1.508   3.761  21.023  0.00  0.00    +0.000 OA
ATOM      2  C   UNL     1       2.559   4.327  20.762  0.00  0.00    +0.000 C 
ATOM      3  N   UNL     1       2.755   5.680  20.700  0.00  0.00    +0.000 N 
ATOM      4  H   UNL     1       3.642   6.031  20.355  0.00  0.00    +0.000 HD
ENDROOT
BRANCH   2   5
ATOM      5  C   UNL     1       3.797   3.589  20.436  0.00  0.00    +0.000 C 
ATOM      6  C   UNL     1       4.082   2.191  20.042  0.00  0.00    +0.000 C 
ATOM      7  C   UNL     1       4.014   3.203  18.935  0.00  0.00    +0.000 C 
ATOM      8  C   UNL     1       2.919   2.769  17.966  0.00  0.00    +0.000 C 
ATOM      9  C   UNL     1       2.782   3.693  16.783  0.00  0.00    +0.000 C 
ATOM     10  O   UNL     1       4.023   3.989  16.146  0.00  0.00    +0.000 OA
ATOM     11  C   UNL     1       4.906   4.595  17.001  0.00  0.00    +0.000 A 
ATOM     12  C   UNL     1       5.606   5.697  16.496  0.00  0.00    +0.000 A 
ATOM     13  C   UNL     1       6.534   6.351  17.296  0.00  0.00    +0.000 A 
ATOM     14  C   UNL     1       6.827   5.818  18.539  0.00  0.00    +0.000 A 
ATOM     15  F   UNL     1       7.748   6.412  19.308  0.00  0.00    +0.000 F 
ATOM     16  C   UNL     1       6.141   4.706  19.034  0.00  0.00    +0.000 A 
ATOM     17  C   UNL     1       5.083   4.117  18.316  0.00  0.00    +0.000 A 
ENDBRANCH   2   5
BRANCH   3  18
ATOM     18  C   UNL     1       1.709   6.660  20.870  0.00  0.00    +0.000 C 
BRANCH  18  19
ATOM     19  C   UNL     1       1.791   7.724  19.800  0.00  0.00    +0.000 A 
ATOM     20  C   UNL     1       2.499   7.501  18.613  0.00  0.00    +0.000 A 
ATOM     21  C   UNL     1       2.547   8.484  17.623  0.00  0.00    +0.000 A 
ATOM     22  C   UNL     1       1.873   9.691  17.803  0.00  0.00    +0.000 A 
ATOM     23  C   UNL     1       1.132   9.922  18.969  0.00  0.00    +0.000 A 
ATOM     24  C   UNL     1       1.099   8.935  19.965  0.00  0.00    +0.000 A 
BRANCH  23  25
ATOM     25  C   UNL     1       0.308  11.184  19.102  0.00  0.00    +0.000 C 
BRANCH  25  26
ATOM     26  N   UNL     1       0.931  12.190  19.950  0.00  0.00    +0.000 N 
ATOM     27  C   UNL     1       2.017  12.978  19.681  0.00  0.00    +0.000 A 
ATOM     28  C   UNL     1       2.086  13.869  20.727  0.00  0.00    +0.000 A 
ATOM     29  N   UNL     1       1.127  13.597  21.661  0.00  0.00    +0.000 NA
ATOM     30  C   UNL     1       0.456  12.574  21.180  0.00  0.00    +0.000 A 
ENDBRANCH  25  26
ENDBRANCH  23  25
ENDBRANCH  18  19
ENDBRANCH   3  18
TORSDOF 5
ENDMDL
MODEL 3
REMARK VINA RESULT:      -7.9      2.564      3.424
REMARK  Name = 
REMARK  5 active torsions:
REMARK  status: ('A' for Active; 'I' for Inactive)
REMARK    1  A    between atoms: C_2  and  C_17
REMARK    2  A    between atoms: N_3  and  C_4
REMARK    3  A    between atoms: C_4  and  C_5
REMARK    4  A    between atoms: C_9  and  C_10
REMARK    5  A    between atoms: C_10  and  N_11
REMARK                            x       y       z     vdW  Elec       q    Type
REMARK                         _______ _______ _______ _____ _____    ______ ____
ROOT
ATOM      1  O   UNL     1       2.226   7.315  18.006  0.00  0.00    +0.000 OA
ATOM      2  C   UNL     1       2.295   7.241  19.224  0.00  0.00    +0.000 C 
ATOM      3  N   UNL     1       1.725   8.104  20.119  0.00  0.00    +0.000 N 
ATOM      4  H   UNL     1       1.953   8.009  21.104  0.00  0.00    +0.000 HD
ENDROOT
BRANCH   2   5
ATOM      5  C   UNL     1       3.062   6.181  19.911  0.00  0.00    +0.000 C 
ATOM      6  C   UNL     1       2.679   4.981  20.688  0.00  0.00    +0.000 C 
ATOM      7  C   UNL     1       3.051   4.762  19.250  0.00  0.00    +0.000 C 
ATOM      8  C   UNL     1       1.858   4.123  18.547  0.00  0.00    +0.000 C 
ATOM      9  C   UNL     1       2.127   3.818  17.095  0.00  0.00    +0.000 C 
ATOM     10  O   UNL     1       3.354   3.127  16.877  0.00  0.00    +0.000 OA
ATOM     11  C   UNL     1       4.433   3.847  17.320  0.00  0.00    +0.000 A 
ATOM     12  C   UNL     1       5.543   3.894  16.468  0.00  0.00    +0.000 A 
ATOM     13  C   UNL     1       6.682   4.587  16.857  0.00  0.00    +0.000 A 
ATOM     14  C   UNL     1       6.731   5.117  18.134  0.00  0.00    +0.000 A 
ATOM     15  F   UNL     1       7.836   5.754  18.541  0.00  0.00    +0.000 F 
ATOM     16  C   UNL     1       5.628   5.052  18.990  0.00  0.00    +0.000 A 
ATOM     17  C   UNL     1       4.404   4.499  18.570  0.00  0.00    +0.000 A 
ENDBRANCH   2   5
BRANCH   3  18
ATOM     18  C   UNL     1       1.000   9.296  19.750  0.00  0.00    +0.000 C 
BRANCH  18  19
ATOM     19  C   UNL     1       0.217   9.835  20.925  0.00  0.00    +0.000 A 
ATOM     20  C   UNL     1       0.225   9.177  22.160  0.00  0.00    +0.000 A 
ATOM     21  C   UNL     1      -0.483   9.699  23.244  0.00  0.00    +0.000 A 
ATOM     22  C   UNL     1      -1.190  10.892  23.107  0.00  0.00    +0.000 A 
ATOM     23  C   UNL     1      -1.185  11.584  21.889  0.00  0.00    +0.000 A 
ATOM     24  C   UNL     1      -0.482  11.047  20.801  0.00  0.00    +0.000 A 
BRANCH  23  25
ATOM     25  C   UNL     1      -1.856  12.936  21.787  0.00  0.00    +0.000 C 
BRANCH  25  26
ATOM     26  N   UNL     1      -3.295  12.850  21.585  0.00  0.00    +0.000 N 
ATOM     27  C   UNL     1      -3.987  12.751  20.409  0.00  0.00    +0.000 A 
ATOM     28  C   UNL     1      -5.294  12.524  20.775  0.00  0.00    +0.000 A 
ATOM     29  N   UNL     1      -5.431  12.563  22.134  0.00  0.00    +0.000 NA
ATOM     30  C   UNL     1      -4.220  12.776  22.598  0.00  0.00    +0.000 A 
ENDBRANCH  25  26
ENDBRANCH  23  25
ENDBRANCH  18  19
ENDBRANCH   3  18
TORSDOF 5
ENDMDL
MODEL 4
REMARK VINA RESULT:      -7.9      6.333      9.388
REMARK  Name = 
REMARK  5 active torsions:
REMARK  status: ('A' for Active; 'I' for Inactive)
REMARK    1  A    between atoms: C_2  and  C_17
REMARK    2  A    between atoms: N_3  and  C_4
REMARK    3  A    between atoms: C_4  and  C_5
REMARK    4  A    between atoms: C_9  and  C_10
REMARK    5  A    between atoms: C_10  and  N_11
REMARK                            x       y       z     vdW  Elec       q    Type
REMARK                         _______ _______ _______ _____ _____    ______ ____
ROOT
ATOM      1  O   UNL     1      10.341  11.291  17.618  0.00  0.00    +0.000 OA
ATOM      2  C   UNL     1       9.903  10.843  18.668  0.00  0.00    +0.000 C 
ATOM      3  N   UNL     1       8.873   9.953  18.800  0.00  0.00    +0.000 N 
ATOM      4  H   UNL     1       8.520   9.746  19.729  0.00  0.00    +0.000 HD
ENDROOT
BRANCH   2   5
ATOM      5  C   UNL     1      10.437  11.247  19.985  0.00  0.00    +0.000 C 
ATOM      6  C   UNL     1      11.650  11.976  20.418  0.00  0.00    +0.000 C 
ATOM      7  C   UNL     1      10.380  12.772  20.331  0.00  0.00    +0.000 C 
ATOM      8  C   UNL     1      10.606  13.912  19.343  0.00  0.00    +0.000 C 
ATOM      9  C   UNL     1       9.404  14.811  19.200  0.00  0.00    +0.000 C 
ATOM     10  O   UNL     1       8.860  15.236  20.447  0.00  0.00    +0.000 OA
ATOM     11  C   UNL     1       8.454  14.178  21.216  0.00  0.00    +0.000 A 
ATOM     12  C   UNL     1       7.210  14.306  21.846  0.00  0.00    +0.000 A 
ATOM     13  C   UNL     1       6.738  13.284  22.659  0.00  0.00    +0.000 A 
ATOM     14  C   UNL     1       7.570  12.209  22.918  0.00  0.00    +0.000 A 
ATOM     15  F   UNL     1       7.149  11.232  23.731  0.00  0.00    +0.000 F 
ATOM     16  C   UNL     1       8.820  12.091  22.304  0.00  0.00    +0.000 A 
ATOM     17  C   UNL     1       9.261  13.030  21.351  0.00  0.00    +0.000 A 
ENDBRANCH   2   5
BRANCH   3  18
ATOM     18  C   UNL     1       8.086   9.453  17.698  0.00  0.00    +0.000 C 
BRANCH  18  19
ATOM     19  C   UNL     1       7.781   7.983  17.878  0.00  0.00    +0.000 A 
ATOM     20  C   UNL     1       8.347   7.253  18.930  0.00  0.00    +0.000 A 
ATOM     21  C   UNL     1       8.039   5.902  19.098  0.00  0.00    +0.000 A 
ATOM     22  C   UNL     1       7.148   5.275  18.228  0.00  0.00    +0.000 A 
ATOM     23  C   UNL     1       6.546   5.995  17.188  0.00  0.00    +0.000 A 
ATOM     24  C   UNL     1       6.871   7.348  17.017  0.00  0.00    +0.000 A 
BRANCH  23  25
ATOM     25  C   UNL     1       5.493   5.336  16.325  0.00  0.00    +0.000 C 
BRANCH  25  26
ATOM     26  N   UNL     1       4.353   4.843  17.085  0.00  0.00    +0.000 N 
ATOM     27  C   UNL     1       3.363   5.560  17.699  0.00  0.00    +0.000 A 
ATOM     28  C   UNL     1       2.447   4.624  18.121  0.00  0.00    +0.000 A 
ATOM     29  N   UNL     1       2.888   3.359  17.856  0.00  0.00    +0.000 NA
ATOM     30  C   UNL     1       4.043   3.515  17.248  0.00  0.00    +0.000 A 
ENDBRANCH  25  26
ENDBRANCH  23  25
ENDBRANCH  18  19
ENDBRANCH   3  18
TORSDOF 5
ENDMDL
MODEL 5
REMARK VINA RESULT:      -7.9      3.751      8.796
REMARK  Name = 
REMARK  5 active torsions:
REMARK  status: ('A' for Active; 'I' for Inactive)
REMARK    1  A    between atoms: C_2  and  C_17
REMARK    2  A    between atoms: N_3  and  C_4
REMARK    3  A    between atoms: C_4  and  C_5
REMARK    4  A    between atoms: C_9  and  C_10
REMARK    5  A    between atoms: C_10  and  N_11
REMARK                            x       y       z     vdW  Elec       q    Type
REMARK                         _______ _______ _______ _____ _____    ______ ____
ROOT
ATOM      1  O   UNL     1      -0.480   8.781  21.609  0.00  0.00    +0.000 OA
ATOM      2  C   UNL     1       0.494   9.076  20.931  0.00  0.00    +0.000 C 
ATOM      3  N   UNL     1       1.479   8.222  20.517  0.00  0.00    +0.000 N 
ATOM      4  H   UNL     1       2.301   8.605  20.060  0.00  0.00    +0.000 HD
ENDROOT
BRANCH   2   5
ATOM      5  C   UNL     1       0.755  10.458  20.478  0.00  0.00    +0.000 C 
ATOM      6  C   UNL     1       1.316  11.041  19.239  0.00  0.00    +0.000 C 
ATOM      7  C   UNL     1      -0.181  11.021  19.357  0.00  0.00    +0.000 C 
ATOM      8  C   UNL     1      -0.735  10.220  18.183  0.00  0.00    +0.000 C 
ATOM      9  C   UNL     1      -2.241  10.162  18.171  0.00  0.00    +0.000 C 
ATOM     10  O   UNL     1      -2.861  11.435  18.336  0.00  0.00    +0.000 OA
ATOM     11  C   UNL     1      -2.512  12.025  19.523  0.00  0.00    +0.000 A 
ATOM     12  C   UNL     1      -3.551  12.616  20.254  0.00  0.00    +0.000 A 
ATOM     13  C   UNL     1      -3.273  13.251  21.457  0.00  0.00    +0.000 A 
ATOM     14  C   UNL     1      -1.951  13.383  21.845  0.00  0.00    +0.000 A 
ATOM     15  F   UNL     1      -1.662  14.027  22.983  0.00  0.00    +0.000 F 
ATOM     16  C   UNL     1      -0.915  12.809  21.105  0.00  0.00    +0.000 A 
ATOM     17  C   UNL     1      -1.174  12.022  19.966  0.00  0.00    +0.000 A 
ENDBRANCH   2   5
BRANCH   3  18
ATOM     18  C   UNL     1       1.554   6.829  20.887  0.00  0.00    +0.000 C 
BRANCH  18  19
ATOM     19  C   UNL     1       2.105   5.999  19.750  0.00  0.00    +0.000 A 
ATOM     20  C   UNL     1       1.564   4.745  19.444  0.00  0.00    +0.000 A 
ATOM     21  C   UNL     1       2.066   3.999  18.377  0.00  0.00    +0.000 A 
ATOM     22  C   UNL     1       3.101   4.509  17.594  0.00  0.00    +0.000 A 
ATOM     23  C   UNL     1       3.635   5.776  17.862  0.00  0.00    +0.000 A 
ATOM     24  C   UNL     1       3.134   6.513  18.945  0.00  0.00    +0.000 A 
BRANCH  23  25
ATOM     25  C   UNL     1       4.673   6.369  16.936  0.00  0.00    +0.000 C 
BRANCH  25  26
ATOM     26  N   UNL     1       5.963   5.697  17.012  0.00  0.00    +0.000 N 
ATOM     27  C   UNL     1       6.686   5.366  18.126  0.00  0.00    +0.000 A 
ATOM     28  C   UNL     1       7.731   4.599  17.663  0.00  0.00    +0.000 A 
ATOM     29  N   UNL     1       7.710   4.522  16.299  0.00  0.00    +0.000 NA
ATOM     30  C   UNL     1       6.648   5.202  15.930  0.00  0.00    +0.000 A 
ENDBRANCH  25  26
ENDBRANCH  23  25
ENDBRANCH  18  19
ENDBRANCH   3  18
TORSDOF 5
ENDMDL
MODEL 6
REMARK VINA RESULT:      -7.8      1.245      1.714
REMARK  Name = 
REMARK  5 active torsions:
REMARK  status: ('A' for Active; 'I' for Inactive)
REMARK    1  A    between atoms: C_2  and  C_17
REMARK    2  A    between atoms: N_3  and  C_4
REMARK    3  A    between atoms: C_4  and  C_5
REMARK    4  A    between atoms: C_9  and  C_10
REMARK    5  A    between atoms: C_10  and  N_11
REMARK                            x       y       z     vdW  Elec       q    Type
REMARK                         _______ _______ _______ _____ _____    ______ ____
ROOT
ATOM      1  O   UNL     1       0.733   4.266  20.605  0.00  0.00    +0.000 OA
ATOM      2  C   UNL     1       1.881   4.669  20.728  0.00  0.00    +0.000 C 
ATOM      3  N   UNL     1       2.264   5.963  20.952  0.00  0.00    +0.000 N 
ATOM      4  H   UNL     1       3.252   6.195  20.916  0.00  0.00    +0.000 HD
ENDROOT
BRANCH   2   5
ATOM      5  C   UNL     1       3.050   3.773  20.615  0.00  0.00    +0.000 C 
ATOM      6  C   UNL     1       3.209   2.322  20.370  0.00  0.00    +0.000 C 
ATOM      7  C   UNL     1       3.387   3.229  19.186  0.00  0.00    +0.000 C 
ATOM      8  C   UNL     1       2.362   2.829  18.129  0.00  0.00    +0.000 C 
ATOM      9  C   UNL     1       2.469   3.649  16.868  0.00  0.00    +0.000 C 
ATOM     10  O   UNL     1       3.800   3.748  16.366  0.00  0.00    +0.000 OA
ATOM     11  C   UNL     1       4.648   4.330  17.272  0.00  0.00    +0.000 A 
ATOM     12  C   UNL     1       5.526   5.299  16.770  0.00  0.00    +0.000 A 
ATOM     13  C   UNL     1       6.430   5.918  17.622  0.00  0.00    +0.000 A 
ATOM     14  C   UNL     1       6.517   5.474  18.930  0.00  0.00    +0.000 A 
ATOM     15  F   UNL     1       7.410   6.032  19.756  0.00  0.00    +0.000 F 
ATOM     16  C   UNL     1       5.652   4.494  19.424  0.00  0.00    +0.000 A 
ATOM     17  C   UNL     1       4.619   3.960  18.631  0.00  0.00    +0.000 A 
ENDBRANCH   2   5
BRANCH   3  18
ATOM     18  C   UNL     1       1.353   7.081  21.009  0.00  0.00    +0.000 C 
BRANCH  18  19
ATOM     19  C   UNL     1       1.597   8.032  19.860  0.00  0.00    +0.000 A 
ATOM     20  C   UNL     1       2.369   7.648  18.757  0.00  0.00    +0.000 A 
ATOM     21  C   UNL     1       2.567   8.529  17.692  0.00  0.00    +0.000 A 
ATOM     22  C   UNL     1       1.981   9.793  17.713  0.00  0.00    +0.000 A 
ATOM     23  C   UNL     1       1.180  10.186  18.792  0.00  0.00    +0.000 A 
ATOM     24  C   UNL     1       0.996   9.301  19.864  0.00  0.00    +0.000 A 
BRANCH  23  25
ATOM     25  C   UNL     1       0.453  11.512  18.749  0.00  0.00    +0.000 C 
BRANCH  25  26
ATOM     26  N   UNL     1      -0.080  11.918  20.042  0.00  0.00    +0.000 N 
ATOM     27  C   UNL     1      -1.338  11.724  20.544  0.00  0.00    +0.000 A 
ATOM     28  C   UNL     1      -1.271  12.135  21.855  0.00  0.00    +0.000 A 
ATOM     29  N   UNL     1      -0.038  12.648  22.142  0.00  0.00    +0.000 NA
ATOM     30  C   UNL     1       0.656  12.521  21.032  0.00  0.00    +0.000 A 
ENDBRANCH  25  26
ENDBRANCH  23  25
ENDBRANCH  18  19
ENDBRANCH   3  18
TORSDOF 5
ENDMDL
MODEL 7
REMARK VINA RESULT:      -7.8      4.485      8.167
REMARK  Name = 
REMARK  5 active torsions:
REMARK  status: ('A' for Active; 'I' for Inactive)
REMARK    1  A    between atoms: C_2  and  C_17
REMARK    2  A    between atoms: N_3  and  C_4
REMARK    3  A    between atoms: C_4  and  C_5
REMARK    4  A    between atoms: C_9  and  C_10
REMARK    5  A    between atoms: C_10  and  N_11
REMARK                            x       y       z     vdW  Elec       q    Type
REMARK                         _______ _______ _______ _____ _____    ______ ____
ROOT
ATOM      1  O   UNL     1      -2.698   9.778  18.036  0.00  0.00    +0.000 OA
ATOM      2  C   UNL     1      -2.449  10.946  17.771  0.00  0.00    +0.000 C 
ATOM      3  N   UNL     1      -3.344  11.884  17.335  0.00  0.00    +0.000 N 
ATOM      4  H   UNL     1      -2.998  12.788  17.032  0.00  0.00    +0.000 HD
ENDROOT
BRANCH   2   5
ATOM      5  C   UNL     1      -1.085  11.505  17.864  0.00  0.00    +0.000 C 
ATOM      6  C   UNL     1      -0.523  12.740  18.454  0.00  0.00    +0.000 C 
ATOM      7  C   UNL     1      -0.411  11.489  19.276  0.00  0.00    +0.000 C 
ATOM      8  C   UNL     1      -1.128  11.730  20.601  0.00  0.00    +0.000 C 
ATOM      9  C   UNL     1      -1.050  10.549  21.534  0.00  0.00    +0.000 C 
ATOM     10  O   UNL     1       0.270  10.030  21.686  0.00  0.00    +0.000 OA
ATOM     11  C   UNL     1       0.794   9.607  20.492  0.00  0.00    +0.000 A 
ATOM     12  C   UNL     1       1.457   8.374  20.505  0.00  0.00    +0.000 A 
ATOM     13  C   UNL     1       2.033   7.888  19.339  0.00  0.00    +0.000 A 
ATOM     14  C   UNL     1       2.036   8.697  18.216  0.00  0.00    +0.000 A 
ATOM     15  F   UNL     1       2.621   8.262  17.093  0.00  0.00    +0.000 F 
ATOM     16  C   UNL     1       1.390   9.936  18.210  0.00  0.00    +0.000 A 
ATOM     17  C   UNL     1       0.660  10.388  19.326  0.00  0.00    +0.000 A 
ENDBRANCH   2   5
BRANCH   3  18
ATOM     18  C   UNL     1      -4.733  11.611  17.051  0.00  0.00    +0.000 C 
BRANCH  18  19
ATOM     19  C   UNL     1      -5.549  11.592  18.323  0.00  0.00    +0.000 A 
ATOM     20  C   UNL     1      -6.466  10.565  18.577  0.00  0.00    +0.000 A 
ATOM     21  C   UNL     1      -7.197  10.548  19.766  0.00  0.00    +0.000 A 
ATOM     22  C   UNL     1      -7.003  11.545  20.720  0.00  0.00    +0.000 A 
ATOM     23  C   UNL     1      -6.067  12.564  20.501  0.00  0.00    +0.000 A 
ATOM     24  C   UNL     1      -5.346  12.583  19.298  0.00  0.00    +0.000 A 
BRANCH  23  25
ATOM     25  C   UNL     1      -5.779  13.571  21.592  0.00  0.00    +0.000 C 
BRANCH  25  26
ATOM     26  N   UNL     1      -5.112  12.991  22.749  0.00  0.00    +0.000 N 
ATOM     27  C   UNL     1      -3.785  12.700  22.911  0.00  0.00    +0.000 A 
ATOM     28  C   UNL     1      -3.653  12.338  24.231  0.00  0.00    +0.000 A 
ATOM     29  N   UNL     1      -4.868  12.321  24.855  0.00  0.00    +0.000 NA
ATOM     30  C   UNL     1      -5.732  12.702  23.940  0.00  0.00    +0.000 A 
ENDBRANCH  25  26
ENDBRANCH  23  25
ENDBRANCH  18  19
ENDBRANCH   3  18
TORSDOF 5
ENDMDL
MODEL 8
REMARK VINA RESULT:      -7.8      5.004      7.149
REMARK  Name = 
REMARK  5 active torsions:
REMARK  status: ('A' for Active; 'I' for Inactive)
REMARK    1  A    between atoms: C_2  and  C_17
REMARK    2  A    between atoms: N_3  and  C_4
REMARK    3  A    between atoms: C_4  and  C_5
REMARK    4  A    between atoms: C_9  and  C_10
REMARK    5  A    between atoms: C_10  and  N_11
REMARK                            x       y       z     vdW  Elec       q    Type
REMARK                         _______ _______ _______ _____ _____    ______ ____
ROOT
ATOM      1  O   UNL     1       7.778   5.682  17.516  0.00  0.00    +0.000 OA
ATOM      2  C   UNL     1       7.149   6.708  17.298  0.00  0.00    +0.000 C 
ATOM      3  N   UNL     1       7.473   7.963  17.734  0.00  0.00    +0.000 N 
ATOM      4  H   UNL     1       6.810   8.718  17.592  0.00  0.00    +0.000 HD
ENDROOT
BRANCH   2   5
ATOM      5  C   UNL     1       5.889   6.715  16.526  0.00  0.00    +0.000 C 
ATOM      6  C   UNL     1       5.326   5.835  15.478  0.00  0.00    +0.000 C 
ATOM      7  C   UNL     1       4.839   5.609  16.880  0.00  0.00    +0.000 C 
ATOM      8  C   UNL     1       5.167   4.170  17.266  0.00  0.00    +0.000 C 
ATOM      9  C   UNL     1       4.688   3.809  18.649  0.00  0.00    +0.000 C 
ATOM     10  O   UNL     1       3.331   4.171  18.893  0.00  0.00    +0.000 OA
ATOM     11  C   UNL     1       3.128   5.520  18.760  0.00  0.00    +0.000 A 
ATOM     12  C   UNL     1       2.353   6.134  19.751  0.00  0.00    +0.000 A 
ATOM     13  C   UNL     1       2.086   7.495  19.674  0.00  0.00    +0.000 A 
ATOM     14  C   UNL     1       2.499   8.187  18.549  0.00  0.00    +0.000 A 
ATOM     15  F   UNL     1       2.216   9.491  18.438  0.00  0.00    +0.000 F 
ATOM     16  C   UNL     1       3.256   7.567  17.551  0.00  0.00    +0.000 A 
ATOM     17  C   UNL     1       3.681   6.231  17.676  0.00  0.00    +0.000 A 
ENDBRANCH   2   5
BRANCH   3  18
ATOM     18  C   UNL     1       8.593   8.259  18.595  0.00  0.00    +0.000 C 
BRANCH  18  19
ATOM     19  C   UNL     1       8.804   9.751  18.708  0.00  0.00    +0.000 A 
ATOM     20  C   UNL     1       8.552  10.600  17.624  0.00  0.00    +0.000 A 
ATOM     21  C   UNL     1       8.729  11.979  17.749  0.00  0.00    +0.000 A 
ATOM     22  C   UNL     1       9.141  12.523  18.964  0.00  0.00    +0.000 A 
ATOM     23  C   UNL     1       9.368  11.695  20.071  0.00  0.00    +0.000 A 
ATOM     24  C   UNL     1       9.201  10.310  19.934  0.00  0.00    +0.000 A 
BRANCH  23  25
ATOM     25  C   UNL     1       9.698  12.306  21.415  0.00  0.00    +0.000 C 
BRANCH  25  26
ATOM     26  N   UNL     1       8.542  12.428  22.291  0.00  0.00    +0.000 N 
ATOM     27  C   UNL     1       8.165  11.613  23.323  0.00  0.00    +0.000 A 
ATOM     28  C   UNL     1       7.113  12.260  23.930  0.00  0.00    +0.000 A 
ATOM     29  N   UNL     1       6.788  13.400  23.252  0.00  0.00    +0.000 NA
ATOM     30  C   UNL     1       7.650  13.472  22.262  0.00  0.00    +0.000 A 
ENDBRANCH  25  26
ENDBRANCH  23  25
ENDBRANCH  18  19
ENDBRANCH   3  18
TORSDOF 5
ENDMDL
MODEL 9
REMARK VINA RESULT:      -7.8      4.005      9.060
REMARK  Name = 
REMARK  5 active torsions:
REMARK  status: ('A' for Active; 'I' for Inactive)
REMARK    1  A    between atoms: C_2  and  C_17
REMARK    2  A    between atoms: N_3  and  C_4
REMARK    3  A    between atoms: C_4  and  C_5
REMARK    4  A    between atoms: C_9  and  C_10
REMARK    5  A    between atoms: C_10  and  N_11
REMARK                            x       y       z     vdW  Elec       q    Type
REMARK                         _______ _______ _______ _____ _____    ______ ____
ROOT
ATOM      1  O   UNL     1       2.170  11.249  18.669  0.00  0.00    +0.000 OA
ATOM      2  C   UNL     1       1.256  10.470  18.436  0.00  0.00    +0.000 C 
ATOM      3  N   UNL     1       1.383   9.189  17.974  0.00  0.00    +0.000 N 
ATOM      4  H   UNL     1       0.547   8.680  17.704  0.00  0.00    +0.000 HD
ENDROOT
BRANCH   2   5
ATOM      5  C   UNL     1      -0.164  10.843  18.605  0.00  0.00    +0.000 C 
ATOM      6  C   UNL     1      -1.397  10.077  18.888  0.00  0.00    +0.000 C 
ATOM      7  C   UNL     1      -0.747  10.761  20.055  0.00  0.00    +0.000 C 
ATOM      8  C   UNL     1      -0.396   9.696  21.090  0.00  0.00    +0.000 C 
ATOM      9  C   UNL     1       0.232  10.271  22.334  0.00  0.00    +0.000 C 
ATOM     10  O   UNL     1      -0.486  11.378  22.874  0.00  0.00    +0.000 OA
ATOM     11  C   UNL     1      -0.579  12.413  21.982  0.00  0.00    +0.000 A 
ATOM     12  C   UNL     1      -0.334  13.696  22.488  0.00  0.00    +0.000 A 
ATOM     13  C   UNL     1      -0.430  14.798  21.649  0.00  0.00    +0.000 A 
ATOM     14  C   UNL     1      -0.882  14.608  20.355  0.00  0.00    +0.000 A 
ATOM     15  F   UNL     1      -1.018  15.664  19.544  0.00  0.00    +0.000 F 
ATOM     16  C   UNL     1      -1.144  13.329  19.857  0.00  0.00    +0.000 A 
ATOM     17  C   UNL     1      -0.904  12.177  20.631  0.00  0.00    +0.000 A 
ENDBRANCH   2   5
BRANCH   3  18
ATOM     18  C   UNL     1       2.640   8.576  17.618  0.00  0.00    +0.000 C 
BRANCH  18  19
ATOM     19  C   UNL     1       2.797   7.236  18.301  0.00  0.00    +0.000 A 
ATOM     20  C   UNL     1       2.228   6.996  19.557  0.00  0.00    +0.000 A 
ATOM     21  C   UNL     1       2.362   5.747  20.166  0.00  0.00    +0.000 A 
ATOM     22  C   UNL     1       3.048   4.723  19.517  0.00  0.00    +0.000 A 
ATOM     23  C   UNL     1       3.597   4.932  18.245  0.00  0.00    +0.000 A 
ATOM     24  C   UNL     1       3.471   6.193  17.645  0.00  0.00    +0.000 A 
BRANCH  23  25
ATOM     25  C   UNL     1       4.236   3.780  17.500  0.00  0.00    +0.000 C 
BRANCH  25  26
ATOM     26  N   UNL     1       5.489   4.139  16.852  0.00  0.00    +0.000 N 
ATOM     27  C   UNL     1       5.770   4.199  15.514  0.00  0.00    +0.000 A 
ATOM     28  C   UNL     1       7.027   4.753  15.433  0.00  0.00    +0.000 A 
ATOM     29  N   UNL     1       7.550   4.955  16.679  0.00  0.00    +0.000 NA
ATOM     30  C   UNL     1       6.614   4.564  17.515  0.00  0.00    +0.000 A 
ENDBRANCH  25  26
ENDBRANCH  23  25
ENDBRANCH  18  19
ENDBRANCH   3  18
TORSDOF 5
ENDMDL
