MODEL 1
REMARK VINA RESULT:      -8.5      0.000      0.000
REMARK  Name = 
REMARK  6 active torsions:
REMARK  status: ('A' for Active; 'I' for Inactive)
REMARK    1  A    between atoms: C_1  and  C_2
REMARK    2  A    between atoms: C_2  and  C_3
REMARK    3  A    between atoms: N_16  and  C_17
REMARK    4  A    between atoms: C_17  and  C_18
REMARK    5  A    between atoms: C_18  and  C_19
REMARK    6  A    between atoms: N_21  and  C_22
REMARK                            x       y       z     vdW  Elec       q    Type
REMARK                         _______ _______ _______ _____ _____    ______ ____
ROOT
ATOM      1  C   UNL     1       3.959   1.901  18.322  0.00  0.00    +0.000 C 
ATOM      2  C   UNL     1       3.830   3.399  18.537  0.00  0.00    +0.000 C 
ATOM      3  N   UNL     1       3.353   3.711  19.884  0.00  0.00    +0.000 N 
ATOM      4  C   UNL     1       2.550   4.833  19.878  0.00  0.00    +0.000 C 
ATOM      5  O   UNL     1       2.282   5.480  20.874  0.00  0.00    +0.000 OA
ATOM      6  N   UNL     1       2.137   5.044  18.603  0.00  0.00    +0.000 N 
ATOM      7  C   UNL     1       2.608   4.031  17.820  0.00  0.00    +0.000 C 
ATOM      8  O   UNL     1       2.143   3.711  16.734  0.00  0.00    +0.000 OA
ATOM      9  H   UNL     1       3.839   3.485  20.740  0.00  0.00    +0.000 HD
ENDROOT
BRANCH   2  10
ATOM     10  C   UNL     1       5.171   4.131  18.247  0.00  0.00    +0.000 A 
ATOM     11  C   UNL     1       5.845   4.709  19.351  0.00  0.00    +0.000 A 
ATOM     12  C   UNL     1       6.999   5.469  19.195  0.00  0.00    +0.000 A 
ATOM     13  C   UNL     1       7.519   5.676  17.928  0.00  0.00    +0.000 A 
ATOM     14  C   UNL     1       6.923   5.096  16.805  0.00  0.00    +0.000 A 
ATOM     15  C   UNL     1       7.497   5.339  15.545  0.00  0.00    +0.000 A 
ATOM     16  C   UNL     1       6.968   4.779  14.388  0.00  0.00    +0.000 A 
ATOM     17  C   UNL     1       5.882   3.929  14.490  0.00  0.00    +0.000 A 
ATOM     18  C   UNL     1       5.318   3.663  15.744  0.00  0.00    +0.000 A 
ATOM     19  C   UNL     1       5.766   4.275  16.941  0.00  0.00    +0.000 A 
ENDBRANCH   2  10
BRANCH   6  20
ATOM     20  C   UNL     1       1.524   6.255  18.108  0.00  0.00    +0.000 C 
BRANCH  20  21
ATOM     21  C   UNL     1       2.456   7.448  17.932  0.00  0.00    +0.000 C 
BRANCH  21  22
ATOM     22  C   UNL     1       1.889   8.615  18.721  0.00  0.00    +0.000 C 
ATOM     23  O   UNL     1       2.004   9.770  18.322  0.00  0.00    +0.000 OA
ATOM     24  N   UNL     1       1.268   8.230  19.896  0.00  0.00    +0.000 N 
ATOM     25  H   UNL     1       1.371   7.263  20.179  0.00  0.00    +0.000 HD
BRANCH  24  26
ATOM     26  C   UNL     1       0.651   9.100  20.821  0.00  0.00    +0.000 A 
ATOM     27  C   UNL     1       0.730   8.929  22.209  0.00  0.00    +0.000 A 
ATOM     28  C   UNL     1       0.051   9.792  23.073  0.00  0.00    +0.000 A 
ATOM     29  C   UNL     1      -0.701  10.831  22.549  0.00  0.00    +0.000 A 
ATOM     30  F   UNL     1      -1.371  11.644  23.375  0.00  0.00    +0.000 F 
ATOM     31  C   UNL     1      -0.768  11.039  21.177  0.00  0.00    +0.000 A 
ATOM     32  C   UNL     1      -0.081  10.181  20.312  0.00  0.00    +0.000 A 
ENDBRANCH  24  26
ENDBRANCH  21  22
ENDBRANCH  20  21
ENDBRANCH   6  20
TORSDOF 5
ENDMDL
MODEL 2
REMARK VINA RESULT:      -8.2      1.169      1.450
REMARK  Name = 
REMARK  6 active torsions:
REMARK  status: ('A' for Active; 'I' for Inactive)
REMARK    1  A    between atoms: C_1  and  C_2
REMARK    2  A    between atoms: C_2  and  C_3
REMARK    3  A    between atoms: N_16  and  C_17
REMARK    4  A    between atoms: C_17  and  C_18
REMARK    5  A    between atoms: C_18  and  C_19
REMARK    6  A    between atoms: N_21  and  C_22
REMARK                            x       y       z     vdW  Elec       q    Type
REMARK                         _______ _______ _______ _____ _____    ______ ____
ROOT
ATOM      1  C   UNL     1       3.739   2.006  18.153  0.00  0.00    +0.000 C 
ATOM      2  C   UNL     1       3.721   3.463  18.583  0.00  0.00    +0.000 C 
ATOM      3  N   UNL     1       3.368   3.603  19.996  0.00  0.00    +0.000 N 
ATOM      4  C   UNL     1       2.638   4.755  20.212  0.00  0.00    +0.000 C 
ATOM      5  O   UNL     1       2.487   5.266  21.307  0.00  0.00    +0.000 OA
ATOM      6  N   UNL     1       2.144   5.167  19.018  0.00  0.00    +0.000 N 
ATOM      7  C   UNL     1       2.491   4.253  18.065  0.00  0.00    +0.000 C 
ATOM      8  O   UNL     1       1.926   4.115  16.988  0.00  0.00    +0.000 OA
ATOM      9  H   UNL     1       3.902   3.233  20.768  0.00  0.00    +0.000 HD
ENDROOT
BRANCH   2  10
ATOM     10  C   UNL     1       5.079   4.159  18.286  0.00  0.00    +0.000 A 
ATOM     11  C   UNL     1       5.779   4.711  19.388  0.00  0.00    +0.000 A 
ATOM     12  C   UNL     1       6.951   5.440  19.227  0.00  0.00    +0.000 A 
ATOM     13  C   UNL     1       7.467   5.639  17.956  0.00  0.00    +0.000 A 
ATOM     14  C   UNL     1       6.846   5.083  16.835  0.00  0.00    +0.000 A 
ATOM     15  C   UNL     1       7.417   5.317  15.572  0.00  0.00    +0.000 A 
ATOM     16  C   UNL     1       6.863   4.778  14.417  0.00  0.00    +0.000 A 
ATOM     17  C   UNL     1       5.754   3.959  14.523  0.00  0.00    +0.000 A 
ATOM     18  C   UNL     1       5.193   3.702  15.779  0.00  0.00    +0.000 A 
ATOM     19  C   UNL     1       5.667   4.294  16.976  0.00  0.00    +0.000 A 
ENDBRANCH   2  10
BRANCH   6  20
ATOM     20  C   UNL     1       1.573   6.466  18.748  0.00  0.00    +0.000 C 
BRANCH  20  21
ATOM     21  C   UNL     1       2.528   7.507  18.175  0.00  0.00    +0.000 C 
BRANCH  21  22
ATOM     22  C   UNL     1       1.856   8.865  18.261  0.00  0.00    +0.000 C 
ATOM     23  O   UNL     1       2.034   9.720  17.398  0.00  0.00    +0.000 OA
ATOM     24  N   UNL     1       1.068   9.016  19.389  0.00  0.00    +0.000 N 
ATOM     25  H   UNL     1       1.124   8.290  20.093  0.00  0.00    +0.000 HD
BRANCH  24  26
ATOM     26  C   UNL     1       0.326  10.170  19.723  0.00  0.00    +0.000 A 
ATOM     27  C   UNL     1      -0.918  10.476  19.157  0.00  0.00    +0.000 A 
ATOM     28  C   UNL     1      -1.579  11.662  19.486  0.00  0.00    +0.000 A 
ATOM     29  C   UNL     1      -0.998  12.540  20.388  0.00  0.00    +0.000 A 
ATOM     30  F   UNL     1      -1.618  13.688  20.685  0.00  0.00    +0.000 F 
ATOM     31  C   UNL     1       0.221  12.243  20.985  0.00  0.00    +0.000 A 
ATOM     32  C   UNL     1       0.879  11.051  20.662  0.00  0.00    +0.000 A 
ENDBRANCH  24  26
ENDBRANCH  21  22
ENDBRANCH  20  21
ENDBRANCH   6  20
TORSDOF 5
ENDMDL
MODEL 3
REMARK VINA RESULT:      -8.2      3.832      9.449
REMARK  Name = 
REMARK  6 active torsions:
REMARK  status: ('A' for Active; 'I' for Inactive)
REMARK    1  A    between atoms: C_1  and  C_2
REMARK    2  A    between atoms: C_2  and  C_3
REMARK    3  A    between atoms: N_16  and  C_17
REMARK    4  A    between atoms: C_17  and  C_18
REMARK    5  A    between atoms: C_18  and  C_19
REMARK    6  A    between atoms: N_21  and  C_22
REMARK                            x       y       z     vdW  Elec       q    Type
REMARK                         _______ _______ _______ _____ _____    ______ ____
ROOT
ATOM      1  C   UNL     1      -1.021  13.898  20.042  0.00  0.00    +0.000 C 
ATOM      2  C   UNL     1      -0.956  12.413  20.353  0.00  0.00    +0.000 C 
ATOM      3  N   UNL     1      -1.528  12.111  21.665  0.00  0.00    +0.000 N 
ATOM      4  C   UNL     1      -0.859  11.066  22.269  0.00  0.00    +0.000 C 
ATOM      5  O   UNL     1      -1.308  10.421  23.199  0.00  0.00    +0.000 OA
ATOM      6  N   UNL     1       0.341  10.926  21.651  0.00  0.00    +0.000 N 
ATOM      7  C   UNL     1       0.467  11.912  20.716  0.00  0.00    +0.000 C 
ATOM      8  O   UNL     1       1.528  12.301  20.247  0.00  0.00    +0.000 OA
ATOM      9  H   UNL     1      -2.489  12.270  21.930  0.00  0.00    +0.000 HD
ENDROOT
BRANCH   2  10
ATOM     10  C   UNL     1      -1.649  11.571  19.245  0.00  0.00    +0.000 A 
ATOM     11  C   UNL     1      -0.844  10.647  18.534  0.00  0.00    +0.000 A 
ATOM     12  C   UNL     1      -1.335   9.913  17.460  0.00  0.00    +0.000 A 
ATOM     13  C   UNL     1      -2.651  10.078  17.062  0.00  0.00    +0.000 A 
ATOM     14  C   UNL     1      -3.507  10.943  17.750  0.00  0.00    +0.000 A 
ATOM     15  C   UNL     1      -4.833  11.066  17.301  0.00  0.00    +0.000 A 
ATOM     16  C   UNL     1      -5.742  11.892  17.949  0.00  0.00    +0.000 A 
ATOM     17  C   UNL     1      -5.342  12.569  19.087  0.00  0.00    +0.000 A 
ATOM     18  C   UNL     1      -4.030  12.433  19.554  0.00  0.00    +0.000 A 
ATOM     19  C   UNL     1      -3.041  11.672  18.882  0.00  0.00    +0.000 A 
ENDBRANCH   2  10
BRANCH   6  20
ATOM     20  C   UNL     1       1.222   9.788  21.777  0.00  0.00    +0.000 C 
BRANCH  20  21
ATOM     21  C   UNL     1       0.654   8.452  21.313  0.00  0.00    +0.000 C 
BRANCH  21  22
ATOM     22  C   UNL     1       1.505   7.949  20.161  0.00  0.00    +0.000 C 
ATOM     23  O   UNL     1       1.846   8.695  19.248  0.00  0.00    +0.000 OA
ATOM     24  N   UNL     1       1.819   6.605  20.259  0.00  0.00    +0.000 N 
ATOM     25  H   UNL     1       1.354   6.072  20.983  0.00  0.00    +0.000 HD
BRANCH  24  26
ATOM     26  C   UNL     1       2.598   5.875  19.335  0.00  0.00    +0.000 A 
ATOM     27  C   UNL     1       3.969   6.088  19.145  0.00  0.00    +0.000 A 
ATOM     28  C   UNL     1       4.675   5.373  18.175  0.00  0.00    +0.000 A 
ATOM     29  C   UNL     1       4.010   4.437  17.398  0.00  0.00    +0.000 A 
ATOM     30  F   UNL     1       4.680   3.768  16.451  0.00  0.00    +0.000 F 
ATOM     31  C   UNL     1       2.657   4.187  17.589  0.00  0.00    +0.000 A 
ATOM     32  C   UNL     1       1.952   4.897  18.567  0.00  0.00    +0.000 A 
ENDBRANCH  24  26
ENDBRANCH  21  22
ENDBRANCH  20  21
ENDBRANCH   6  20
TORSDOF 5
ENDMDL
MODEL 4
REMARK VINA RESULT:      -8.1      3.745      9.449
REMARK  Name = 
REMARK  6 active torsions:
REMARK  status: ('A' for Active; 'I' for Inactive)
REMARK    1  A    between atoms: C_1  and  C_2
REMARK    2  A    between atoms: C_2  and  C_3
REMARK    3  A    between atoms: N_16  and  C_17
REMARK    4  A    between atoms: C_17  and  C_18
REMARK    5  A    between atoms: C_18  and  C_19
REMARK    6  A    between atoms: N_21  and  C_22
REMARK                            x       y       z     vdW  Elec       q    Type
REMARK                         _______ _______ _______ _____ _____    ______ ____
ROOT
ATOM      1  C   UNL     1      -0.289  14.132  20.487  0.00  0.00    +0.000 C 
ATOM      2  C   UNL     1      -0.860  12.754  20.774  0.00  0.00    +0.000 C 
ATOM      3  N   UNL     1      -0.926  12.487  22.210  0.00  0.00    +0.000 N 
ATOM      4  C   UNL     1      -0.695  11.152  22.477  0.00  0.00    +0.000 C 
ATOM      5  O   UNL     1      -0.992  10.609  23.525  0.00  0.00    +0.000 OA
ATOM      6  N   UNL     1      -0.093  10.607  21.390  0.00  0.00    +0.000 N 
ATOM      7  C   UNL     1       0.125  11.594  20.473  0.00  0.00    +0.000 C 
ATOM      8  O   UNL     1       0.946  11.539  19.567  0.00  0.00    +0.000 OA
ATOM      9  H   UNL     1      -1.476  13.011  22.874  0.00  0.00    +0.000 HD
ENDROOT
BRANCH   2  10
ATOM     10  C   UNL     1      -2.257  12.572  20.117  0.00  0.00    +0.000 A 
ATOM     11  C   UNL     1      -3.345  13.262  20.707  0.00  0.00    +0.000 A 
ATOM     12  C   UNL     1      -4.652  13.095  20.264  0.00  0.00    +0.000 A 
ATOM     13  C   UNL     1      -4.915  12.233  19.212  0.00  0.00    +0.000 A 
ATOM     14  C   UNL     1      -3.880  11.557  18.562  0.00  0.00    +0.000 A 
ATOM     15  C   UNL     1      -4.209  10.697  17.499  0.00  0.00    +0.000 A 
ATOM     16  C   UNL     1      -3.227  10.008  16.796  0.00  0.00    +0.000 A 
ATOM     17  C   UNL     1      -1.899  10.212  17.122  0.00  0.00    +0.000 A 
ATOM     18  C   UNL     1      -1.562  11.085  18.164  0.00  0.00    +0.000 A 
ATOM     19  C   UNL     1      -2.526  11.744  18.967  0.00  0.00    +0.000 A 
ENDBRANCH   2  10
BRANCH   6  20
ATOM     20  C   UNL     1       0.062   9.193  21.136  0.00  0.00    +0.000 C 
BRANCH  20  21
ATOM     21  C   UNL     1       1.419   8.599  21.494  0.00  0.00    +0.000 C 
BRANCH  21  22
ATOM     22  C   UNL     1       1.769   7.553  20.451  0.00  0.00    +0.000 C 
ATOM     23  O   UNL     1       1.984   7.864  19.284  0.00  0.00    +0.000 OA
ATOM     24  N   UNL     1       1.800   6.265  20.957  0.00  0.00    +0.000 N 
ATOM     25  H   UNL     1       1.461   6.130  21.901  0.00  0.00    +0.000 HD
BRANCH  24  26
ATOM     26  C   UNL     1       2.099   5.100  20.217  0.00  0.00    +0.000 A 
ATOM     27  C   UNL     1       3.358   4.845  19.658  0.00  0.00    +0.000 A 
ATOM     28  C   UNL     1       3.578   3.701  18.888  0.00  0.00    +0.000 A 
ATOM     29  C   UNL     1       2.539   2.806  18.682  0.00  0.00    +0.000 A 
ATOM     30  F   UNL     1       2.742   1.721  17.924  0.00  0.00    +0.000 F 
ATOM     31  C   UNL     1       1.291   3.023  19.252  0.00  0.00    +0.000 A 
ATOM     32  C   UNL     1       1.073   4.164  20.030  0.00  0.00    +0.000 A 
ENDBRANCH  24  26
ENDBRANCH  21  22
ENDBRANCH  20  21
ENDBRANCH   6  20
TORSDOF 5
ENDMDL
MODEL 5
REMARK VINA RESULT:      -8.1      0.811      1.154
REMARK  Name = 
REMARK  6 active torsions:
REMARK  status: ('A' for Active; 'I' for Inactive)
REMARK    1  A    between atoms: C_1  and  C_2
REMARK    2  A    between atoms: C_2  and  C_3
REMARK    3  A    between atoms: N_16  and  C_17
REMARK    4  A    between atoms: C_17  and  C_18
REMARK    5  A    between atoms: C_18  and  C_19
REMARK    6  A    between atoms: N_21  and  C_22
REMARK                            x       y       z     vdW  Elec       q    Type
REMARK                         _______ _______ _______ _____ _____    ______ ____
ROOT
ATOM      1  C   UNL     1       3.697   2.554  18.844  0.00  0.00    +0.000 C 
ATOM      2  C   UNL     1       3.696   4.071  18.769  0.00  0.00    +0.000 C 
ATOM      3  N   UNL     1       3.257   4.673  20.027  0.00  0.00    +0.000 N 
ATOM      4  C   UNL     1       2.550   5.838  19.800  0.00  0.00    +0.000 C 
ATOM      5  O   UNL     1       2.345   6.683  20.652  0.00  0.00    +0.000 OA
ATOM      6  N   UNL     1       2.148   5.836  18.505  0.00  0.00    +0.000 N 
ATOM      7  C   UNL     1       2.527   4.655  17.933  0.00  0.00    +0.000 C 
ATOM      8  O   UNL     1       2.029   4.174  16.924  0.00  0.00    +0.000 OA
ATOM      9  H   UNL     1       3.727   4.574  20.915  0.00  0.00    +0.000 HD
ENDROOT
BRANCH   2  10
ATOM     10  C   UNL     1       5.092   4.619  18.357  0.00  0.00    +0.000 A 
ATOM     11  C   UNL     1       5.892   5.187  19.380  0.00  0.00    +0.000 A 
ATOM     12  C   UNL     1       7.113   5.794  19.109  0.00  0.00    +0.000 A 
ATOM     13  C   UNL     1       7.577   5.852  17.806  0.00  0.00    +0.000 A 
ATOM     14  C   UNL     1       6.853   5.272  16.760  0.00  0.00    +0.000 A 
ATOM     15  C   UNL     1       7.376   5.360  15.458  0.00  0.00    +0.000 A 
ATOM     16  C   UNL     1       6.719   4.789  14.375  0.00  0.00    +0.000 A 
ATOM     17  C   UNL     1       5.551   4.082  14.594  0.00  0.00    +0.000 A 
ATOM     18  C   UNL     1       5.036   3.970  15.891  0.00  0.00    +0.000 A 
ATOM     19  C   UNL     1       5.621   4.604  17.016  0.00  0.00    +0.000 A 
ENDBRANCH   2  10
BRANCH   6  20
ATOM     20  C   UNL     1       1.636   6.977  17.782  0.00  0.00    +0.000 C 
BRANCH  20  21
ATOM     21  C   UNL     1       2.316   8.310  18.076  0.00  0.00    +0.000 C 
BRANCH  21  22
ATOM     22  C   UNL     1       1.290   9.237  18.702  0.00  0.00    +0.000 C 
ATOM     23  O   UNL     1       0.469   9.837  18.014  0.00  0.00    +0.000 OA
ATOM     24  N   UNL     1       1.402   9.328  20.078  0.00  0.00    +0.000 N 
ATOM     25  H   UNL     1       2.213   8.898  20.506  0.00  0.00    +0.000 HD
BRANCH  24  26
ATOM     26  C   UNL     1       0.581  10.111  20.919  0.00  0.00    +0.000 A 
ATOM     27  C   UNL     1       0.313  11.466  20.687  0.00  0.00    +0.000 A 
ATOM     28  C   UNL     1      -0.462  12.204  21.585  0.00  0.00    +0.000 A 
ATOM     29  C   UNL     1      -0.976  11.583  22.713  0.00  0.00    +0.000 A 
ATOM     30  F   UNL     1      -1.698  12.295  23.587  0.00  0.00    +0.000 F 
ATOM     31  C   UNL     1      -0.749  10.233  22.948  0.00  0.00    +0.000 A 
ATOM     32  C   UNL     1       0.020   9.492  22.044  0.00  0.00    +0.000 A 
ENDBRANCH  24  26
ENDBRANCH  21  22
ENDBRANCH  20  21
ENDBRANCH   6  20
TORSDOF 5
ENDMDL
MODEL 6
REMARK VINA RESULT:      -8.1      3.688      9.435
REMARK  Name = 
REMARK  6 active torsions:
REMARK  status: ('A' for Active; 'I' for Inactive)
REMARK    1  A    between atoms: C_1  and  C_2
REMARK    2  A    between atoms: C_2  and  C_3
REMARK    3  A    between atoms: N_16  and  C_17
REMARK    4  A    between atoms: C_17  and  C_18
REMARK    5  A    between atoms: C_18  and  C_19
REMARK    6  A    between atoms: N_21  and  C_22
REMARK                            x       y       z     vdW  Elec       q    Type
REMARK                         _______ _______ _______ _____ _____    ______ ____
ROOT
ATOM      1  C   UNL     1       0.147  13.122  19.081  0.00  0.00    +0.000 C 
ATOM      2  C   UNL     1      -0.068  11.629  19.260  0.00  0.00    +0.000 C 
ATOM      3  N   UNL     1      -0.066  11.249  20.673  0.00  0.00    +0.000 N 
ATOM      4  C   UNL     1       0.485   9.996  20.849  0.00  0.00    +0.000 C 
ATOM      5  O   UNL     1       0.332   9.323  21.851  0.00  0.00    +0.000 OA
ATOM      6  N   UNL     1       1.202   9.695  19.737  0.00  0.00    +0.000 N 
ATOM      7  C   UNL     1       1.170  10.770  18.895  0.00  0.00    +0.000 C 
ATOM      8  O   UNL     1       1.979  10.983  18.002  0.00  0.00    +0.000 OA
ATOM      9  H   UNL     1      -0.727  11.573  21.363  0.00  0.00    +0.000 HD
ENDROOT
BRANCH   2  10
ATOM     10  C   UNL     1      -1.379  11.158  18.569  0.00  0.00    +0.000 A 
ATOM     11  C   UNL     1      -1.257  10.198  17.535  0.00  0.00    +0.000 A 
ATOM     12  C   UNL     1      -2.350   9.779  16.784  0.00  0.00    +0.000 A 
ATOM     13  C   UNL     1      -3.604  10.307  17.044  0.00  0.00    +0.000 A 
ATOM     14  C   UNL     1      -3.795  11.226  18.079  0.00  0.00    +0.000 A 
ATOM     15  C   UNL     1      -5.091  11.724  18.298  0.00  0.00    +0.000 A 
ATOM     16  C   UNL     1      -5.356  12.626  19.322  0.00  0.00    +0.000 A 
ATOM     17  C   UNL     1      -4.330  13.001  20.169  0.00  0.00    +0.000 A 
ATOM     18  C   UNL     1      -3.041  12.491  19.973  0.00  0.00    +0.000 A 
ATOM     19  C   UNL     1      -2.700  11.637  18.894  0.00  0.00    +0.000 A 
ENDBRANCH   2  10
BRANCH   6  20
ATOM     20  C   UNL     1       1.698   8.384  19.386  0.00  0.00    +0.000 C 
BRANCH  20  21
ATOM     21  C   UNL     1       2.194   8.222  17.954  0.00  0.00    +0.000 C 
BRANCH  21  22
ATOM     22  C   UNL     1       2.967   6.920  17.864  0.00  0.00    +0.000 C 
ATOM     23  O   UNL     1       4.120   6.891  17.444  0.00  0.00    +0.000 OA
ATOM     24  N   UNL     1       2.238   5.821  18.281  0.00  0.00    +0.000 N 
ATOM     25  H   UNL     1       1.252   5.961  18.465  0.00  0.00    +0.000 HD
BRANCH  24  26
ATOM     26  C   UNL     1       2.705   4.488  18.309  0.00  0.00    +0.000 A 
ATOM     27  C   UNL     1       2.256   3.496  17.427  0.00  0.00    +0.000 A 
ATOM     28  C   UNL     1       2.714   2.182  17.540  0.00  0.00    +0.000 A 
ATOM     29  C   UNL     1       3.628   1.859  18.530  0.00  0.00    +0.000 A 
ATOM     30  F   UNL     1       4.050   0.595  18.654  0.00  0.00    +0.000 F 
ATOM     31  C   UNL     1       4.112   2.833  19.396  0.00  0.00    +0.000 A 
ATOM     32  C   UNL     1       3.659   4.151  19.278  0.00  0.00    +0.000 A 
ENDBRANCH  24  26
ENDBRANCH  21  22
ENDBRANCH  20  21
ENDBRANCH   6  20
TORSDOF 5
ENDMDL
MODEL 7
REMARK VINA RESULT:      -8.0      1.718      1.851
REMARK  Name = 
REMARK  6 active torsions:
REMARK  status: ('A' for Active; 'I' for Inactive)
REMARK    1  A    between atoms: C_1  and  C_2
REMARK    2  A    between atoms: C_2  and  C_3
REMARK    3  A    between atoms: N_16  and  C_17
REMARK    4  A    between atoms: C_17  and  C_18
REMARK    5  A    between atoms: C_18  and  C_19
REMARK    6  A    between atoms: N_21  and  C_22
REMARK                            x       y       z     vdW  Elec       q    Type
REMARK                         _______ _______ _______ _____ _____    ______ ____
ROOT
ATOM      1  C   UNL     1       3.930   1.896  18.301  0.00  0.00    +0.000 C 
ATOM      2  C   UNL     1       3.802   3.390  18.547  0.00  0.00    +0.000 C 
ATOM      3  N   UNL     1       3.347   3.675  19.907  0.00  0.00    +0.000 N 
ATOM      4  C   UNL     1       2.541   4.795  19.936  0.00  0.00    +0.000 C 
ATOM      5  O   UNL     1       2.289   5.423  20.949  0.00  0.00    +0.000 OA
ATOM      6  N   UNL     1       2.107   5.030  18.673  0.00  0.00    +0.000 N 
ATOM      7  C   UNL     1       2.567   4.032  17.862  0.00  0.00    +0.000 C 
ATOM      8  O   UNL     1       2.085   3.732  16.778  0.00  0.00    +0.000 OA
ATOM      9  H   UNL     1       3.848   3.433  20.750  0.00  0.00    +0.000 HD
ENDROOT
BRANCH   2  10
ATOM     10  C   UNL     1       5.136   4.130  18.248  0.00  0.00    +0.000 A 
ATOM     11  C   UNL     1       5.811   4.718  19.347  0.00  0.00    +0.000 A 
ATOM     12  C   UNL     1       6.958   5.485  19.183  0.00  0.00    +0.000 A 
ATOM     13  C   UNL     1       7.472   5.690  17.913  0.00  0.00    +0.000 A 
ATOM     14  C   UNL     1       6.876   5.101  16.795  0.00  0.00    +0.000 A 
ATOM     15  C   UNL     1       7.444   5.342  15.532  0.00  0.00    +0.000 A 
ATOM     16  C   UNL     1       6.914   4.773  14.380  0.00  0.00    +0.000 A 
ATOM     17  C   UNL     1       5.835   3.916  14.490  0.00  0.00    +0.000 A 
ATOM     18  C   UNL     1       5.278   3.652  15.747  0.00  0.00    +0.000 A 
ATOM     19  C   UNL     1       5.725   4.272  16.940  0.00  0.00    +0.000 A 
ENDBRANCH   2  10
BRANCH   6  20
ATOM     20  C   UNL     1       1.483   6.249  18.211  0.00  0.00    +0.000 C 
BRANCH  20  21
ATOM     21  C   UNL     1       2.376   7.484  18.185  0.00  0.00    +0.000 C 
BRANCH  21  22
ATOM     22  C   UNL     1       1.670   8.595  18.940  0.00  0.00    +0.000 C 
ATOM     23  O   UNL     1       1.574   8.573  20.164  0.00  0.00    +0.000 OA
ATOM     24  N   UNL     1       1.162   9.581  18.113  0.00  0.00    +0.000 N 
ATOM     25  H   UNL     1       1.182   9.405  17.116  0.00  0.00    +0.000 HD
BRANCH  24  26
ATOM     26  C   UNL     1       0.464  10.732  18.541  0.00  0.00    +0.000 A 
ATOM     27  C   UNL     1       1.099  11.919  18.926  0.00  0.00    +0.000 A 
ATOM     28  C   UNL     1       0.357  13.006  19.394  0.00  0.00    +0.000 A 
ATOM     29  C   UNL     1      -1.024  12.907  19.471  0.00  0.00    +0.000 A 
ATOM     30  F   UNL     1      -1.735  13.939  19.942  0.00  0.00    +0.000 F 
ATOM     31  C   UNL     1      -1.678  11.750  19.065  0.00  0.00    +0.000 A 
ATOM     32  C   UNL     1      -0.935  10.665  18.588  0.00  0.00    +0.000 A 
ENDBRANCH  24  26
ENDBRANCH  21  22
ENDBRANCH  20  21
ENDBRANCH   6  20
TORSDOF 5
ENDMDL
MODEL 8
REMARK VINA RESULT:      -8.0      3.812      9.574
REMARK  Name = 
REMARK  6 active torsions:
REMARK  status: ('A' for Active; 'I' for Inactive)
REMARK    1  A    between atoms: C_1  and  C_2
REMARK    2  A    between atoms: C_2  and  C_3
REMARK    3  A    between atoms: N_16  and  C_17
REMARK    4  A    between atoms: C_17  and  C_18
REMARK    5  A    between atoms: C_18  and  C_19
REMARK    6  A    between atoms: N_21  and  C_22
REMARK                            x       y       z     vdW  Elec       q    Type
REMARK                         _______ _______ _______ _____ _____    ______ ____
ROOT
ATOM      1  C   UNL     1      -0.828  13.663  20.183  0.00  0.00    +0.000 C 
ATOM      2  C   UNL     1      -0.821  12.151  20.336  0.00  0.00    +0.000 C 
ATOM      3  N   UNL     1      -1.254  11.743  21.672  0.00  0.00    +0.000 N 
ATOM      4  C   UNL     1      -0.586  10.607  22.084  0.00  0.00    +0.000 C 
ATOM      5  O   UNL     1      -0.963   9.892  22.994  0.00  0.00    +0.000 OA
ATOM      6  N   UNL     1       0.521  10.471  21.312  0.00  0.00    +0.000 N 
ATOM      7  C   UNL     1       0.599  11.543  20.470  0.00  0.00    +0.000 C 
ATOM      8  O   UNL     1       1.621  11.923  19.914  0.00  0.00    +0.000 OA
ATOM      9  H   UNL     1      -2.165  11.923  22.068  0.00  0.00    +0.000 HD
ENDROOT
BRANCH   2  10
ATOM     10  C   UNL     1      -1.692  11.467  19.245  0.00  0.00    +0.000 A 
ATOM     11  C   UNL     1      -1.051  10.530  18.397  0.00  0.00    +0.000 A 
ATOM     12  C   UNL     1      -1.708   9.932  17.328  0.00  0.00    +0.000 A 
ATOM     13  C   UNL     1      -3.031  10.251  17.070  0.00  0.00    +0.000 A 
ATOM     14  C   UNL     1      -3.730  11.135  17.896  0.00  0.00    +0.000 A 
ATOM     15  C   UNL     1      -5.072  11.417  17.587  0.00  0.00    +0.000 A 
ATOM     16  C   UNL     1      -5.832  12.272  18.376  0.00  0.00    +0.000 A 
ATOM     17  C   UNL     1      -5.265  12.817  19.513  0.00  0.00    +0.000 A 
ATOM     18  C   UNL     1      -3.936  12.523  19.841  0.00  0.00    +0.000 A 
ATOM     19  C   UNL     1      -3.094  11.727  19.026  0.00  0.00    +0.000 A 
ENDBRANCH   2  10
BRANCH   6  20
ATOM     20  C   UNL     1       1.337   9.282  21.216  0.00  0.00    +0.000 C 
BRANCH  20  21
ATOM     21  C   UNL     1       1.578   8.754  19.806  0.00  0.00    +0.000 C 
BRANCH  21  22
ATOM     22  C   UNL     1       1.845   7.262  19.898  0.00  0.00    +0.000 C 
ATOM     23  O   UNL     1       1.518   6.617  20.889  0.00  0.00    +0.000 OA
ATOM     24  N   UNL     1       2.485   6.752  18.783  0.00  0.00    +0.000 N 
ATOM     25  H   UNL     1       2.829   7.417  18.101  0.00  0.00    +0.000 HD
BRANCH  24  26
ATOM     26  C   UNL     1       2.853   5.402  18.594  0.00  0.00    +0.000 A 
ATOM     27  C   UNL     1       4.096   4.882  18.977  0.00  0.00    +0.000 A 
ATOM     28  C   UNL     1       4.424   3.550  18.713  0.00  0.00    +0.000 A 
ATOM     29  C   UNL     1       3.505   2.735  18.072  0.00  0.00    +0.000 A 
ATOM     30  F   UNL     1       3.827   1.464  17.797  0.00  0.00    +0.000 F 
ATOM     31  C   UNL     1       2.254   3.220  17.711  0.00  0.00    +0.000 A 
ATOM     32  C   UNL     1       1.922   4.551  17.983  0.00  0.00    +0.000 A 
ENDBRANCH  24  26
ENDBRANCH  21  22
ENDBRANCH  20  21
ENDBRANCH   6  20
TORSDOF 5
ENDMDL
MODEL 9
REMARK VINA RESULT:      -7.9      4.042      9.775
REMARK  Name = 
REMARK  6 active torsions:
REMARK  status: ('A' for Active; 'I' for Inactive)
REMARK    1  A    between atoms: C_1  and  C_2
REMARK    2  A    between atoms: C_2  and  C_3
REMARK    3  A    between atoms: N_16  and  C_17
REMARK    4  A    between atoms: C_17  and  C_18
REMARK    5  A    between atoms: C_18  and  C_19
REMARK    6  A    between atoms: N_21  and  C_22
REMARK                            x       y       z     vdW  Elec       q    Type
REMARK                         _______ _______ _______ _____ _____    ______ ____
ROOT
ATOM      1  C   UNL     1      -1.634  14.463  20.505  0.00  0.00    +0.000 C 
ATOM      2  C   UNL     1      -1.824  13.041  21.005  0.00  0.00    +0.000 C 
ATOM      3  N   UNL     1      -2.808  12.977  22.085  0.00  0.00    +0.000 N 
ATOM      4  C   UNL     1      -2.474  12.000  23.002  0.00  0.00    +0.000 C 
ATOM      5  O   UNL     1      -3.257  11.531  23.808  0.00  0.00    +0.000 OA
ATOM      6  N   UNL     1      -1.163  11.697  22.831  0.00  0.00    +0.000 N 
ATOM      7  C   UNL     1      -0.648  12.521  21.872  0.00  0.00    +0.000 C 
ATOM      8  O   UNL     1       0.542  12.771  21.728  0.00  0.00    +0.000 OA
ATOM      9  H   UNL     1      -3.781  13.230  22.001  0.00  0.00    +0.000 HD
ENDROOT
BRANCH   2  10
ATOM     10  C   UNL     1      -2.218  12.081  19.847  0.00  0.00    +0.000 A 
ATOM     11  C   UNL     1      -1.229  11.173  19.393  0.00  0.00    +0.000 A 
ATOM     12  C   UNL     1      -1.440  10.339  18.302  0.00  0.00    +0.000 A 
ATOM     13  C   UNL     1      -2.649  10.382  17.628  0.00  0.00    +0.000 A 
ATOM     14  C   UNL     1      -3.678  11.225  18.053  0.00  0.00    +0.000 A 
ATOM     15  C   UNL     1      -4.884  11.223  17.331  0.00  0.00    +0.000 A 
ATOM     16  C   UNL     1      -5.956  12.023  17.710  0.00  0.00    +0.000 A 
ATOM     17  C   UNL     1      -5.845  12.799  18.849  0.00  0.00    +0.000 A 
ATOM     18  C   UNL     1      -4.655  12.788  19.588  0.00  0.00    +0.000 A 
ATOM     19  C   UNL     1      -3.505  12.058  19.197  0.00  0.00    +0.000 A 
ENDBRANCH   2  10
BRANCH   6  20
ATOM     20  C   UNL     1      -0.489  10.543  23.379  0.00  0.00    +0.000 C 
BRANCH  20  21
ATOM     21  C   UNL     1      -0.597   9.260  22.564  0.00  0.00    +0.000 C 
BRANCH  21  22
ATOM     22  C   UNL     1       0.658   9.126  21.721  0.00  0.00    +0.000 C 
ATOM     23  O   UNL     1       1.652   9.810  21.945  0.00  0.00    +0.000 OA
ATOM     24  N   UNL     1       0.540   8.190  20.709  0.00  0.00    +0.000 N 
ATOM     25  H   UNL     1      -0.380   7.802  20.542  0.00  0.00    +0.000 HD
BRANCH  24  26
ATOM     26  C   UNL     1       1.548   7.857  19.778  0.00  0.00    +0.000 A 
ATOM     27  C   UNL     1       1.907   8.681  18.703  0.00  0.00    +0.000 A 
ATOM     28  C   UNL     1       2.874   8.271  17.782  0.00  0.00    +0.000 A 
ATOM     29  C   UNL     1       3.488   7.039  17.940  0.00  0.00    +0.000 A 
ATOM     30  F   UNL     1       4.398   6.634  17.045  0.00  0.00    +0.000 F 
ATOM     31  C   UNL     1       3.171   6.218  19.015  0.00  0.00    +0.000 A 
ATOM     32  C   UNL     1       2.209   6.632  19.943  0.00  0.00    +0.000 A 
ENDBRANCH  24  26
ENDBRANCH  21  22
ENDBRANCH  20  21
ENDBRANCH   6  20
TORSDOF 5
ENDMDL
