MODEL 1
REMARK VINA RESULT:      -8.7      0.000      0.000
REMARK  Name = 
REMARK  2 active torsions:
REMARK  status: ('A' for Active; 'I' for Inactive)
REMARK    1  A    between atoms: C_1  and  C_2
REMARK    2  A    between atoms: C_7  and  N_8
REMARK                            x       y       z     vdW  Elec       q    Type
REMARK                         _______ _______ _______ _____ _____    ______ ____
ROOT
ATOM      1  N   UNL     1       3.534   6.338  17.912  0.00  0.00    +0.000 N 
ATOM      2  C   UNL     1       4.805   6.523  17.404  0.00  0.00    +0.000 C 
ATOM      3  O   UNL     1       5.380   7.610  17.402  0.00  0.00    +0.000 OA
ATOM      4  N   UNL     1       5.427   5.391  16.898  0.00  0.00    +0.000 N 
ATOM      5  C   UNL     1       4.908   4.028  16.803  0.00  0.00    +0.000 C 
ATOM      6  C   UNL     1       4.552   3.707  15.352  0.00  0.00    +0.000 C 
ATOM      7  C   UNL     1       5.675   4.067  14.407  0.00  0.00    +0.000 A 
ATOM      8  C   UNL     1       5.689   3.537  13.110  0.00  0.00    +0.000 A 
ATOM      9  C   UNL     1       6.697   3.899  12.213  0.00  0.00    +0.000 A 
ATOM     10  C   UNL     1       7.690   4.795  12.601  0.00  0.00    +0.000 A 
ATOM     11  C   UNL     1       7.681   5.334  13.886  0.00  0.00    +0.000 A 
ATOM     12  C   UNL     1       6.670   4.987  14.797  0.00  0.00    +0.000 A 
ATOM     13  C   UNL     1       6.695   5.579  16.194  0.00  0.00    +0.000 C 
ATOM     14  H   UNL     1       3.247   5.395  18.093  0.00  0.00    +0.000 HD
ENDROOT
BRANCH   1  21
ATOM     15  C   UNL     1      -0.758  11.383  21.959  0.00  0.00    +0.000 C 
ATOM     16  C   UNL     1      -0.233  10.082  21.369  0.00  0.00    +0.000 C 
ATOM     17  O   UNL     1       0.317  10.367  20.084  0.00  0.00    +0.000 OA
ATOM     18  C   UNL     1       1.062   9.333  19.579  0.00  0.00    +0.000 A 
ATOM     19  C   UNL     1       1.319   9.352  18.214  0.00  0.00    +0.000 A 
ATOM     20  C   UNL     1       2.122   8.360  17.641  0.00  0.00    +0.000 A 
ATOM     21  C   UNL     1       2.683   7.347  18.427  0.00  0.00    +0.000 A 
ATOM     22  C   UNL     1       2.407   7.324  19.800  0.00  0.00    +0.000 A 
ATOM     23  C   UNL     1       1.622   8.329  20.374  0.00  0.00    +0.000 A 
ATOM     24  N   UNL     1       1.471   8.385  21.763  0.00  0.00    +0.000 N 
ATOM     25  C   UNL     1       0.707   9.363  22.351  0.00  0.00    +0.000 C 
ATOM     26  O   UNL     1       0.726   9.540  23.565  0.00  0.00    +0.000 OA
ATOM     27  H   UNL     1       2.027   7.803  22.375  0.00  0.00    +0.000 HD
ENDBRANCH   1  21
TORSDOF 1
ENDMDL
MODEL 2
REMARK VINA RESULT:      -8.4      6.470      8.253
REMARK  Name = 
REMARK  2 active torsions:
REMARK  status: ('A' for Active; 'I' for Inactive)
REMARK    1  A    between atoms: C_1  and  C_2
REMARK    2  A    between atoms: C_7  and  N_8
REMARK                            x       y       z     vdW  Elec       q    Type
REMARK                         _______ _______ _______ _____ _____    ______ ____
ROOT
ATOM      1  N   UNL     1       8.896   8.881  18.945  0.00  0.00    +0.000 N 
ATOM      2  C   UNL     1       7.965   8.560  17.977  0.00  0.00    +0.000 C 
ATOM      3  O   UNL     1       7.447   9.394  17.235  0.00  0.00    +0.000 OA
ATOM      4  N   UNL     1       7.642   7.216  17.866  0.00  0.00    +0.000 N 
ATOM      5  C   UNL     1       8.137   6.089  18.655  0.00  0.00    +0.000 C 
ATOM      6  C   UNL     1       7.052   5.617  19.623  0.00  0.00    +0.000 C 
ATOM      7  C   UNL     1       5.726   5.420  18.925  0.00  0.00    +0.000 A 
ATOM      8  C   UNL     1       4.719   4.669  19.545  0.00  0.00    +0.000 A 
ATOM      9  C   UNL     1       3.474   4.518  18.930  0.00  0.00    +0.000 A 
ATOM     10  C   UNL     1       3.225   5.121  17.700  0.00  0.00    +0.000 A 
ATOM     11  C   UNL     1       4.217   5.876  17.078  0.00  0.00    +0.000 A 
ATOM     12  C   UNL     1       5.470   6.045  17.687  0.00  0.00    +0.000 A 
ATOM     13  C   UNL     1       6.536   6.860  16.978  0.00  0.00    +0.000 C 
ATOM     14  H   UNL     1       9.435   8.128  19.328  0.00  0.00    +0.000 HD
ENDROOT
BRANCH   1  21
ATOM     15  C   UNL     1      11.421  16.203  19.444  0.00  0.00    +0.000 C 
ATOM     16  C   UNL     1      11.375  14.708  19.164  0.00  0.00    +0.000 C 
ATOM     17  O   UNL     1      10.520  14.101  20.132  0.00  0.00    +0.000 OA
ATOM     18  C   UNL     1      10.185  12.810  19.815  0.00  0.00    +0.000 A 
ATOM     19  C   UNL     1       9.687  12.021  20.842  0.00  0.00    +0.000 A 
ATOM     20  C   UNL     1       9.269  10.712  20.577  0.00  0.00    +0.000 A 
ATOM     21  C   UNL     1       9.338  10.184  19.283  0.00  0.00    +0.000 A 
ATOM     22  C   UNL     1       9.857  10.980  18.254  0.00  0.00    +0.000 A 
ATOM     23  C   UNL     1      10.253  12.295  18.517  0.00  0.00    +0.000 A 
ATOM     24  N   UNL     1      10.632  13.130  17.462  0.00  0.00    +0.000 N 
ATOM     25  C   UNL     1      11.023  14.427  17.694  0.00  0.00    +0.000 C 
ATOM     26  O   UNL     1      11.167  15.222  16.770  0.00  0.00    +0.000 OA
ATOM     27  H   UNL     1      10.494  12.855  16.499  0.00  0.00    +0.000 HD
ENDBRANCH   1  21
TORSDOF 1
ENDMDL
MODEL 3
REMARK VINA RESULT:      -7.9      3.765     10.099
REMARK  Name = 
REMARK  2 active torsions:
REMARK  status: ('A' for Active; 'I' for Inactive)
REMARK    1  A    between atoms: C_1  and  C_2
REMARK    2  A    between atoms: C_7  and  N_8
REMARK                            x       y       z     vdW  Elec       q    Type
REMARK                         _______ _______ _______ _____ _____    ______ ____
ROOT
ATOM      1  N   UNL     1       0.370  10.686  19.461  0.00  0.00    +0.000 N 
ATOM      2  C   UNL     1       0.374  11.422  20.631  0.00  0.00    +0.000 C 
ATOM      3  O   UNL     1       1.145  11.204  21.564  0.00  0.00    +0.000 OA
ATOM      4  N   UNL     1      -0.548  12.456  20.700  0.00  0.00    +0.000 N 
ATOM      5  C   UNL     1      -1.546  12.860  19.711  0.00  0.00    +0.000 C 
ATOM      6  C   UNL     1      -2.938  12.435  20.174  0.00  0.00    +0.000 C 
ATOM      7  C   UNL     1      -3.203  12.847  21.604  0.00  0.00    +0.000 A 
ATOM      8  C   UNL     1      -4.517  12.867  22.090  0.00  0.00    +0.000 A 
ATOM      9  C   UNL     1      -4.769  13.202  23.422  0.00  0.00    +0.000 A 
ATOM     10  C   UNL     1      -3.715  13.511  24.277  0.00  0.00    +0.000 A 
ATOM     11  C   UNL     1      -2.404  13.487  23.806  0.00  0.00    +0.000 A 
ATOM     12  C   UNL     1      -2.133  13.143  22.472  0.00  0.00    +0.000 A 
ATOM     13  C   UNL     1      -0.695  13.141  21.984  0.00  0.00    +0.000 C 
ATOM     14  H   UNL     1      -0.113  11.079  18.676  0.00  0.00    +0.000 HD
ENDROOT
BRANCH   1  21
ATOM     15  C   UNL     1       4.182   3.938  19.045  0.00  0.00    +0.000 C 
ATOM     16  C   UNL     1       3.699   5.295  19.536  0.00  0.00    +0.000 C 
ATOM     17  O   UNL     1       3.378   6.092  18.396  0.00  0.00    +0.000 OA
ATOM     18  C   UNL     1       2.677   7.225  18.716  0.00  0.00    +0.000 A 
ATOM     19  C   UNL     1       2.646   8.234  17.762  0.00  0.00    +0.000 A 
ATOM     20  C   UNL     1       1.900   9.394  17.997  0.00  0.00    +0.000 A 
ATOM     21  C   UNL     1       1.173   9.553  19.182  0.00  0.00    +0.000 A 
ATOM     22  C   UNL     1       1.221   8.539  20.147  0.00  0.00    +0.000 A 
ATOM     23  C   UNL     1       1.949   7.371  19.900  0.00  0.00    +0.000 A 
ATOM     24  N   UNL     1       1.876   6.303  20.800  0.00  0.00    +0.000 N 
ATOM     25  C   UNL     1       2.580   5.145  20.580  0.00  0.00    +0.000 C 
ATOM     26  O   UNL     1       2.373   4.138  21.250  0.00  0.00    +0.000 OA
ATOM     27  H   UNL     1       1.201   6.297  21.553  0.00  0.00    +0.000 HD
ENDBRANCH   1  21
TORSDOF 1
ENDMDL
MODEL 4
REMARK VINA RESULT:      -7.7      3.965      9.629
REMARK  Name = 
REMARK  2 active torsions:
REMARK  status: ('A' for Active; 'I' for Inactive)
REMARK    1  A    between atoms: C_1  and  C_2
REMARK    2  A    between atoms: C_7  and  N_8
REMARK                            x       y       z     vdW  Elec       q    Type
REMARK                         _______ _______ _______ _____ _____    ______ ____
ROOT
ATOM      1  N   UNL     1       1.175   9.550  19.734  0.00  0.00    +0.000 N 
ATOM      2  C   UNL     1       0.760  10.007  20.970  0.00  0.00    +0.000 C 
ATOM      3  O   UNL     1       0.892   9.361  22.008  0.00  0.00    +0.000 OA
ATOM      4  N   UNL     1       0.184  11.269  20.989  0.00  0.00    +0.000 N 
ATOM      5  C   UNL     1      -0.068  12.175  19.870  0.00  0.00    +0.000 C 
ATOM      6  C   UNL     1      -1.560  12.194  19.543  0.00  0.00    +0.000 C 
ATOM      7  C   UNL     1      -2.403  12.401  20.781  0.00  0.00    +0.000 A 
ATOM      8  C   UNL     1      -3.741  12.796  20.653  0.00  0.00    +0.000 A 
ATOM      9  C   UNL     1      -4.541  12.947  21.787  0.00  0.00    +0.000 A 
ATOM     10  C   UNL     1      -4.015  12.698  23.053  0.00  0.00    +0.000 A 
ATOM     11  C   UNL     1      -2.687  12.298  23.190  0.00  0.00    +0.000 A 
ATOM     12  C   UNL     1      -1.872  12.133  22.059  0.00  0.00    +0.000 A 
ATOM     13  C   UNL     1      -0.426  11.711  22.242  0.00  0.00    +0.000 C 
ATOM     14  H   UNL     1       1.250  10.226  18.998  0.00  0.00    +0.000 HD
ENDROOT
BRANCH   1  21
ATOM     15  C   UNL     1       3.707   2.220  19.419  0.00  0.00    +0.000 C 
ATOM     16  C   UNL     1       3.525   3.666  19.854  0.00  0.00    +0.000 C 
ATOM     17  O   UNL     1       3.206   4.441  18.699  0.00  0.00    +0.000 OA
ATOM     18  C   UNL     1       2.752   5.697  19.006  0.00  0.00    +0.000 A 
ATOM     19  C   UNL     1       2.775   6.640  17.986  0.00  0.00    +0.000 A 
ATOM     20  C   UNL     1       2.271   7.926  18.212  0.00  0.00    +0.000 A 
ATOM     21  C   UNL     1       1.734   8.278  19.455  0.00  0.00    +0.000 A 
ATOM     22  C   UNL     1       1.728   7.328  20.485  0.00  0.00    +0.000 A 
ATOM     23  C   UNL     1       2.211   6.037  20.249  0.00  0.00    +0.000 A 
ATOM     24  N   UNL     1       2.070   5.053  21.232  0.00  0.00    +0.000 N 
ATOM     25  C   UNL     1       2.534   3.777  21.025  0.00  0.00    +0.000 C 
ATOM     26  O   UNL     1       2.244   2.863  21.790  0.00  0.00    +0.000 OA
ATOM     27  H   UNL     1       1.502   5.210  22.054  0.00  0.00    +0.000 HD
ENDBRANCH   1  21
TORSDOF 1
ENDMDL
MODEL 5
REMARK VINA RESULT:      -7.7      3.683      5.278
REMARK  Name = 
REMARK  2 active torsions:
REMARK  status: ('A' for Active; 'I' for Inactive)
REMARK    1  A    between atoms: C_1  and  C_2
REMARK    2  A    between atoms: C_7  and  N_8
REMARK                            x       y       z     vdW  Elec       q    Type
REMARK                         _______ _______ _______ _____ _____    ______ ____
ROOT
ATOM      1  N   UNL     1       1.329   8.657  19.912  0.00  0.00    +0.000 N 
ATOM      2  C   UNL     1       2.234   7.912  19.180  0.00  0.00    +0.000 C 
ATOM      3  O   UNL     1       2.750   8.309  18.137  0.00  0.00    +0.000 OA
ATOM      4  N   UNL     1       2.554   6.666  19.700  0.00  0.00    +0.000 N 
ATOM      5  C   UNL     1       2.042   6.020  20.907  0.00  0.00    +0.000 C 
ATOM      6  C   UNL     1       1.067   4.907  20.528  0.00  0.00    +0.000 C 
ATOM      7  C   UNL     1       1.641   3.995  19.468  0.00  0.00    +0.000 A 
ATOM      8  C   UNL     1       1.065   2.738  19.245  0.00  0.00    +0.000 A 
ATOM      9  C   UNL     1       1.559   1.906  18.238  0.00  0.00    +0.000 A 
ATOM     10  C   UNL     1       2.624   2.325  17.444  0.00  0.00    +0.000 A 
ATOM     11  C   UNL     1       3.200   3.576  17.653  0.00  0.00    +0.000 A 
ATOM     12  C   UNL     1       2.709   4.429  18.655  0.00  0.00    +0.000 A 
ATOM     13  C   UNL     1       3.367   5.779  18.868  0.00  0.00    +0.000 C 
ATOM     14  H   UNL     1       1.151   8.365  20.853  0.00  0.00    +0.000 HD
ENDROOT
BRANCH   1  21
ATOM     15  C   UNL     1      -0.402  16.102  18.561  0.00  0.00    +0.000 C 
ATOM     16  C   UNL     1      -0.124  14.793  19.286  0.00  0.00    +0.000 C 
ATOM     17  O   UNL     1      -0.542  13.720  18.444  0.00  0.00    +0.000 OA
ATOM     18  C   UNL     1      -0.092  12.498  18.869  0.00  0.00    +0.000 A 
ATOM     19  C   UNL     1      -0.736  11.379  18.359  0.00  0.00    +0.000 A 
ATOM     20  C   UNL     1      -0.290  10.099  18.705  0.00  0.00    +0.000 A 
ATOM     21  C   UNL     1       0.807   9.925  19.556  0.00  0.00    +0.000 A 
ATOM     22  C   UNL     1       1.443  11.058  20.080  0.00  0.00    +0.000 A 
ATOM     23  C   UNL     1       1.010  12.337  19.715  0.00  0.00    +0.000 A 
ATOM     24  N   UNL     1       1.736  13.459  20.123  0.00  0.00    +0.000 N 
ATOM     25  C   UNL     1       1.333  14.726  19.776  0.00  0.00    +0.000 C 
ATOM     26  O   UNL     1       2.060  15.697  19.958  0.00  0.00    +0.000 OA
ATOM     27  H   UNL     1       2.645  13.367  20.556  0.00  0.00    +0.000 HD
ENDBRANCH   1  21
TORSDOF 1
ENDMDL
MODEL 6
REMARK VINA RESULT:      -7.6      3.861     10.358
REMARK  Name = 
REMARK  2 active torsions:
REMARK  status: ('A' for Active; 'I' for Inactive)
REMARK    1  A    between atoms: C_1  and  C_2
REMARK    2  A    between atoms: C_7  and  N_8
REMARK                            x       y       z     vdW  Elec       q    Type
REMARK                         _______ _______ _______ _____ _____    ______ ____
ROOT
ATOM      1  N   UNL     1       0.082  11.072  19.757  0.00  0.00    +0.000 N 
ATOM      2  C   UNL     1       0.456  12.132  20.561  0.00  0.00    +0.000 C 
ATOM      3  O   UNL     1       1.585  12.258  21.031  0.00  0.00    +0.000 OA
ATOM      4  N   UNL     1      -0.525  13.082  20.808  0.00  0.00    +0.000 N 
ATOM      5  C   UNL     1      -1.914  13.101  20.353  0.00  0.00    +0.000 C 
ATOM      6  C   UNL     1      -2.846  12.760  21.515  0.00  0.00    +0.000 C 
ATOM      7  C   UNL     1      -2.529  13.578  22.746  0.00  0.00    +0.000 A 
ATOM      8  C   UNL     1      -3.470  13.671  23.780  0.00  0.00    +0.000 A 
ATOM      9  C   UNL     1      -3.169  14.386  24.942  0.00  0.00    +0.000 A 
ATOM     10  C   UNL     1      -1.930  15.005  25.081  0.00  0.00    +0.000 A 
ATOM     11  C   UNL     1      -0.984  14.913  24.062  0.00  0.00    +0.000 A 
ATOM     12  C   UNL     1      -1.267  14.190  22.892  0.00  0.00    +0.000 A 
ATOM     13  C   UNL     1      -0.223  14.120  21.793  0.00  0.00    +0.000 C 
ATOM     14  H   UNL     1      -0.764  11.174  19.231  0.00  0.00    +0.000 HD
ENDROOT
BRANCH   1  21
ATOM     15  C   UNL     1       3.948   4.384  19.001  0.00  0.00    +0.000 C 
ATOM     16  C   UNL     1       3.470   5.721  19.548  0.00  0.00    +0.000 C 
ATOM     17  O   UNL     1       3.095   6.545  18.445  0.00  0.00    +0.000 OA
ATOM     18  C   UNL     1       2.395   7.661  18.824  0.00  0.00    +0.000 A 
ATOM     19  C   UNL     1       2.315   8.695  17.901  0.00  0.00    +0.000 A 
ATOM     20  C   UNL     1       1.566   9.839  18.198  0.00  0.00    +0.000 A 
ATOM     21  C   UNL     1       0.886   9.957  19.415  0.00  0.00    +0.000 A 
ATOM     22  C   UNL     1       0.983   8.917  20.348  0.00  0.00    +0.000 A 
ATOM     23  C   UNL     1       1.713   7.765  20.040  0.00  0.00    +0.000 A 
ATOM     24  N   UNL     1       1.688   6.672  20.912  0.00  0.00    +0.000 N 
ATOM     25  C   UNL     1       2.394   5.529  20.631  0.00  0.00    +0.000 C 
ATOM     26  O   UNL     1       2.226   4.501  21.281  0.00  0.00    +0.000 OA
ATOM     27  H   UNL     1       1.044   6.638  21.690  0.00  0.00    +0.000 HD
ENDBRANCH   1  21
TORSDOF 1
ENDMDL
MODEL 7
REMARK VINA RESULT:      -7.5      2.878     10.433
REMARK  Name = 
REMARK  2 active torsions:
REMARK  status: ('A' for Active; 'I' for Inactive)
REMARK    1  A    between atoms: C_1  and  C_2
REMARK    2  A    between atoms: C_7  and  N_8
REMARK                            x       y       z     vdW  Elec       q    Type
REMARK                         _______ _______ _______ _____ _____    ______ ____
ROOT
ATOM      1  N   UNL     1       0.384  10.208  20.338  0.00  0.00    +0.000 N 
ATOM      2  C   UNL     1       0.045  10.717  21.577  0.00  0.00    +0.000 C 
ATOM      3  O   UNL     1       0.369  10.185  22.638  0.00  0.00    +0.000 OA
ATOM      4  N   UNL     1      -0.683  11.898  21.571  0.00  0.00    +0.000 N 
ATOM      5  C   UNL     1      -1.166  12.667  20.426  0.00  0.00    +0.000 C 
ATOM      6  C   UNL     1      -2.675  12.478  20.272  0.00  0.00    +0.000 C 
ATOM      7  C   UNL     1      -3.402  12.689  21.581  0.00  0.00    +0.000 A 
ATOM      8  C   UNL     1      -4.785  12.908  21.580  0.00  0.00    +0.000 A 
ATOM      9  C   UNL     1      -5.474  13.059  22.786  0.00  0.00    +0.000 A 
ATOM     10  C   UNL     1      -4.790  12.986  23.996  0.00  0.00    +0.000 A 
ATOM     11  C   UNL     1      -3.414  12.762  24.009  0.00  0.00    +0.000 A 
ATOM     12  C   UNL     1      -2.709  12.598  22.805  0.00  0.00    +0.000 A 
ATOM     13  C   UNL     1      -1.209  12.371  22.850  0.00  0.00    +0.000 C 
ATOM     14  H   UNL     1       0.292  10.822  19.552  0.00  0.00    +0.000 HD
ENDROOT
BRANCH   1  21
ATOM     15  C   UNL     1       4.723   4.235  17.945  0.00  0.00    +0.000 C 
ATOM     16  C   UNL     1       3.668   5.331  17.977  0.00  0.00    +0.000 C 
ATOM     17  O   UNL     1       3.264   5.520  19.332  0.00  0.00    +0.000 OA
ATOM     18  C   UNL     1       2.528   6.661  19.517  0.00  0.00    +0.000 A 
ATOM     19  C   UNL     1       1.781   6.743  20.685  0.00  0.00    +0.000 A 
ATOM     20  C   UNL     1       1.052   7.904  20.968  0.00  0.00    +0.000 A 
ATOM     21  C   UNL     1       1.069   8.994  20.090  0.00  0.00    +0.000 A 
ATOM     22  C   UNL     1       1.811   8.898  18.906  0.00  0.00    +0.000 A 
ATOM     23  C   UNL     1       2.557   7.746  18.637  0.00  0.00    +0.000 A 
ATOM     24  N   UNL     1       3.408   7.712  17.529  0.00  0.00    +0.000 N 
ATOM     25  C   UNL     1       4.153   6.594  17.244  0.00  0.00    +0.000 C 
ATOM     26  O   UNL     1       5.042   6.620  16.399  0.00  0.00    +0.000 OA
ATOM     27  H   UNL     1       3.608   8.548  16.996  0.00  0.00    +0.000 HD
ENDBRANCH   1  21
TORSDOF 1
ENDMDL
MODEL 8
REMARK VINA RESULT:      -7.4      3.470     10.080
REMARK  Name = 
REMARK  2 active torsions:
REMARK  status: ('A' for Active; 'I' for Inactive)
REMARK    1  A    between atoms: C_1  and  C_2
REMARK    2  A    between atoms: C_7  and  N_8
REMARK                            x       y       z     vdW  Elec       q    Type
REMARK                         _______ _______ _______ _____ _____    ______ ____
ROOT
ATOM      1  N   UNL     1       0.950  10.298  20.340  0.00  0.00    +0.000 N 
ATOM      2  C   UNL     1       0.157  10.321  21.470  0.00  0.00    +0.000 C 
ATOM      3  O   UNL     1      -0.155   9.310  22.098  0.00  0.00    +0.000 OA
ATOM      4  N   UNL     1      -0.272  11.573  21.885  0.00  0.00    +0.000 N 
ATOM      5  C   UNL     1      -0.018  12.876  21.272  0.00  0.00    +0.000 C 
ATOM      6  C   UNL     1      -1.282  13.376  20.573  0.00  0.00    +0.000 C 
ATOM      7  C   UNL     1      -2.495  13.278  21.471  0.00  0.00    +0.000 A 
ATOM      8  C   UNL     1      -3.654  13.997  21.153  0.00  0.00    +0.000 A 
ATOM      9  C   UNL     1      -4.795  13.879  21.950  0.00  0.00    +0.000 A 
ATOM     10  C   UNL     1      -4.789  13.039  23.061  0.00  0.00    +0.000 A 
ATOM     11  C   UNL     1      -3.643  12.314  23.382  0.00  0.00    +0.000 A 
ATOM     12  C   UNL     1      -2.491  12.414  22.585  0.00  0.00    +0.000 A 
ATOM     13  C   UNL     1      -1.253  11.624  22.968  0.00  0.00    +0.000 C 
ATOM     14  H   UNL     1       1.347  11.168  20.042  0.00  0.00    +0.000 HD
ENDROOT
BRANCH   1  21
ATOM     15  C   UNL     1       3.550   3.360  18.026  0.00  0.00    +0.000 C 
ATOM     16  C   UNL     1       3.443   4.691  18.755  0.00  0.00    +0.000 C 
ATOM     17  O   UNL     1       2.801   5.623  17.886  0.00  0.00    +0.000 OA
ATOM     18  C   UNL     1       2.403   6.767  18.528  0.00  0.00    +0.000 A 
ATOM     19  C   UNL     1       2.122   7.869  17.730  0.00  0.00    +0.000 A 
ATOM     20  C   UNL     1       1.654   9.051  18.313  0.00  0.00    +0.000 A 
ATOM     21  C   UNL     1       1.457   9.142  19.695  0.00  0.00    +0.000 A 
ATOM     22  C   UNL     1       1.758   8.033  20.496  0.00  0.00    +0.000 A 
ATOM     23  C   UNL     1       2.203   6.845  19.909  0.00  0.00    +0.000 A 
ATOM     24  N   UNL     1       2.363   5.699  20.694  0.00  0.00    +0.000 N 
ATOM     25  C   UNL     1       2.797   4.519  20.141  0.00  0.00    +0.000 C 
ATOM     26  O   UNL     1       2.753   3.467  20.771  0.00  0.00    +0.000 OA
ATOM     27  H   UNL     1       2.030   5.666  21.648  0.00  0.00    +0.000 HD
ENDBRANCH   1  21
TORSDOF 1
ENDMDL
MODEL 9
REMARK VINA RESULT:      -7.4      6.333      7.452
REMARK  Name = 
REMARK  2 active torsions:
REMARK  status: ('A' for Active; 'I' for Inactive)
REMARK    1  A    between atoms: C_1  and  C_2
REMARK    2  A    between atoms: C_7  and  N_8
REMARK                            x       y       z     vdW  Elec       q    Type
REMARK                         _______ _______ _______ _____ _____    ______ ____
ROOT
ATOM      1  N   UNL     1       8.883   8.797  19.000  0.00  0.00    +0.000 N 
ATOM      2  C   UNL     1       8.011   8.435  17.992  0.00  0.00    +0.000 C 
ATOM      3  O   UNL     1       7.539   9.235  17.187  0.00  0.00    +0.000 OA
ATOM      4  N   UNL     1       7.695   7.086  17.919  0.00  0.00    +0.000 N 
ATOM      5  C   UNL     1       8.140   5.994  18.783  0.00  0.00    +0.000 C 
ATOM      6  C   UNL     1       6.999   5.562  19.704  0.00  0.00    +0.000 C 
ATOM      7  C   UNL     1       5.717   5.333  18.937  0.00  0.00    +0.000 A 
ATOM      8  C   UNL     1       4.674   4.607  19.527  0.00  0.00    +0.000 A 
ATOM      9  C   UNL     1       3.468   4.429  18.846  0.00  0.00    +0.000 A 
ATOM     10  C   UNL     1       3.293   4.978  17.578  0.00  0.00    +0.000 A 
ATOM     11  C   UNL     1       4.321   5.708  16.985  0.00  0.00    +0.000 A 
ATOM     12  C   UNL     1       5.536   5.904  17.661  0.00  0.00    +0.000 A 
ATOM     13  C   UNL     1       6.643   6.691  16.983  0.00  0.00    +0.000 C 
ATOM     14  H   UNL     1       9.397   8.062  19.446  0.00  0.00    +0.000 HD
ENDROOT
BRANCH   1  21
ATOM     15  C   UNL     1      10.569  15.800  21.893  0.00  0.00    +0.000 C 
ATOM     16  C   UNL     1       9.786  14.609  21.357  0.00  0.00    +0.000 C 
ATOM     17  O   UNL     1      10.606  13.930  20.408  0.00  0.00    +0.000 OA
ATOM     18  C   UNL     1      10.119  12.695  20.066  0.00  0.00    +0.000 A 
ATOM     19  C   UNL     1      10.614  12.125  18.901  0.00  0.00    +0.000 A 
ATOM     20  C   UNL     1      10.205  10.842  18.523  0.00  0.00    +0.000 A 
ATOM     21  C   UNL     1       9.305  10.114  19.309  0.00  0.00    +0.000 A 
ATOM     22  C   UNL     1       8.797  10.701  20.475  0.00  0.00    +0.000 A 
ATOM     23  C   UNL     1       9.224  11.974  20.862  0.00  0.00    +0.000 A 
ATOM     24  N   UNL     1       8.827  12.495  22.098  0.00  0.00    +0.000 N 
ATOM     25  C   UNL     1       9.235  13.743  22.502  0.00  0.00    +0.000 C 
ATOM     26  O   UNL     1       9.059  14.127  23.654  0.00  0.00    +0.000 OA
ATOM     27  H   UNL     1       8.355  11.920  22.782  0.00  0.00    +0.000 HD
ENDBRANCH   1  21
TORSDOF 1
ENDMDL
