MODEL 1
REMARK VINA RESULT:      -8.8      0.000      0.000
REMARK  Name = 
REMARK  6 active torsions:
REMARK  status: ('A' for Active; 'I' for Inactive)
REMARK    1  A    between atoms: C_2  and  C_10
REMARK    2  A    between atoms: N_3  and  C_4
REMARK    3  A    between atoms: C_15  and  O_16
REMARK    4  A    between atoms: O_16  and  C_17
REMARK    5  A    between atoms: C_17  and  C_18
REMARK    6  A    between atoms: N_22  and  C_23
REMARK                            x       y       z     vdW  Elec       q    Type
REMARK                         _______ _______ _______ _____ _____    ______ ____
ROOT
ATOM      1  C   UNL     1       6.781   6.308  17.105  0.00  0.00    +0.000 A 
ATOM      2  C   UNL     1       7.483   5.365  16.320  0.00  0.00    +0.000 A 
ATOM      3  C   UNL     1       6.819   4.410  15.557  0.00  0.00    +0.000 A 
ATOM      4  C   UNL     1       5.435   4.395  15.546  0.00  0.00    +0.000 A 
ATOM      5  C   UNL     1       4.718   5.319  16.314  0.00  0.00    +0.000 A 
ATOM      6  C   UNL     1       5.374   6.263  17.127  0.00  0.00    +0.000 A 
ENDROOT
BRANCH   1   8
ATOM      7  O   UNL     1       8.318   6.813  18.783  0.00  0.00    +0.000 OA
ATOM      8  C   UNL     1       7.650   7.271  17.857  0.00  0.00    +0.000 C 
ATOM      9  N   UNL     1       7.649   8.594  17.466  0.00  0.00    +0.000 N 
ATOM     10  H   UNL     1       7.044   8.848  16.689  0.00  0.00    +0.000 HD
BRANCH   9  11
ATOM     11  C   UNL     1       8.373   9.649  18.069  0.00  0.00    +0.000 A 
ATOM     12  C   UNL     1       9.162   9.498  19.215  0.00  0.00    +0.000 A 
ATOM     13  C   UNL     1       9.823  10.590  19.782  0.00  0.00    +0.000 A 
ATOM     14  C   UNL     1       9.707  11.849  19.205  0.00  0.00    +0.000 A 
ATOM     15  C   UNL     1       8.939  12.012  18.053  0.00  0.00    +0.000 A 
ATOM     16  C   UNL     1       8.277  10.917  17.487  0.00  0.00    +0.000 A 
ENDBRANCH   9  11
ENDBRANCH   1   8
BRANCH   6  17
ATOM     17  O   UNL     1       4.690   7.141  17.940  0.00  0.00    +0.000 OA
BRANCH  17  18
ATOM     18  C   UNL     1       3.270   7.223  17.723  0.00  0.00    +0.000 C 
BRANCH  18  19
ATOM     19  C   UNL     1       2.560   6.899  18.984  0.00  0.00    +0.000 A 
ATOM     20  N   UNL     1       2.009   7.773  19.806  0.00  0.00    +0.000 NA
ATOM     21  N   UNL     1       1.518   7.065  20.859  0.00  0.00    +0.000 NA
ATOM     22  N   UNL     1       1.748   5.773  20.709  0.00  0.00    +0.000 NA
ATOM     23  N   UNL     1       2.385   5.621  19.519  0.00  0.00    +0.000 N 
BRANCH  23  24
ATOM     24  C   UNL     1       2.730   4.312  19.060  0.00  0.00    +0.000 A 
ATOM     25  C   UNL     1       3.890   3.698  19.575  0.00  0.00    +0.000 A 
ATOM     26  C   UNL     1       4.276   2.418  19.160  0.00  0.00    +0.000 A 
ATOM     27  C   UNL     1       3.511   1.729  18.227  0.00  0.00    +0.000 A 
ATOM     28  C   UNL     1       2.359   2.318  17.714  0.00  0.00    +0.000 A 
ATOM     29  C   UNL     1       1.966   3.599  18.129  0.00  0.00    +0.000 A 
ENDBRANCH  23  24
ENDBRANCH  18  19
ENDBRANCH  17  18
ENDBRANCH   6  17
TORSDOF 6
ENDMDL
MODEL 2
REMARK VINA RESULT:      -8.8      3.615      6.545
REMARK  Name = 
REMARK  6 active torsions:
REMARK  status: ('A' for Active; 'I' for Inactive)
REMARK    1  A    between atoms: C_2  and  C_10
REMARK    2  A    between atoms: N_3  and  C_4
REMARK    3  A    between atoms: C_15  and  O_16
REMARK    4  A    between atoms: O_16  and  C_17
REMARK    5  A    between atoms: C_17  and  C_18
REMARK    6  A    between atoms: N_22  and  C_23
REMARK                            x       y       z     vdW  Elec       q    Type
REMARK                         _______ _______ _______ _____ _____    ______ ____
ROOT
ATOM      1  C   UNL     1       3.282   3.799  19.670  0.00  0.00    +0.000 A 
ATOM      2  C   UNL     1       3.270   2.592  20.405  0.00  0.00    +0.000 A 
ATOM      3  C   UNL     1       2.226   2.270  21.266  0.00  0.00    +0.000 A 
ATOM      4  C   UNL     1       1.158   3.142  21.390  0.00  0.00    +0.000 A 
ATOM      5  C   UNL     1       1.146   4.341  20.672  0.00  0.00    +0.000 A 
ATOM      6  C   UNL     1       2.215   4.704  19.831  0.00  0.00    +0.000 A 
ENDROOT
BRANCH   1   8
ATOM      7  O   UNL     1       5.583   3.821  19.297  0.00  0.00    +0.000 OA
ATOM      8  C   UNL     1       4.477   3.983  18.782  0.00  0.00    +0.000 C 
ATOM      9  N   UNL     1       4.263   4.316  17.461  0.00  0.00    +0.000 N 
ATOM     10  H   UNL     1       3.299   4.431  17.161  0.00  0.00    +0.000 HD
BRANCH   9  11
ATOM     11  C   UNL     1       5.258   4.561  16.486  0.00  0.00    +0.000 A 
ATOM     12  C   UNL     1       6.197   5.595  16.572  0.00  0.00    +0.000 A 
ATOM     13  C   UNL     1       7.131   5.806  15.555  0.00  0.00    +0.000 A 
ATOM     14  C   UNL     1       7.141   4.978  14.439  0.00  0.00    +0.000 A 
ATOM     15  C   UNL     1       6.224   3.933  14.346  0.00  0.00    +0.000 A 
ATOM     16  C   UNL     1       5.289   3.724  15.366  0.00  0.00    +0.000 A 
ENDBRANCH   9  11
ENDBRANCH   1   8
BRANCH   6  17
ATOM     17  O   UNL     1       2.256   5.909  19.162  0.00  0.00    +0.000 OA
BRANCH  17  18
ATOM     18  C   UNL     1       2.233   7.088  19.988  0.00  0.00    +0.000 C 
BRANCH  18  19
ATOM     19  C   UNL     1       1.944   8.273  19.146  0.00  0.00    +0.000 A 
ATOM     20  N   UNL     1       2.338   8.445  17.896  0.00  0.00    +0.000 NA
ATOM     21  N   UNL     1       1.912   9.681  17.519  0.00  0.00    +0.000 NA
ATOM     22  N   UNL     1       1.259  10.277  18.501  0.00  0.00    +0.000 NA
ATOM     23  N   UNL     1       1.234   9.407  19.543  0.00  0.00    +0.000 N 
BRANCH  23  24
ATOM     24  C   UNL     1       0.553   9.762  20.749  0.00  0.00    +0.000 A 
ATOM     25  C   UNL     1      -0.352  10.842  20.722  0.00  0.00    +0.000 A 
ATOM     26  C   UNL     1      -1.046  11.233  21.874  0.00  0.00    +0.000 A 
ATOM     27  C   UNL     1      -0.851  10.553  23.068  0.00  0.00    +0.000 A 
ATOM     28  C   UNL     1       0.034   9.479  23.110  0.00  0.00    +0.000 A 
ATOM     29  C   UNL     1       0.729   9.081  21.959  0.00  0.00    +0.000 A 
ENDBRANCH  23  24
ENDBRANCH  18  19
ENDBRANCH  17  18
ENDBRANCH   6  17
TORSDOF 6
ENDMDL
MODEL 3
REMARK VINA RESULT:      -8.8      0.241      1.307
REMARK  Name = 
REMARK  6 active torsions:
REMARK  status: ('A' for Active; 'I' for Inactive)
REMARK    1  A    between atoms: C_2  and  C_10
REMARK    2  A    between atoms: N_3  and  C_4
REMARK    3  A    between atoms: C_15  and  O_16
REMARK    4  A    between atoms: O_16  and  C_17
REMARK    5  A    between atoms: C_17  and  C_18
REMARK    6  A    between atoms: N_22  and  C_23
REMARK                            x       y       z     vdW  Elec       q    Type
REMARK                         _______ _______ _______ _____ _____    ______ ____
ROOT
ATOM      1  C   UNL     1       6.719   6.265  17.186  0.00  0.00    +0.000 A 
ATOM      2  C   UNL     1       7.426   5.177  16.625  0.00  0.00    +0.000 A 
ATOM      3  C   UNL     1       6.773   4.159  15.937  0.00  0.00    +0.000 A 
ATOM      4  C   UNL     1       5.400   4.223  15.775  0.00  0.00    +0.000 A 
ATOM      5  C   UNL     1       4.679   5.290  16.320  0.00  0.00    +0.000 A 
ATOM      6  C   UNL     1       5.317   6.305  17.059  0.00  0.00    +0.000 A 
ENDROOT
BRANCH   1   8
ATOM      7  O   UNL     1       8.272   6.871  18.816  0.00  0.00    +0.000 OA
ATOM      8  C   UNL     1       7.577   7.277  17.886  0.00  0.00    +0.000 C 
ATOM      9  N   UNL     1       7.535   8.584  17.445  0.00  0.00    +0.000 N 
ATOM     10  H   UNL     1       6.910   8.793  16.671  0.00  0.00    +0.000 HD
BRANCH   9  11
ATOM     11  C   UNL     1       8.242   9.678  17.995  0.00  0.00    +0.000 A 
ATOM     12  C   UNL     1       8.220  10.970  17.460  0.00  0.00    +0.000 A 
ATOM     13  C   UNL     1       8.971  12.000  18.032  0.00  0.00    +0.000 A 
ATOM     14  C   UNL     1       9.751  11.750  19.154  0.00  0.00    +0.000 A 
ATOM     15  C   UNL     1       9.770  10.471  19.710  0.00  0.00    +0.000 A 
ATOM     16  C   UNL     1       9.017   9.442  19.135  0.00  0.00    +0.000 A 
ENDBRANCH   9  11
ENDBRANCH   1   8
BRANCH   6  17
ATOM     17  O   UNL     1       4.621   7.333  17.660  0.00  0.00    +0.000 OA
BRANCH  17  18
ATOM     18  C   UNL     1       3.193   7.312  17.483  0.00  0.00    +0.000 C 
BRANCH  18  19
ATOM     19  C   UNL     1       2.538   7.094  18.795  0.00  0.00    +0.000 A 
ATOM     20  N   UNL     1       2.011   8.033  19.559  0.00  0.00    +0.000 NA
ATOM     21  N   UNL     1       1.571   7.416  20.689  0.00  0.00    +0.000 NA
ATOM     22  N   UNL     1       1.808   6.117  20.643  0.00  0.00    +0.000 NA
ATOM     23  N   UNL     1       2.397   5.867  19.445  0.00  0.00    +0.000 N 
BRANCH  23  24
ATOM     24  C   UNL     1       2.737   4.525  19.087  0.00  0.00    +0.000 A 
ATOM     25  C   UNL     1       1.900   3.830  18.191  0.00  0.00    +0.000 A 
ATOM     26  C   UNL     1       2.186   2.514  17.808  0.00  0.00    +0.000 A 
ATOM     27  C   UNL     1       3.310   1.871  18.310  0.00  0.00    +0.000 A 
ATOM     28  C   UNL     1       4.151   2.546  19.190  0.00  0.00    +0.000 A 
ATOM     29  C   UNL     1       3.872   3.865  19.575  0.00  0.00    +0.000 A 
ENDBRANCH  23  24
ENDBRANCH  18  19
ENDBRANCH  17  18
ENDBRANCH   6  17
TORSDOF 6
ENDMDL
MODEL 4
REMARK VINA RESULT:      -8.7      3.595      6.480
REMARK  Name = 
REMARK  6 active torsions:
REMARK  status: ('A' for Active; 'I' for Inactive)
REMARK    1  A    between atoms: C_2  and  C_10
REMARK    2  A    between atoms: N_3  and  C_4
REMARK    3  A    between atoms: C_15  and  O_16
REMARK    4  A    between atoms: O_16  and  C_17
REMARK    5  A    between atoms: C_17  and  C_18
REMARK    6  A    between atoms: N_22  and  C_23
REMARK                            x       y       z     vdW  Elec       q    Type
REMARK                         _______ _______ _______ _____ _____    ______ ____
ROOT
ATOM      1  C   UNL     1       3.331   3.718  19.737  0.00  0.00    +0.000 A 
ATOM      2  C   UNL     1       3.389   2.537  20.513  0.00  0.00    +0.000 A 
ATOM      3  C   UNL     1       2.381   2.203  21.410  0.00  0.00    +0.000 A 
ATOM      4  C   UNL     1       1.279   3.033  21.533  0.00  0.00    +0.000 A 
ATOM      5  C   UNL     1       1.199   4.205  20.775  0.00  0.00    +0.000 A 
ATOM      6  C   UNL     1       2.232   4.583  19.895  0.00  0.00    +0.000 A 
ENDROOT
BRANCH   1   8
ATOM      7  O   UNL     1       5.620   3.822  19.305  0.00  0.00    +0.000 OA
ATOM      8  C   UNL     1       4.496   3.921  18.814  0.00  0.00    +0.000 C 
ATOM      9  N   UNL     1       4.237   4.198  17.488  0.00  0.00    +0.000 N 
ATOM     10  H   UNL     1       3.261   4.263  17.209  0.00  0.00    +0.000 HD
BRANCH   9  11
ATOM     11  C   UNL     1       5.197   4.451  16.480  0.00  0.00    +0.000 A 
ATOM     12  C   UNL     1       5.226   3.791  15.247  0.00  0.00    +0.000 A 
ATOM     13  C   UNL     1       6.224   4.063  14.308  0.00  0.00    +0.000 A 
ATOM     14  C   UNL     1       7.205   5.006  14.591  0.00  0.00    +0.000 A 
ATOM     15  C   UNL     1       7.179   5.684  15.809  0.00  0.00    +0.000 A 
ATOM     16  C   UNL     1       6.179   5.410  16.747  0.00  0.00    +0.000 A 
ENDBRANCH   9  11
ENDBRANCH   1   8
BRANCH   6  17
ATOM     17  O   UNL     1       2.205   5.765  19.185  0.00  0.00    +0.000 OA
BRANCH  17  18
ATOM     18  C   UNL     1       2.217   6.970  19.971  0.00  0.00    +0.000 C 
BRANCH  18  19
ATOM     19  C   UNL     1       1.975   8.136  19.087  0.00  0.00    +0.000 A 
ATOM     20  N   UNL     1       2.393   8.257  17.840  0.00  0.00    +0.000 NA
ATOM     21  N   UNL     1       2.008   9.491  17.416  0.00  0.00    +0.000 NA
ATOM     22  N   UNL     1       1.358  10.137  18.368  0.00  0.00    +0.000 NA
ATOM     23  N   UNL     1       1.292   9.302  19.437  0.00  0.00    +0.000 N 
BRANCH  23  24
ATOM     24  C   UNL     1       0.603   9.714  20.620  0.00  0.00    +0.000 A 
ATOM     25  C   UNL     1       0.814   8.993  21.813  0.00  0.00    +0.000 A 
ATOM     26  C   UNL     1       0.164   9.353  23.000  0.00  0.00    +0.000 A 
ATOM     27  C   UNL     1      -0.703  10.438  23.017  0.00  0.00    +0.000 A 
ATOM     28  C   UNL     1      -0.916  11.165  21.850  0.00  0.00    +0.000 A 
ATOM     29  C   UNL     1      -0.265  10.811  20.659  0.00  0.00    +0.000 A 
ENDBRANCH  23  24
ENDBRANCH  18  19
ENDBRANCH  17  18
ENDBRANCH   6  17
TORSDOF 6
ENDMDL
MODEL 5
REMARK VINA RESULT:      -8.5      2.573      6.052
REMARK  Name = 
REMARK  6 active torsions:
REMARK  status: ('A' for Active; 'I' for Inactive)
REMARK    1  A    between atoms: C_2  and  C_10
REMARK    2  A    between atoms: N_3  and  C_4
REMARK    3  A    between atoms: C_15  and  O_16
REMARK    4  A    between atoms: O_16  and  C_17
REMARK    5  A    between atoms: C_17  and  C_18
REMARK    6  A    between atoms: N_22  and  C_23
REMARK                            x       y       z     vdW  Elec       q    Type
REMARK                         _______ _______ _______ _____ _____    ______ ____
ROOT
ATOM      1  C   UNL     1       6.915   6.033  17.026  0.00  0.00    +0.000 A 
ATOM      2  C   UNL     1       7.556   7.293  17.048  0.00  0.00    +0.000 A 
ATOM      3  C   UNL     1       8.204   7.763  18.186  0.00  0.00    +0.000 A 
ATOM      4  C   UNL     1       8.244   6.970  19.320  0.00  0.00    +0.000 A 
ATOM      5  C   UNL     1       7.618   5.719  19.321  0.00  0.00    +0.000 A 
ATOM      6  C   UNL     1       6.919   5.247  18.194  0.00  0.00    +0.000 A 
ENDROOT
BRANCH   1   8
ATOM      7  O   UNL     1       5.337   6.383  15.346  0.00  0.00    +0.000 OA
ATOM      8  C   UNL     1       6.274   5.677  15.718  0.00  0.00    +0.000 C 
ATOM      9  N   UNL     1       6.772   4.597  15.020  0.00  0.00    +0.000 N 
ATOM     10  H   UNL     1       7.545   4.088  15.441  0.00  0.00    +0.000 HD
BRANCH   9  11
ATOM     11  C   UNL     1       6.282   4.091  13.793  0.00  0.00    +0.000 A 
ATOM     12  C   UNL     1       4.938   3.777  13.560  0.00  0.00    +0.000 A 
ATOM     13  C   UNL     1       4.525   3.247  12.336  0.00  0.00    +0.000 A 
ATOM     14  C   UNL     1       5.453   3.028  11.325  0.00  0.00    +0.000 A 
ATOM     15  C   UNL     1       6.793   3.352  11.536  0.00  0.00    +0.000 A 
ATOM     16  C   UNL     1       7.204   3.883  12.763  0.00  0.00    +0.000 A 
ENDBRANCH   9  11
ENDBRANCH   1   8
BRANCH   6  17
ATOM     17  O   UNL     1       6.241   4.046  18.193  0.00  0.00    +0.000 OA
BRANCH  17  18
ATOM     18  C   UNL     1       5.151   3.939  19.127  0.00  0.00    +0.000 C 
BRANCH  18  19
ATOM     19  C   UNL     1       3.904   3.618  18.393  0.00  0.00    +0.000 A 
ATOM     20  N   UNL     1       3.681   2.519  17.695  0.00  0.00    +0.000 NA
ATOM     21  N   UNL     1       2.445   2.651  17.142  0.00  0.00    +0.000 NA
ATOM     22  N   UNL     1       1.894   3.802  17.483  0.00  0.00    +0.000 NA
ATOM     23  N   UNL     1       2.777   4.435  18.299  0.00  0.00    +0.000 N 
BRANCH  23  24
ATOM     24  C   UNL     1       2.436   5.702  18.867  0.00  0.00    +0.000 A 
ATOM     25  C   UNL     1       2.546   6.856  18.065  0.00  0.00    +0.000 A 
ATOM     26  C   UNL     1       2.227   8.122  18.570  0.00  0.00    +0.000 A 
ATOM     27  C   UNL     1       1.791   8.258  19.882  0.00  0.00    +0.000 A 
ATOM     28  C   UNL     1       1.669   7.128  20.686  0.00  0.00    +0.000 A 
ATOM     29  C   UNL     1       1.985   5.857  20.183  0.00  0.00    +0.000 A 
ENDBRANCH  23  24
ENDBRANCH  18  19
ENDBRANCH  17  18
ENDBRANCH   6  17
TORSDOF 6
ENDMDL
MODEL 6
REMARK VINA RESULT:      -8.4      3.347      6.461
REMARK  Name = 
REMARK  6 active torsions:
REMARK  status: ('A' for Active; 'I' for Inactive)
REMARK    1  A    between atoms: C_2  and  C_10
REMARK    2  A    between atoms: N_3  and  C_4
REMARK    3  A    between atoms: C_15  and  O_16
REMARK    4  A    between atoms: O_16  and  C_17
REMARK    5  A    between atoms: C_17  and  C_18
REMARK    6  A    between atoms: N_22  and  C_23
REMARK                            x       y       z     vdW  Elec       q    Type
REMARK                         _______ _______ _______ _____ _____    ______ ____
ROOT
ATOM      1  C   UNL     1       2.277   5.051  18.880  0.00  0.00    +0.000 A 
ATOM      2  C   UNL     1       1.497   3.873  18.943  0.00  0.00    +0.000 A 
ATOM      3  C   UNL     1       1.752   2.783  18.117  0.00  0.00    +0.000 A 
ATOM      4  C   UNL     1       2.811   2.841  17.227  0.00  0.00    +0.000 A 
ATOM      5  C   UNL     1       3.598   3.994  17.148  0.00  0.00    +0.000 A 
ATOM      6  C   UNL     1       3.326   5.124  17.943  0.00  0.00    +0.000 A 
ENDROOT
BRANCH   1   8
ATOM      7  O   UNL     1       1.665   5.779  21.009  0.00  0.00    +0.000 OA
ATOM      8  C   UNL     1       1.872   6.125  19.846  0.00  0.00    +0.000 C 
ATOM      9  N   UNL     1       1.762   7.417  19.376  0.00  0.00    +0.000 N 
ATOM     10  H   UNL     1       1.950   7.569  18.389  0.00  0.00    +0.000 HD
BRANCH   9  11
ATOM     11  C   UNL     1       1.364   8.550  20.122  0.00  0.00    +0.000 A 
ATOM     12  C   UNL     1       1.260   8.569  21.517  0.00  0.00    +0.000 A 
ATOM     13  C   UNL     1       0.825   9.713  22.191  0.00  0.00    +0.000 A 
ATOM     14  C   UNL     1       0.493  10.857  21.476  0.00  0.00    +0.000 A 
ATOM     15  C   UNL     1       0.608  10.859  20.087  0.00  0.00    +0.000 A 
ATOM     16  C   UNL     1       1.043   9.713  19.414  0.00  0.00    +0.000 A 
ENDBRANCH   9  11
ENDBRANCH   1   8
BRANCH   6  17
ATOM     17  O   UNL     1       4.047   6.294  17.839  0.00  0.00    +0.000 OA
BRANCH  17  18
ATOM     18  C   UNL     1       5.000   6.351  16.761  0.00  0.00    +0.000 C 
BRANCH  18  19
ATOM     19  C   UNL     1       6.195   5.551  17.119  0.00  0.00    +0.000 A 
ATOM     20  N   UNL     1       6.678   5.389  18.338  0.00  0.00    +0.000 NA
ATOM     21  N   UNL     1       7.805   4.637  18.216  0.00  0.00    +0.000 NA
ATOM     22  N   UNL     1       8.032   4.325  16.952  0.00  0.00    +0.000 NA
ATOM     23  N   UNL     1       7.019   4.864  16.226  0.00  0.00    +0.000 N 
BRANCH  23  24
ATOM     24  C   UNL     1       6.970   4.657  14.812  0.00  0.00    +0.000 A 
ATOM     25  C   UNL     1       6.046   3.725  14.296  0.00  0.00    +0.000 A 
ATOM     26  C   UNL     1       5.956   3.482  12.920  0.00  0.00    +0.000 A 
ATOM     27  C   UNL     1       6.784   4.164  12.037  0.00  0.00    +0.000 A 
ATOM     28  C   UNL     1       7.696   5.093  12.530  0.00  0.00    +0.000 A 
ATOM     29  C   UNL     1       7.788   5.343  13.907  0.00  0.00    +0.000 A 
ENDBRANCH  23  24
ENDBRANCH  18  19
ENDBRANCH  17  18
ENDBRANCH   6  17
TORSDOF 6
ENDMDL
MODEL 7
REMARK VINA RESULT:      -8.3      3.495      6.553
REMARK  Name = 
REMARK  6 active torsions:
REMARK  status: ('A' for Active; 'I' for Inactive)
REMARK    1  A    between atoms: C_2  and  C_10
REMARK    2  A    between atoms: N_3  and  C_4
REMARK    3  A    between atoms: C_15  and  O_16
REMARK    4  A    between atoms: O_16  and  C_17
REMARK    5  A    between atoms: C_17  and  C_18
REMARK    6  A    between atoms: N_22  and  C_23
REMARK                            x       y       z     vdW  Elec       q    Type
REMARK                         _______ _______ _______ _____ _____    ______ ____
ROOT
ATOM      1  C   UNL     1       2.723   4.309  20.293  0.00  0.00    +0.000 A 
ATOM      2  C   UNL     1       2.421   3.410  21.341  0.00  0.00    +0.000 A 
ATOM      3  C   UNL     1       3.115   2.215  21.501  0.00  0.00    +0.000 A 
ATOM      4  C   UNL     1       4.144   1.907  20.628  0.00  0.00    +0.000 A 
ATOM      5  C   UNL     1       4.462   2.782  19.584  0.00  0.00    +0.000 A 
ATOM      6  C   UNL     1       3.741   3.974  19.380  0.00  0.00    +0.000 A 
ENDROOT
BRANCH   1   8
ATOM      7  O   UNL     1       0.703   5.434  20.589  0.00  0.00    +0.000 OA
ATOM      8  C   UNL     1       1.886   5.554  20.272  0.00  0.00    +0.000 C 
ATOM      9  N   UNL     1       2.488   6.739  19.905  0.00  0.00    +0.000 N 
ATOM     10  H   UNL     1       3.472   6.702  19.655  0.00  0.00    +0.000 HD
BRANCH   9  11
ATOM     11  C   UNL     1       1.858   8.001  19.795  0.00  0.00    +0.000 A 
ATOM     12  C   UNL     1       1.202   8.641  20.852  0.00  0.00    +0.000 A 
ATOM     13  C   UNL     1       0.569   9.872  20.666  0.00  0.00    +0.000 A 
ATOM     14  C   UNL     1       0.590  10.483  19.418  0.00  0.00    +0.000 A 
ATOM     15  C   UNL     1       1.254   9.866  18.359  0.00  0.00    +0.000 A 
ATOM     16  C   UNL     1       1.887   8.633  18.547  0.00  0.00    +0.000 A 
ENDBRANCH   9  11
ENDBRANCH   1   8
BRANCH   6  17
ATOM     17  O   UNL     1       3.994   4.820  18.321  0.00  0.00    +0.000 OA
BRANCH  17  18
ATOM     18  C   UNL     1       4.897   4.320  17.318  0.00  0.00    +0.000 C 
BRANCH  18  19
ATOM     19  C   UNL     1       6.033   5.260  17.166  0.00  0.00    +0.000 A 
ATOM     20  N   UNL     1       6.521   6.039  18.115  0.00  0.00    +0.000 NA
ATOM     21  N   UNL     1       7.512   6.776  17.543  0.00  0.00    +0.000 NA
ATOM     22  N   UNL     1       7.653   6.471  16.266  0.00  0.00    +0.000 NA
ATOM     23  N   UNL     1       6.751   5.493  15.992  0.00  0.00    +0.000 N 
BRANCH  23  24
ATOM     24  C   UNL     1       6.696   4.924  14.682  0.00  0.00    +0.000 A 
ATOM     25  C   UNL     1       7.677   5.296  13.740  0.00  0.00    +0.000 A 
ATOM     26  C   UNL     1       7.670   4.771  12.442  0.00  0.00    +0.000 A 
ATOM     27  C   UNL     1       6.687   3.865  12.064  0.00  0.00    +0.000 A 
ATOM     28  C   UNL     1       5.716   3.481  12.984  0.00  0.00    +0.000 A 
ATOM     29  C   UNL     1       5.720   4.002  14.286  0.00  0.00    +0.000 A 
ENDBRANCH  23  24
ENDBRANCH  18  19
ENDBRANCH  17  18
ENDBRANCH   6  17
TORSDOF 6
ENDMDL
MODEL 8
REMARK VINA RESULT:      -8.3      2.804      6.024
REMARK  Name = 
REMARK  6 active torsions:
REMARK  status: ('A' for Active; 'I' for Inactive)
REMARK    1  A    between atoms: C_2  and  C_10
REMARK    2  A    between atoms: N_3  and  C_4
REMARK    3  A    between atoms: C_15  and  O_16
REMARK    4  A    between atoms: O_16  and  C_17
REMARK    5  A    between atoms: C_17  and  C_18
REMARK    6  A    between atoms: N_22  and  C_23
REMARK                            x       y       z     vdW  Elec       q    Type
REMARK                         _______ _______ _______ _____ _____    ______ ____
ROOT
ATOM      1  C   UNL     1       6.623   5.654  17.069  0.00  0.00    +0.000 A 
ATOM      2  C   UNL     1       7.568   6.685  17.274  0.00  0.00    +0.000 A 
ATOM      3  C   UNL     1       8.065   6.980  18.539  0.00  0.00    +0.000 A 
ATOM      4  C   UNL     1       7.643   6.230  19.624  0.00  0.00    +0.000 A 
ATOM      5  C   UNL     1       6.710   5.204  19.445  0.00  0.00    +0.000 A 
ATOM      6  C   UNL     1       6.162   4.922  18.180  0.00  0.00    +0.000 A 
ENDROOT
BRANCH   1   8
ATOM      7  O   UNL     1       5.546   6.372  15.129  0.00  0.00    +0.000 OA
ATOM      8  C   UNL     1       6.200   5.464  15.642  0.00  0.00    +0.000 C 
ATOM      9  N   UNL     1       6.569   4.299  15.002  0.00  0.00    +0.000 N 
ATOM     10  H   UNL     1       7.101   3.621  15.541  0.00  0.00    +0.000 HD
BRANCH   9  11
ATOM     11  C   UNL     1       6.238   3.928  13.678  0.00  0.00    +0.000 A 
ATOM     12  C   UNL     1       7.161   3.875  12.628  0.00  0.00    +0.000 A 
ATOM     13  C   UNL     1       6.761   3.535  11.334  0.00  0.00    +0.000 A 
ATOM     14  C   UNL     1       5.429   3.238  11.074  0.00  0.00    +0.000 A 
ATOM     15  C   UNL     1       4.500   3.269  12.113  0.00  0.00    +0.000 A 
ATOM     16  C   UNL     1       4.902   3.610  13.408  0.00  0.00    +0.000 A 
ENDBRANCH   9  11
ENDBRANCH   1   8
BRANCH   6  17
ATOM     17  O   UNL     1       5.195   3.958  17.989  0.00  0.00    +0.000 OA
BRANCH  17  18
ATOM     18  C   UNL     1       4.726   3.294  19.177  0.00  0.00    +0.000 C 
BRANCH  18  19
ATOM     19  C   UNL     1       3.289   2.966  19.023  0.00  0.00    +0.000 A 
ATOM     20  N   UNL     1       2.790   1.756  18.843  0.00  0.00    +0.000 NA
ATOM     21  N   UNL     1       1.445   1.906  18.694  0.00  0.00    +0.000 NA
ATOM     22  N   UNL     1       1.099   3.178  18.780  0.00  0.00    +0.000 NA
ATOM     23  N   UNL     1       2.236   3.882  19.016  0.00  0.00    +0.000 N 
BRANCH  23  24
ATOM     24  C   UNL     1       2.170   5.298  19.199  0.00  0.00    +0.000 A 
ATOM     25  C   UNL     1       2.485   6.137  18.111  0.00  0.00    +0.000 A 
ATOM     26  C   UNL     1       2.438   7.531  18.236  0.00  0.00    +0.000 A 
ATOM     27  C   UNL     1       2.074   8.110  19.445  0.00  0.00    +0.000 A 
ATOM     28  C   UNL     1       1.752   7.295  20.527  0.00  0.00    +0.000 A 
ATOM     29  C   UNL     1       1.795   5.898  20.407  0.00  0.00    +0.000 A 
ENDBRANCH  23  24
ENDBRANCH  18  19
ENDBRANCH  17  18
ENDBRANCH   6  17
TORSDOF 6
ENDMDL
MODEL 9
REMARK VINA RESULT:      -8.2      2.790      5.986
REMARK  Name = 
REMARK  6 active torsions:
REMARK  status: ('A' for Active; 'I' for Inactive)
REMARK    1  A    between atoms: C_2  and  C_10
REMARK    2  A    between atoms: N_3  and  C_4
REMARK    3  A    between atoms: C_15  and  O_16
REMARK    4  A    between atoms: O_16  and  C_17
REMARK    5  A    between atoms: C_17  and  C_18
REMARK    6  A    between atoms: N_22  and  C_23
REMARK                            x       y       z     vdW  Elec       q    Type
REMARK                         _______ _______ _______ _____ _____    ______ ____
ROOT
ATOM      1  C   UNL     1       3.103   5.015  18.507  0.00  0.00    +0.000 A 
ATOM      2  C   UNL     1       2.046   4.335  17.859  0.00  0.00    +0.000 A 
ATOM      3  C   UNL     1       2.106   2.970  17.600  0.00  0.00    +0.000 A 
ATOM      4  C   UNL     1       3.218   2.251  18.006  0.00  0.00    +0.000 A 
ATOM      5  C   UNL     1       4.275   2.902  18.649  0.00  0.00    +0.000 A 
ATOM      6  C   UNL     1       4.252   4.291  18.879  0.00  0.00    +0.000 A 
ENDROOT
BRANCH   1   8
ATOM      7  O   UNL     1       3.583   7.256  18.076  0.00  0.00    +0.000 OA
ATOM      8  C   UNL     1       2.871   6.482  18.716  0.00  0.00    +0.000 C 
ATOM      9  N   UNL     1       1.885   6.867  19.600  0.00  0.00    +0.000 N 
ATOM     10  H   UNL     1       1.373   6.128  20.075  0.00  0.00    +0.000 HD
BRANCH   9  11
ATOM     11  C   UNL     1       1.544   8.194  19.952  0.00  0.00    +0.000 A 
ATOM     12  C   UNL     1       1.332   8.624  21.266  0.00  0.00    +0.000 A 
ATOM     13  C   UNL     1       0.962   9.942  21.542  0.00  0.00    +0.000 A 
ATOM     14  C   UNL     1       0.803  10.851  20.503  0.00  0.00    +0.000 A 
ATOM     15  C   UNL     1       1.027  10.443  19.189  0.00  0.00    +0.000 A 
ATOM     16  C   UNL     1       1.398   9.122  18.915  0.00  0.00    +0.000 A 
ENDBRANCH   9  11
ENDBRANCH   1   8
BRANCH   6  17
ATOM     17  O   UNL     1       5.308   4.965  19.454  0.00  0.00    +0.000 OA
BRANCH  17  18
ATOM     18  C   UNL     1       6.613   4.646  18.937  0.00  0.00    +0.000 C 
BRANCH  18  19
ATOM     19  C   UNL     1       7.177   5.836  18.258  0.00  0.00    +0.000 A 
ATOM     20  N   UNL     1       7.798   6.841  18.852  0.00  0.00    +0.000 NA
ATOM     21  N   UNL     1       8.102   7.742  17.878  0.00  0.00    +0.000 NA
ATOM     22  N   UNL     1       7.690   7.320  16.696  0.00  0.00    +0.000 NA
ATOM     23  N   UNL     1       7.121   6.102  16.889  0.00  0.00    +0.000 N 
BRANCH  23  24
ATOM     24  C   UNL     1       6.613   5.370  15.771  0.00  0.00    +0.000 A 
ATOM     25  C   UNL     1       7.481   5.086  14.697  0.00  0.00    +0.000 A 
ATOM     26  C   UNL     1       7.036   4.374  13.576  0.00  0.00    +0.000 A 
ATOM     27  C   UNL     1       5.721   3.932  13.509  0.00  0.00    +0.000 A 
ATOM     28  C   UNL     1       4.853   4.197  14.565  0.00  0.00    +0.000 A 
ATOM     29  C   UNL     1       5.294   4.908  15.691  0.00  0.00    +0.000 A 
ENDBRANCH  23  24
ENDBRANCH  18  19
ENDBRANCH  17  18
ENDBRANCH   6  17
TORSDOF 6
ENDMDL
