MODEL 1
REMARK VINA RESULT:      -8.9      0.000      0.000
REMARK  Name = 
REMARK  6 active torsions:
REMARK  status: ('A' for Active; 'I' for Inactive)
REMARK    1  A    between atoms: C_1  and  C_2
REMARK    2  A    between atoms: C_5  and  C_6
REMARK    3  A    between atoms: C_8  and  C_9
REMARK    4  A    between atoms: C_13  and  N_14
REMARK    5  A    between atoms: C_15  and  C_17
REMARK    6  A    between atoms: C_28  and  C_29
REMARK                            x       y       z     vdW  Elec       q    Type
REMARK                         _______ _______ _______ _____ _____    ______ ____
ROOT
ATOM      1  C   UNL     1       3.230   6.069  18.858  0.00  0.00    +0.000 A 
ATOM      2  C   UNL     1       3.409   5.218  19.959  0.00  0.00    +0.000 A 
ATOM      3  C   UNL     1       4.041   3.991  19.799  0.00  0.00    +0.000 A 
ATOM      4  C   UNL     1       4.517   3.615  18.546  0.00  0.00    +0.000 A 
ATOM      5  C   UNL     1       4.388   4.458  17.438  0.00  0.00    +0.000 A 
ATOM      6  C   UNL     1       3.746   5.690  17.603  0.00  0.00    +0.000 A 
ENDROOT
BRANCH   1   9
ATOM      7  C   UNL     1       1.272   8.772  19.936  0.00  0.00    +0.000 A 
ATOM      8  N   UNL     1       1.858   7.628  20.216  0.00  0.00    +0.000 NA
ATOM      9  C   UNL     1       2.482   7.310  19.028  0.00  0.00    +0.000 A 
ATOM     10  N   UNL     1       2.296   8.214  18.054  0.00  0.00    +0.000 NA
ATOM     11  O   UNL     1       1.493   9.184  18.654  0.00  0.00    +0.000 OA
BRANCH   7  16
ATOM     12  C   UNL     1      -1.697  12.393  23.201  0.00  0.00    +0.000 C 
ATOM     13  C   UNL     1      -0.944  11.414  22.351  0.00  0.00    +0.000 A 
ATOM     14  C   UNL     1      -0.483  10.214  22.902  0.00  0.00    +0.000 A 
ATOM     15  C   UNL     1       0.221   9.313  22.109  0.00  0.00    +0.000 A 
ATOM     16  C   UNL     1       0.467   9.644  20.782  0.00  0.00    +0.000 A 
ATOM     17  N   UNL     1       0.008  10.789  20.219  0.00  0.00    +0.000 NA
ATOM     18  C   UNL     1      -0.695  11.649  20.995  0.00  0.00    +0.000 A 
ATOM     19  C   UNL     1      -1.216  12.877  20.303  0.00  0.00    +0.000 C 
ENDBRANCH   7  16
ENDBRANCH   1   9
BRANCH   5  20
ATOM     20  N   UNL     1       4.897   4.120  16.156  0.00  0.00    +0.000 N 
ATOM     21  C   UNL     1       5.754   4.908  15.414  0.00  0.00    +0.000 C 
ATOM     22  O   UNL     1       6.283   5.946  15.818  0.00  0.00    +0.000 OA
ATOM     23  H   UNL     1       4.638   3.211  15.787  0.00  0.00    +0.000 HD
BRANCH  21  24
ATOM     24  C   UNL     1       6.102   4.486  14.032  0.00  0.00    +0.000 A 
ATOM     25  C   UNL     1       5.174   3.676  13.350  0.00  0.00    +0.000 A 
ATOM     26  C   UNL     1       5.440   3.206  12.066  0.00  0.00    +0.000 A 
ATOM     27  C   UNL     1       6.644   3.528  11.449  0.00  0.00    +0.000 A 
ATOM     28  C   UNL     1       7.572   4.336  12.112  0.00  0.00    +0.000 A 
ATOM     29  C   UNL     1       7.295   4.815  13.394  0.00  0.00    +0.000 A 
ATOM     30  F   UNL     1       8.205   5.599  13.992  0.00  0.00    +0.000 F 
ENDBRANCH  21  24
ENDBRANCH   5  20
TORSDOF 4
ENDMDL
MODEL 2
REMARK VINA RESULT:      -8.9      3.738      5.412
REMARK  Name = 
REMARK  6 active torsions:
REMARK  status: ('A' for Active; 'I' for Inactive)
REMARK    1  A    between atoms: C_1  and  C_2
REMARK    2  A    between atoms: C_5  and  C_6
REMARK    3  A    between atoms: C_8  and  C_9
REMARK    4  A    between atoms: C_13  and  N_14
REMARK    5  A    between atoms: C_15  and  C_17
REMARK    6  A    between atoms: C_28  and  C_29
REMARK                            x       y       z     vdW  Elec       q    Type
REMARK                         _______ _______ _______ _____ _____    ______ ____
ROOT
ATOM      1  C   UNL     1       1.060   9.362  20.094  0.00  0.00    +0.000 A 
ATOM      2  C   UNL     1       1.143  10.129  18.922  0.00  0.00    +0.000 A 
ATOM      3  C   UNL     1       1.820   9.638  17.812  0.00  0.00    +0.000 A 
ATOM      4  C   UNL     1       2.397   8.372  17.857  0.00  0.00    +0.000 A 
ATOM      5  C   UNL     1       2.298   7.569  18.997  0.00  0.00    +0.000 A 
ATOM      6  C   UNL     1       1.620   8.070  20.114  0.00  0.00    +0.000 A 
ENDROOT
BRANCH   1   9
ATOM      7  C   UNL     1      -0.656  11.283  22.476  0.00  0.00    +0.000 A 
ATOM      8  N   UNL     1      -0.318  11.092  21.219  0.00  0.00    +0.000 NA
ATOM      9  C   UNL     1       0.427   9.934  21.278  0.00  0.00    +0.000 A 
ATOM     10  N   UNL     1       0.546   9.423  22.514  0.00  0.00    +0.000 NA
ATOM     11  O   UNL     1      -0.171  10.317  23.310  0.00  0.00    +0.000 OA
BRANCH   7  16
ATOM     12  C   UNL     1      -4.038  15.336  24.649  0.00  0.00    +0.000 C 
ATOM     13  C   UNL     1      -3.122  14.280  24.106  0.00  0.00    +0.000 A 
ATOM     14  C   UNL     1      -1.841  14.621  23.661  0.00  0.00    +0.000 A 
ATOM     15  C   UNL     1      -0.999  13.637  23.153  0.00  0.00    +0.000 A 
ATOM     16  C   UNL     1      -1.468  12.332  23.080  0.00  0.00    +0.000 A 
ATOM     17  N   UNL     1      -2.697  11.971  23.527  0.00  0.00    +0.000 NA
ATOM     18  C   UNL     1      -3.500  12.934  24.041  0.00  0.00    +0.000 A 
ATOM     19  C   UNL     1      -4.829  12.467  24.563  0.00  0.00    +0.000 C 
ENDBRANCH   7  16
ENDBRANCH   1   9
BRANCH   5  20
ATOM     20  N   UNL     1       2.842   6.258  19.060  0.00  0.00    +0.000 N 
ATOM     21  C   UNL     1       2.275   5.140  18.484  0.00  0.00    +0.000 C 
ATOM     22  O   UNL     1       1.293   5.153  17.738  0.00  0.00    +0.000 OA
ATOM     23  H   UNL     1       3.735   6.157  19.531  0.00  0.00    +0.000 HD
BRANCH  21  24
ATOM     24  C   UNL     1       2.888   3.810  18.742  0.00  0.00    +0.000 A 
ATOM     25  C   UNL     1       3.380   3.565  20.038  0.00  0.00    +0.000 A 
ATOM     26  C   UNL     1       4.003   2.360  20.354  0.00  0.00    +0.000 A 
ATOM     27  C   UNL     1       4.156   1.385  19.372  0.00  0.00    +0.000 A 
ATOM     28  C   UNL     1       3.668   1.613  18.083  0.00  0.00    +0.000 A 
ATOM     29  C   UNL     1       3.033   2.818  17.776  0.00  0.00    +0.000 A 
ATOM     30  F   UNL     1       2.566   2.993  16.530  0.00  0.00    +0.000 F 
ENDBRANCH  21  24
ENDBRANCH   5  20
TORSDOF 4
ENDMDL
MODEL 3
REMARK VINA RESULT:      -8.7      3.605      5.297
REMARK  Name = 
REMARK  6 active torsions:
REMARK  status: ('A' for Active; 'I' for Inactive)
REMARK    1  A    between atoms: C_1  and  C_2
REMARK    2  A    between atoms: C_5  and  C_6
REMARK    3  A    between atoms: C_8  and  C_9
REMARK    4  A    between atoms: C_13  and  N_14
REMARK    5  A    between atoms: C_15  and  C_17
REMARK    6  A    between atoms: C_28  and  C_29
REMARK                            x       y       z     vdW  Elec       q    Type
REMARK                         _______ _______ _______ _____ _____    ______ ____
ROOT
ATOM      1  C   UNL     1       0.922   9.787  20.207  0.00  0.00    +0.000 A 
ATOM      2  C   UNL     1       1.185  10.581  19.080  0.00  0.00    +0.000 A 
ATOM      3  C   UNL     1       1.861  10.045  17.990  0.00  0.00    +0.000 A 
ATOM      4  C   UNL     1       2.258   8.710  18.009  0.00  0.00    +0.000 A 
ATOM      5  C   UNL     1       1.976   7.885  19.102  0.00  0.00    +0.000 A 
ATOM      6  C   UNL     1       1.300   8.430  20.199  0.00  0.00    +0.000 A 
ENDROOT
BRANCH   1   9
ATOM      7  C   UNL     1      -0.752  11.795  22.548  0.00  0.00    +0.000 A 
ATOM      8  N   UNL     1      -0.406  11.579  21.297  0.00  0.00    +0.000 NA
ATOM      9  C   UNL     1       0.295  10.394  21.377  0.00  0.00    +0.000 A 
ATOM     10  N   UNL     1       0.380   9.892  22.619  0.00  0.00    +0.000 NA
ATOM     11  O   UNL     1      -0.313  10.820  23.397  0.00  0.00    +0.000 OA
BRANCH   7  16
ATOM     12  C   UNL     1      -3.631  16.043  25.048  0.00  0.00    +0.000 C 
ATOM     13  C   UNL     1      -2.900  14.928  24.360  0.00  0.00    +0.000 A 
ATOM     14  C   UNL     1      -3.568  13.741  24.042  0.00  0.00    +0.000 A 
ATOM     15  C   UNL     1      -2.882  12.709  23.410  0.00  0.00    +0.000 A 
ATOM     16  C   UNL     1      -1.532  12.879  23.130  0.00  0.00    +0.000 A 
ATOM     17  N   UNL     1      -0.869  14.029  23.407  0.00  0.00    +0.000 NA
ATOM     18  C   UNL     1      -1.552  15.036  24.002  0.00  0.00    +0.000 A 
ATOM     19  C   UNL     1      -0.776  16.301  24.240  0.00  0.00    +0.000 C 
ENDBRANCH   7  16
ENDBRANCH   1   9
BRANCH   5  20
ATOM     20  N   UNL     1       2.333   6.510  19.135  0.00  0.00    +0.000 N 
ATOM     21  C   UNL     1       3.154   5.886  18.217  0.00  0.00    +0.000 C 
ATOM     22  O   UNL     1       3.780   6.463  17.325  0.00  0.00    +0.000 OA
ATOM     23  H   UNL     1       1.987   5.967  19.919  0.00  0.00    +0.000 HD
BRANCH  21  24
ATOM     24  C   UNL     1       3.336   4.414  18.303  0.00  0.00    +0.000 A 
ATOM     25  C   UNL     1       2.398   3.605  17.632  0.00  0.00    +0.000 A 
ATOM     26  C   UNL     1       2.475   2.216  17.692  0.00  0.00    +0.000 A 
ATOM     27  C   UNL     1       3.484   1.612  18.437  0.00  0.00    +0.000 A 
ATOM     28  C   UNL     1       4.423   2.402  19.105  0.00  0.00    +0.000 A 
ATOM     29  C   UNL     1       4.350   3.794  19.029  0.00  0.00    +0.000 A 
ATOM     30  F   UNL     1       5.280   4.518  19.673  0.00  0.00    +0.000 F 
ENDBRANCH  21  24
ENDBRANCH   5  20
TORSDOF 4
ENDMDL
MODEL 4
REMARK VINA RESULT:      -8.7      3.588      5.317
REMARK  Name = 
REMARK  6 active torsions:
REMARK  status: ('A' for Active; 'I' for Inactive)
REMARK    1  A    between atoms: C_1  and  C_2
REMARK    2  A    between atoms: C_5  and  C_6
REMARK    3  A    between atoms: C_8  and  C_9
REMARK    4  A    between atoms: C_13  and  N_14
REMARK    5  A    between atoms: C_15  and  C_17
REMARK    6  A    between atoms: C_28  and  C_29
REMARK                            x       y       z     vdW  Elec       q    Type
REMARK                         _______ _______ _______ _____ _____    ______ ____
ROOT
ATOM      1  C   UNL     1       0.884   9.803  20.183  0.00  0.00    +0.000 A 
ATOM      2  C   UNL     1       1.147  10.602  19.059  0.00  0.00    +0.000 A 
ATOM      3  C   UNL     1       1.821  10.070  17.967  0.00  0.00    +0.000 A 
ATOM      4  C   UNL     1       2.218   8.736  17.979  0.00  0.00    +0.000 A 
ATOM      5  C   UNL     1       1.937   7.906  19.069  0.00  0.00    +0.000 A 
ATOM      6  C   UNL     1       1.263   8.447  20.169  0.00  0.00    +0.000 A 
ENDROOT
BRANCH   1   9
ATOM      7  C   UNL     1      -0.855  11.760  22.518  0.00  0.00    +0.000 A 
ATOM      8  N   UNL     1      -0.548  11.519  21.262  0.00  0.00    +0.000 NA
ATOM      9  C   UNL     1       0.260  10.406  21.356  0.00  0.00    +0.000 A 
ATOM     10  N   UNL     1       0.446   9.970  22.612  0.00  0.00    +0.000 NA
ATOM     11  O   UNL     1      -0.293  10.868  23.384  0.00  0.00    +0.000 OA
BRANCH   7  16
ATOM     12  C   UNL     1      -4.340  15.805  24.540  0.00  0.00    +0.000 C 
ATOM     13  C   UNL     1      -3.402  14.745  24.042  0.00  0.00    +0.000 A 
ATOM     14  C   UNL     1      -2.041  15.027  23.887  0.00  0.00    +0.000 A 
ATOM     15  C   UNL     1      -1.179  14.041  23.419  0.00  0.00    +0.000 A 
ATOM     16  C   UNL     1      -1.703  12.796  23.093  0.00  0.00    +0.000 A 
ATOM     17  N   UNL     1      -3.014  12.492  23.257  0.00  0.00    +0.000 NA
ATOM     18  C   UNL     1      -3.842  13.453  23.735  0.00  0.00    +0.000 A 
ATOM     19  C   UNL     1      -5.272  13.041  23.939  0.00  0.00    +0.000 C 
ENDBRANCH   7  16
ENDBRANCH   1   9
BRANCH   5  20
ATOM     20  N   UNL     1       2.294   6.531  19.095  0.00  0.00    +0.000 N 
ATOM     21  C   UNL     1       3.184   5.930  18.228  0.00  0.00    +0.000 C 
ATOM     22  O   UNL     1       3.875   6.529  17.401  0.00  0.00    +0.000 OA
ATOM     23  H   UNL     1       1.890   5.969  19.837  0.00  0.00    +0.000 HD
BRANCH  21  24
ATOM     24  C   UNL     1       3.362   4.456  18.291  0.00  0.00    +0.000 A 
ATOM     25  C   UNL     1       2.422   3.660  17.609  0.00  0.00    +0.000 A 
ATOM     26  C   UNL     1       2.495   2.270  17.649  0.00  0.00    +0.000 A 
ATOM     27  C   UNL     1       3.503   1.652  18.383  0.00  0.00    +0.000 A 
ATOM     28  C   UNL     1       4.445   2.430  19.061  0.00  0.00    +0.000 A 
ATOM     29  C   UNL     1       4.376   3.823  19.006  0.00  0.00    +0.000 A 
ATOM     30  F   UNL     1       5.308   4.534  19.659  0.00  0.00    +0.000 F 
ENDBRANCH  21  24
ENDBRANCH   5  20
TORSDOF 4
ENDMDL
MODEL 5
REMARK VINA RESULT:      -8.6      3.631      5.390
REMARK  Name = 
REMARK  6 active torsions:
REMARK  status: ('A' for Active; 'I' for Inactive)
REMARK    1  A    between atoms: C_1  and  C_2
REMARK    2  A    between atoms: C_5  and  C_6
REMARK    3  A    between atoms: C_8  and  C_9
REMARK    4  A    between atoms: C_13  and  N_14
REMARK    5  A    between atoms: C_15  and  C_17
REMARK    6  A    between atoms: C_28  and  C_29
REMARK                            x       y       z     vdW  Elec       q    Type
REMARK                         _______ _______ _______ _____ _____    ______ ____
ROOT
ATOM      1  C   UNL     1       0.925   9.598  20.254  0.00  0.00    +0.000 A 
ATOM      2  C   UNL     1       1.205  10.357  19.108  0.00  0.00    +0.000 A 
ATOM      3  C   UNL     1       1.870   9.779  18.032  0.00  0.00    +0.000 A 
ATOM      4  C   UNL     1       2.239   8.438  18.085  0.00  0.00    +0.000 A 
ATOM      5  C   UNL     1       1.940   7.646  19.198  0.00  0.00    +0.000 A 
ATOM      6  C   UNL     1       1.276   8.234  20.281  0.00  0.00    +0.000 A 
ENDROOT
BRANCH   1   9
ATOM      7  C   UNL     1      -0.756  11.671  22.531  0.00  0.00    +0.000 A 
ATOM      8  N   UNL     1      -0.441  11.395  21.284  0.00  0.00    +0.000 NA
ATOM      9  C   UNL     1       0.312  10.247  21.408  0.00  0.00    +0.000 A 
ATOM     10  N   UNL     1       0.459   9.824  22.674  0.00  0.00    +0.000 NA
ATOM     11  O   UNL     1      -0.248  10.767  23.420  0.00  0.00    +0.000 OA
BRANCH   7  16
ATOM     12  C   UNL     1      -3.793  15.874  24.918  0.00  0.00    +0.000 C 
ATOM     13  C   UNL     1      -3.013  14.777  24.256  0.00  0.00    +0.000 A 
ATOM     14  C   UNL     1      -3.680  13.714  23.639  0.00  0.00    +0.000 A 
ATOM     15  C   UNL     1      -2.950  12.697  23.033  0.00  0.00    +0.000 A 
ATOM     16  C   UNL     1      -1.562  12.755  23.077  0.00  0.00    +0.000 A 
ATOM     17  N   UNL     1      -0.893  13.787  23.647  0.00  0.00    +0.000 NA
ATOM     18  C   UNL     1      -1.615  14.784  24.216  0.00  0.00    +0.000 A 
ATOM     19  C   UNL     1      -0.819  15.922  24.789  0.00  0.00    +0.000 C 
ENDBRANCH   7  16
ENDBRANCH   1   9
BRANCH   5  20
ATOM     20  N   UNL     1       2.268   6.266  19.266  0.00  0.00    +0.000 N 
ATOM     21  C   UNL     1       3.288   5.662  18.558  0.00  0.00    +0.000 C 
ATOM     22  O   UNL     1       4.120   6.260  17.873  0.00  0.00    +0.000 OA
ATOM     23  H   UNL     1       1.734   5.701  19.918  0.00  0.00    +0.000 HD
BRANCH  21  24
ATOM     24  C   UNL     1       3.433   4.185  18.629  0.00  0.00    +0.000 A 
ATOM     25  C   UNL     1       4.247   3.663  19.653  0.00  0.00    +0.000 A 
ATOM     26  C   UNL     1       4.465   2.292  19.767  0.00  0.00    +0.000 A 
ATOM     27  C   UNL     1       3.884   1.422  18.850  0.00  0.00    +0.000 A 
ATOM     28  C   UNL     1       3.071   1.925  17.832  0.00  0.00    +0.000 A 
ATOM     29  C   UNL     1       2.844   3.299  17.730  0.00  0.00    +0.000 A 
ATOM     30  F   UNL     1       2.045   3.742  16.747  0.00  0.00    +0.000 F 
ENDBRANCH  21  24
ENDBRANCH   5  20
TORSDOF 4
ENDMDL
MODEL 6
REMARK VINA RESULT:      -8.5      1.727      2.216
REMARK  Name = 
REMARK  6 active torsions:
REMARK  status: ('A' for Active; 'I' for Inactive)
REMARK    1  A    between atoms: C_1  and  C_2
REMARK    2  A    between atoms: C_5  and  C_6
REMARK    3  A    between atoms: C_8  and  C_9
REMARK    4  A    between atoms: C_13  and  N_14
REMARK    5  A    between atoms: C_15  and  C_17
REMARK    6  A    between atoms: C_28  and  C_29
REMARK                            x       y       z     vdW  Elec       q    Type
REMARK                         _______ _______ _______ _____ _____    ______ ____
ROOT
ATOM      1  C   UNL     1       2.773   5.689  19.193  0.00  0.00    +0.000 A 
ATOM      2  C   UNL     1       2.816   4.608  20.086  0.00  0.00    +0.000 A 
ATOM      3  C   UNL     1       3.363   3.393  19.687  0.00  0.00    +0.000 A 
ATOM      4  C   UNL     1       3.888   3.257  18.405  0.00  0.00    +0.000 A 
ATOM      5  C   UNL     1       3.893   4.328  17.506  0.00  0.00    +0.000 A 
ATOM      6  C   UNL     1       3.337   5.547  17.910  0.00  0.00    +0.000 A 
ENDROOT
BRANCH   1   9
ATOM      7  C   UNL     1       1.381   8.895  19.496  0.00  0.00    +0.000 A 
ATOM      8  N   UNL     1       1.969   7.993  18.740  0.00  0.00    +0.000 NA
ATOM      9  C   UNL     1       2.111   6.924  19.599  0.00  0.00    +0.000 A 
ATOM     10  N   UNL     1       1.631   7.147  20.833  0.00  0.00    +0.000 NA
ATOM     11  O   UNL     1       1.147   8.453  20.767  0.00  0.00    +0.000 OA
BRANCH   7  16
ATOM     12  C   UNL     1      -0.200  14.276  18.435  0.00  0.00    +0.000 C 
ATOM     13  C   UNL     1       0.193  12.850  18.684  0.00  0.00    +0.000 A 
ATOM     14  C   UNL     1      -0.786  11.890  18.959  0.00  0.00    +0.000 A 
ATOM     15  C   UNL     1      -0.414  10.570  19.195  0.00  0.00    +0.000 A 
ATOM     16  C   UNL     1       0.936  10.244  19.172  0.00  0.00    +0.000 A 
ATOM     17  N   UNL     1       1.902  11.152  18.883  0.00  0.00    +0.000 NA
ATOM     18  C   UNL     1       1.526  12.430  18.633  0.00  0.00    +0.000 A 
ATOM     19  C   UNL     1       2.634  13.378  18.273  0.00  0.00    +0.000 C 
ENDBRANCH   7  16
ENDBRANCH   1   9
BRANCH   5  20
ATOM     20  N   UNL     1       4.456   4.232  16.205  0.00  0.00    +0.000 N 
ATOM     21  C   UNL     1       5.808   4.257  15.927  0.00  0.00    +0.000 C 
ATOM     22  O   UNL     1       6.702   4.241  16.776  0.00  0.00    +0.000 OA
ATOM     23  H   UNL     1       3.808   4.095  15.437  0.00  0.00    +0.000 HD
BRANCH  21  24
ATOM     24  C   UNL     1       6.247   4.279  14.507  0.00  0.00    +0.000 A 
ATOM     25  C   UNL     1       5.559   3.447  13.603  0.00  0.00    +0.000 A 
ATOM     26  C   UNL     1       5.932   3.380  12.264  0.00  0.00    +0.000 A 
ATOM     27  C   UNL     1       7.009   4.134  11.808  0.00  0.00    +0.000 A 
ATOM     28  C   UNL     1       7.699   4.967  12.693  0.00  0.00    +0.000 A 
ATOM     29  C   UNL     1       7.312   5.041  14.033  0.00  0.00    +0.000 A 
ATOM     30  F   UNL     1       7.991   5.863  14.848  0.00  0.00    +0.000 F 
ENDBRANCH  21  24
ENDBRANCH   5  20
TORSDOF 4
ENDMDL
MODEL 7
REMARK VINA RESULT:      -8.5      4.352     10.888
REMARK  Name = 
REMARK  6 active torsions:
REMARK  status: ('A' for Active; 'I' for Inactive)
REMARK    1  A    between atoms: C_1  and  C_2
REMARK    2  A    between atoms: C_5  and  C_6
REMARK    3  A    between atoms: C_8  and  C_9
REMARK    4  A    between atoms: C_13  and  N_14
REMARK    5  A    between atoms: C_15  and  C_17
REMARK    6  A    between atoms: C_28  and  C_29
REMARK                            x       y       z     vdW  Elec       q    Type
REMARK                         _______ _______ _______ _____ _____    ______ ____
ROOT
ATOM      1  C   UNL     1       0.925  10.776  18.822  0.00  0.00    +0.000 A 
ATOM      2  C   UNL     1       1.700  11.919  18.570  0.00  0.00    +0.000 A 
ATOM      3  C   UNL     1       1.091  13.162  18.448  0.00  0.00    +0.000 A 
ATOM      4  C   UNL     1      -0.289  13.276  18.597  0.00  0.00    +0.000 A 
ATOM      5  C   UNL     1      -1.082  12.161  18.886  0.00  0.00    +0.000 A 
ATOM      6  C   UNL     1      -0.465  10.910  19.002  0.00  0.00    +0.000 A 
ENDROOT
BRANCH   1   9
ATOM      7  C   UNL     1       2.650   7.786  18.190  0.00  0.00    +0.000 A 
ATOM      8  N   UNL     1       2.287   8.982  17.778  0.00  0.00    +0.000 NA
ATOM      9  C   UNL     1       1.573   9.468  18.853  0.00  0.00    +0.000 A 
ATOM     10  N   UNL     1       1.497   8.618  19.889  0.00  0.00    +0.000 NA
ATOM     11  O   UNL     1       2.211   7.502  19.451  0.00  0.00    +0.000 OA
BRANCH   7  16
ATOM     12  C   UNL     1       5.857   3.698  15.827  0.00  0.00    +0.000 C 
ATOM     13  C   UNL     1       5.005   4.785  16.411  0.00  0.00    +0.000 A 
ATOM     14  C   UNL     1       5.268   6.125  16.108  0.00  0.00    +0.000 A 
ATOM     15  C   UNL     1       4.478   7.128  16.659  0.00  0.00    +0.000 A 
ATOM     16  C   UNL     1       3.450   6.768  17.522  0.00  0.00    +0.000 A 
ATOM     17  N   UNL     1       3.160   5.476  17.812  0.00  0.00    +0.000 NA
ATOM     18  C   UNL     1       3.923   4.505  17.253  0.00  0.00    +0.000 A 
ATOM     19  C   UNL     1       3.523   3.093  17.574  0.00  0.00    +0.000 C 
ENDBRANCH   7  16
ENDBRANCH   1   9
BRANCH   5  20
ATOM     20  N   UNL     1      -2.486  12.250  19.081  0.00  0.00    +0.000 N 
ATOM     21  C   UNL     1      -3.437  11.784  18.197  0.00  0.00    +0.000 C 
ATOM     22  O   UNL     1      -3.194  11.121  17.185  0.00  0.00    +0.000 OA
ATOM     23  H   UNL     1      -2.800  12.651  19.959  0.00  0.00    +0.000 HD
BRANCH  21  24
ATOM     24  C   UNL     1      -4.871  12.063  18.472  0.00  0.00    +0.000 A 
ATOM     25  C   UNL     1      -5.736  12.158  17.365  0.00  0.00    +0.000 A 
ATOM     26  C   UNL     1      -7.086  12.454  17.533  0.00  0.00    +0.000 A 
ATOM     27  C   UNL     1      -7.591  12.673  18.811  0.00  0.00    +0.000 A 
ATOM     28  C   UNL     1      -6.745  12.577  19.919  0.00  0.00    +0.000 A 
ATOM     29  C   UNL     1      -5.395  12.266  19.746  0.00  0.00    +0.000 A 
ATOM     30  F   UNL     1      -4.617  12.169  20.836  0.00  0.00    +0.000 F 
ENDBRANCH  21  24
ENDBRANCH   5  20
TORSDOF 4
ENDMDL
MODEL 8
REMARK VINA RESULT:      -8.4      3.307      9.806
REMARK  Name = 
REMARK  6 active torsions:
REMARK  status: ('A' for Active; 'I' for Inactive)
REMARK    1  A    between atoms: C_1  and  C_2
REMARK    2  A    between atoms: C_5  and  C_6
REMARK    3  A    between atoms: C_8  and  C_9
REMARK    4  A    between atoms: C_13  and  N_14
REMARK    5  A    between atoms: C_15  and  C_17
REMARK    6  A    between atoms: C_28  and  C_29
REMARK                            x       y       z     vdW  Elec       q    Type
REMARK                         _______ _______ _______ _____ _____    ______ ____
ROOT
ATOM      1  C   UNL     1       0.893   8.631  20.915  0.00  0.00    +0.000 A 
ATOM      2  C   UNL     1       0.148   8.526  22.101  0.00  0.00    +0.000 A 
ATOM      3  C   UNL     1      -0.466   9.650  22.642  0.00  0.00    +0.000 A 
ATOM      4  C   UNL     1      -0.360  10.877  21.993  0.00  0.00    +0.000 A 
ATOM      5  C   UNL     1       0.343  11.004  20.791  0.00  0.00    +0.000 A 
ATOM      6  C   UNL     1       0.964   9.872  20.253  0.00  0.00    +0.000 A 
ENDROOT
BRANCH   1   9
ATOM      7  C   UNL     1       2.850   6.284  19.191  0.00  0.00    +0.000 A 
ATOM      8  N   UNL     1       2.468   7.534  19.342  0.00  0.00    +0.000 NA
ATOM      9  C   UNL     1       1.607   7.461  20.416  0.00  0.00    +0.000 A 
ATOM     10  N   UNL     1       1.460   6.223  20.915  0.00  0.00    +0.000 NA
ATOM     11  O   UNL     1       2.283   5.441  20.103  0.00  0.00    +0.000 OA
BRANCH   7  16
ATOM     12  C   UNL     1       6.502   4.235  15.313  0.00  0.00    +0.000 C 
ATOM     13  C   UNL     1       5.543   4.737  16.350  0.00  0.00    +0.000 A 
ATOM     14  C   UNL     1       4.307   4.107  16.529  0.00  0.00    +0.000 A 
ATOM     15  C   UNL     1       3.420   4.583  17.488  0.00  0.00    +0.000 A 
ATOM     16  C   UNL     1       3.780   5.698  18.235  0.00  0.00    +0.000 A 
ATOM     17  N   UNL     1       4.982   6.311  18.097  0.00  0.00    +0.000 NA
ATOM     18  C   UNL     1       5.848   5.825  17.175  0.00  0.00    +0.000 A 
ATOM     19  C   UNL     1       7.180   6.516  17.102  0.00  0.00    +0.000 C 
ENDBRANCH   7  16
ENDBRANCH   1   9
BRANCH   5  20
ATOM     20  N   UNL     1       0.436  12.234  20.086  0.00  0.00    +0.000 N 
ATOM     21  C   UNL     1       1.308  13.258  20.397  0.00  0.00    +0.000 C 
ATOM     22  O   UNL     1       2.199  13.190  21.247  0.00  0.00    +0.000 OA
ATOM     23  H   UNL     1      -0.158  12.339  19.270  0.00  0.00    +0.000 HD
BRANCH  21  24
ATOM     24  C   UNL     1       1.205  14.540  19.652  0.00  0.00    +0.000 A 
ATOM     25  C   UNL     1      -0.075  15.112  19.523  0.00  0.00    +0.000 A 
ATOM     26  C   UNL     1      -0.265  16.291  18.808  0.00  0.00    +0.000 A 
ATOM     27  C   UNL     1       0.822  16.912  18.199  0.00  0.00    +0.000 A 
ATOM     28  C   UNL     1       2.098  16.358  18.323  0.00  0.00    +0.000 A 
ATOM     29  C   UNL     1       2.285  15.182  19.053  0.00  0.00    +0.000 A 
ATOM     30  F   UNL     1       3.529  14.689  19.161  0.00  0.00    +0.000 F 
ENDBRANCH  21  24
ENDBRANCH   5  20
TORSDOF 4
ENDMDL
MODEL 9
REMARK VINA RESULT:      -8.4      3.617      5.274
REMARK  Name = 
REMARK  6 active torsions:
REMARK  status: ('A' for Active; 'I' for Inactive)
REMARK    1  A    between atoms: C_1  and  C_2
REMARK    2  A    between atoms: C_5  and  C_6
REMARK    3  A    between atoms: C_8  and  C_9
REMARK    4  A    between atoms: C_13  and  N_14
REMARK    5  A    between atoms: C_15  and  C_17
REMARK    6  A    between atoms: C_28  and  C_29
REMARK                            x       y       z     vdW  Elec       q    Type
REMARK                         _______ _______ _______ _____ _____    ______ ____
ROOT
ATOM      1  C   UNL     1       0.855   9.919  19.981  0.00  0.00    +0.000 A 
ATOM      2  C   UNL     1       1.245  10.702  18.884  0.00  0.00    +0.000 A 
ATOM      3  C   UNL     1       2.014  10.148  17.868  0.00  0.00    +0.000 A 
ATOM      4  C   UNL     1       2.380   8.806  17.929  0.00  0.00    +0.000 A 
ATOM      5  C   UNL     1       1.975   7.991  18.991  0.00  0.00    +0.000 A 
ATOM      6  C   UNL     1       1.205   8.555  20.014  0.00  0.00    +0.000 A 
ENDROOT
BRANCH   1   9
ATOM      7  C   UNL     1      -1.296  11.727  22.083  0.00  0.00    +0.000 A 
ATOM      8  N   UNL     1      -0.985  11.329  20.868  0.00  0.00    +0.000 NA
ATOM      9  C   UNL     1       0.128  10.544  21.081  0.00  0.00    +0.000 A 
ATOM     10  N   UNL     1       0.494  10.453  22.370  0.00  0.00    +0.000 NA
ATOM     11  O   UNL     1      -0.449  11.237  23.035  0.00  0.00    +0.000 OA
BRANCH   7  16
ATOM     12  C   UNL     1      -5.412  15.229  23.919  0.00  0.00    +0.000 C 
ATOM     13  C   UNL     1      -4.358  14.280  23.431  0.00  0.00    +0.000 A 
ATOM     14  C   UNL     1      -4.152  13.062  24.086  0.00  0.00    +0.000 A 
ATOM     15  C   UNL     1      -3.168  12.190  23.631  0.00  0.00    +0.000 A 
ATOM     16  C   UNL     1      -2.394  12.567  22.541  0.00  0.00    +0.000 A 
ATOM     17  N   UNL     1      -2.590  13.732  21.876  0.00  0.00    +0.000 NA
ATOM     18  C   UNL     1      -3.566  14.565  22.313  0.00  0.00    +0.000 A 
ATOM     19  C   UNL     1      -3.768  15.816  21.507  0.00  0.00    +0.000 C 
ENDBRANCH   7  16
ENDBRANCH   1   9
BRANCH   5  20
ATOM     20  N   UNL     1       2.299   6.610  19.063  0.00  0.00    +0.000 N 
ATOM     21  C   UNL     1       3.187   5.964  18.227  0.00  0.00    +0.000 C 
ATOM     22  O   UNL     1       3.904   6.522  17.394  0.00  0.00    +0.000 OA
ATOM     23  H   UNL     1       1.871   6.079  19.814  0.00  0.00    +0.000 HD
BRANCH  21  24
ATOM     24  C   UNL     1       3.330   4.488  18.335  0.00  0.00    +0.000 A 
ATOM     25  C   UNL     1       2.373   3.695  17.675  0.00  0.00    +0.000 A 
ATOM     26  C   UNL     1       2.413   2.305  17.757  0.00  0.00    +0.000 A 
ATOM     27  C   UNL     1       3.404   1.686  18.513  0.00  0.00    +0.000 A 
ATOM     28  C   UNL     1       4.363   2.461  19.170  0.00  0.00    +0.000 A 
ATOM     29  C   UNL     1       4.327   3.854  19.073  0.00  0.00    +0.000 A 
ATOM     30  F   UNL     1       5.274   4.562  19.708  0.00  0.00    +0.000 F 
ENDBRANCH  21  24
ENDBRANCH   5  20
TORSDOF 4
ENDMDL
