MODEL 1
REMARK VINA RESULT:      -8.0      0.000      0.000
REMARK  Name = 
REMARK  3 active torsions:
REMARK  status: ('A' for Active; 'I' for Inactive)
REMARK    1  A    between atoms: C_2  and  C_21
REMARK    2  A    between atoms: N_3  and  C_4
REMARK    3  A    between atoms: C_9  and  C_11
REMARK                            x       y       z     vdW  Elec       q    Type
REMARK                         _______ _______ _______ _____ _____    ______ ____
ROOT
ATOM      1  C   UNL     1       0.506  13.424  21.370  0.00  0.00    +0.000 C 
ATOM      2  C   UNL     1       0.828  14.540  20.360  0.00  0.00    +0.000 C 
ATOM      3  C   UNL     1       0.222  14.283  18.976  0.00  0.00    +0.000 C 
ATOM      4  C   UNL     1       0.538  12.869  18.477  0.00  0.00    +0.000 C 
ATOM      5  N   UNL     1       0.153  11.882  19.489  0.00  0.00    +0.000 N 
ATOM      6  C   UNL     1      -0.838  10.903  19.408  0.00  0.00    +0.000 C 
ATOM      7  O   UNL     1      -0.967  10.014  20.249  0.00  0.00    +0.000 OA
ATOM      8  C   UNL     1       0.862  12.049  20.764  0.00  0.00    +0.000 C 
ENDROOT
BRANCH   6   9
ATOM      9  C   UNL     1      -1.818  10.904  18.301  0.00  0.00    +0.000 A 
ATOM     10  C   UNL     1      -3.022  11.601  18.459  0.00  0.00    +0.000 A 
ATOM     11  N   UNL     1      -4.036  11.668  17.546  0.00  0.00    +0.000 NA
ATOM     12  C   UNL     1      -3.744  10.977  16.428  0.00  0.00    +0.000 A 
ATOM     13  N   UNL     1      -4.515  10.781  15.321  0.00  0.00    +0.000 N 
ATOM     14  N   UNL     1      -3.883  10.019  14.404  0.00  0.00    +0.000 NA
ATOM     15  N   UNL     1      -2.676   9.731  14.886  0.00  0.00    +0.000 NA
ATOM     16  C   UNL     1      -2.573  10.305  16.121  0.00  0.00    +0.000 A 
ATOM     17  C   UNL     1      -1.551  10.304  17.067  0.00  0.00    +0.000 A 
ATOM     18  H   UNL     1      -5.449  11.114  15.131  0.00  0.00    +0.000 HD
ENDBRANCH   6   9
BRANCH   1  21
ATOM     19  O   UNL     1      -0.661  11.752  23.273  0.00  0.00    +0.000 OA
ATOM     20  C   UNL     1      -1.381  12.567  22.705  0.00  0.00    +0.000 C 
ATOM     21  N   UNL     1      -0.899  13.487  21.793  0.00  0.00    +0.000 N 
ATOM     22  H   UNL     1      -1.570  13.885  21.150  0.00  0.00    +0.000 HD
BRANCH  20  23
ATOM     23  C   UNL     1      -2.844  12.577  22.976  0.00  0.00    +0.000 A 
ATOM     24  C   UNL     1      -3.260  12.594  24.311  0.00  0.00    +0.000 A 
ATOM     25  C   UNL     1      -4.619  12.655  24.626  0.00  0.00    +0.000 A 
ATOM     26  C   UNL     1      -5.586  12.698  23.613  0.00  0.00    +0.000 A 
ATOM     27  C   UNL     1      -6.955  12.738  23.926  0.00  0.00    +0.000 A 
ATOM     28  C   UNL     1      -7.916  12.770  22.916  0.00  0.00    +0.000 A 
ATOM     29  C   UNL     1      -7.519  12.792  21.583  0.00  0.00    +0.000 A 
ATOM     30  C   UNL     1      -6.160  12.768  21.255  0.00  0.00    +0.000 A 
ATOM     31  C   UNL     1      -5.176  12.701  22.259  0.00  0.00    +0.000 A 
ATOM     32  C   UNL     1      -3.799  12.640  21.952  0.00  0.00    +0.000 A 
ENDBRANCH  20  23
ENDBRANCH   1  21
TORSDOF 3
ENDMDL
MODEL 2
REMARK VINA RESULT:      -7.9      8.204     12.109
REMARK  Name = 
REMARK  3 active torsions:
REMARK  status: ('A' for Active; 'I' for Inactive)
REMARK    1  A    between atoms: C_2  and  C_21
REMARK    2  A    between atoms: N_3  and  C_4
REMARK    3  A    between atoms: C_9  and  C_11
REMARK                            x       y       z     vdW  Elec       q    Type
REMARK                         _______ _______ _______ _____ _____    ______ ____
ROOT
ATOM      1  C   UNL     1       2.858   2.261  19.009  0.00  0.00    +0.000 C 
ATOM      2  C   UNL     1       1.363   2.129  18.665  0.00  0.00    +0.000 C 
ATOM      3  C   UNL     1       0.657   3.485  18.549  0.00  0.00    +0.000 C 
ATOM      4  C   UNL     1       0.951   4.377  19.760  0.00  0.00    +0.000 C 
ATOM      5  N   UNL     1       2.398   4.474  19.972  0.00  0.00    +0.000 N 
ATOM      6  C   UNL     1       3.213   5.601  19.860  0.00  0.00    +0.000 C 
ATOM      7  O   UNL     1       4.389   5.612  20.225  0.00  0.00    +0.000 OA
ATOM      8  C   UNL     1       3.035   3.179  20.238  0.00  0.00    +0.000 C 
ENDROOT
BRANCH   6   9
ATOM      9  C   UNL     1       2.703   6.853  19.260  0.00  0.00    +0.000 A 
ATOM     10  C   UNL     1       2.973   7.120  17.913  0.00  0.00    +0.000 A 
ATOM     11  N   UNL     1       2.600   8.242  17.228  0.00  0.00    +0.000 NA
ATOM     12  C   UNL     1       1.909   9.094  18.008  0.00  0.00    +0.000 A 
ATOM     13  N   UNL     1       1.409  10.323  17.694  0.00  0.00    +0.000 N 
ATOM     14  N   UNL     1       0.780  10.886  18.747  0.00  0.00    +0.000 NA
ATOM     15  N   UNL     1       0.834  10.021  19.756  0.00  0.00    +0.000 NA
ATOM     16  C   UNL     1       1.521   8.921  19.327  0.00  0.00    +0.000 A 
ATOM     17  C   UNL     1       1.886   7.741  19.967  0.00  0.00    +0.000 A 
ATOM     18  H   UNL     1       1.463  10.826  16.821  0.00  0.00    +0.000 HD
ENDBRANCH   6   9
BRANCH   1  21
ATOM     19  O   UNL     1       5.530   3.057  19.084  0.00  0.00    +0.000 OA
ATOM     20  C   UNL     1       4.927   3.165  18.021  0.00  0.00    +0.000 C 
ATOM     21  N   UNL     1       3.622   2.744  17.851  0.00  0.00    +0.000 N 
ATOM     22  H   UNL     1       3.108   3.150  17.081  0.00  0.00    +0.000 HD
BRANCH  20  23
ATOM     23  C   UNL     1       5.599   3.792  16.850  0.00  0.00    +0.000 A 
ATOM     24  C   UNL     1       6.453   4.873  17.090  0.00  0.00    +0.000 A 
ATOM     25  C   UNL     1       7.150   5.470  16.038  0.00  0.00    +0.000 A 
ATOM     26  C   UNL     1       7.005   4.998  14.727  0.00  0.00    +0.000 A 
ATOM     27  C   UNL     1       7.688   5.609  13.662  0.00  0.00    +0.000 A 
ATOM     28  C   UNL     1       7.534   5.144  12.356  0.00  0.00    +0.000 A 
ATOM     29  C   UNL     1       6.719   4.046  12.104  0.00  0.00    +0.000 A 
ATOM     30  C   UNL     1       6.043   3.417  13.155  0.00  0.00    +0.000 A 
ATOM     31  C   UNL     1       6.159   3.892  14.474  0.00  0.00    +0.000 A 
ATOM     32  C   UNL     1       5.460   3.296  15.546  0.00  0.00    +0.000 A 
ENDBRANCH  20  23
ENDBRANCH   1  21
TORSDOF 3
ENDMDL
MODEL 3
REMARK VINA RESULT:      -7.8      3.739      7.487
REMARK  Name = 
REMARK  3 active torsions:
REMARK  status: ('A' for Active; 'I' for Inactive)
REMARK    1  A    between atoms: C_2  and  C_21
REMARK    2  A    between atoms: N_3  and  C_4
REMARK    3  A    between atoms: C_9  and  C_11
REMARK                            x       y       z     vdW  Elec       q    Type
REMARK                         _______ _______ _______ _____ _____    ______ ____
ROOT
ATOM      1  C   UNL     1       1.090  13.051  18.534  0.00  0.00    +0.000 C 
ATOM      2  C   UNL     1       1.660  14.137  19.465  0.00  0.00    +0.000 C 
ATOM      3  C   UNL     1       0.765  14.406  20.681  0.00  0.00    +0.000 C 
ATOM      4  C   UNL     1      -0.693  14.629  20.268  0.00  0.00    +0.000 C 
ATOM      5  N   UNL     1      -1.151  13.521  19.425  0.00  0.00    +0.000 N 
ATOM      6  C   UNL     1      -2.137  12.574  19.705  0.00  0.00    +0.000 C 
ATOM      7  O   UNL     1      -2.565  11.788  18.860  0.00  0.00    +0.000 OA
ATOM      8  C   UNL     1      -0.379  13.376  18.185  0.00  0.00    +0.000 C 
ENDROOT
BRANCH   6   9
ATOM      9  C   UNL     1      -2.706  12.447  21.063  0.00  0.00    +0.000 A 
ATOM     10  C   UNL     1      -1.873  12.045  22.115  0.00  0.00    +0.000 A 
ATOM     11  N   UNL     1      -2.256  11.851  23.412  0.00  0.00    +0.000 NA
ATOM     12  C   UNL     1      -3.567  12.107  23.587  0.00  0.00    +0.000 A 
ATOM     13  N   UNL     1      -4.314  11.990  24.721  0.00  0.00    +0.000 N 
ATOM     14  N   UNL     1      -5.602  12.328  24.503  0.00  0.00    +0.000 NA
ATOM     15  N   UNL     1      -5.709  12.701  23.230  0.00  0.00    +0.000 NA
ATOM     16  C   UNL     1      -4.478  12.571  22.653  0.00  0.00    +0.000 A 
ATOM     17  C   UNL     1      -4.028  12.797  21.355  0.00  0.00    +0.000 A 
ATOM     18  H   UNL     1      -4.028  11.689  25.641  0.00  0.00    +0.000 HD
ENDBRANCH   6   9
BRANCH   1  21
ATOM     19  O   UNL     1       2.465  10.916  17.381  0.00  0.00    +0.000 OA
ATOM     20  C   UNL     1       1.885  10.719  18.443  0.00  0.00    +0.000 C 
ATOM     21  N   UNL     1       1.226  11.718  19.135  0.00  0.00    +0.000 N 
ATOM     22  H   UNL     1       0.524  11.425  19.800  0.00  0.00    +0.000 HD
BRANCH  20  23
ATOM     23  C   UNL     1       1.854   9.350  19.027  0.00  0.00    +0.000 A 
ATOM     24  C   UNL     1       1.329   9.202  20.314  0.00  0.00    +0.000 A 
ATOM     25  C   UNL     1       1.228   7.936  20.894  0.00  0.00    +0.000 A 
ATOM     26  C   UNL     1       1.651   6.796  20.198  0.00  0.00    +0.000 A 
ATOM     27  C   UNL     1       1.571   5.523  20.786  0.00  0.00    +0.000 A 
ATOM     28  C   UNL     1       2.002   4.390  20.096  0.00  0.00    +0.000 A 
ATOM     29  C   UNL     1       2.492   4.515  18.800  0.00  0.00    +0.000 A 
ATOM     30  C   UNL     1       2.565   5.774  18.195  0.00  0.00    +0.000 A 
ATOM     31  C   UNL     1       2.166   6.932  18.887  0.00  0.00    +0.000 A 
ATOM     32  C   UNL     1       2.263   8.217  18.310  0.00  0.00    +0.000 A 
ENDBRANCH  20  23
ENDBRANCH   1  21
TORSDOF 3
ENDMDL
MODEL 4
REMARK VINA RESULT:      -7.7      3.206      7.864
REMARK  Name = 
REMARK  3 active torsions:
REMARK  status: ('A' for Active; 'I' for Inactive)
REMARK    1  A    between atoms: C_2  and  C_21
REMARK    2  A    between atoms: N_3  and  C_4
REMARK    3  A    between atoms: C_9  and  C_11
REMARK                            x       y       z     vdW  Elec       q    Type
REMARK                         _______ _______ _______ _____ _____    ______ ____
ROOT
ATOM      1  C   UNL     1      -6.484  12.572  17.361  0.00  0.00    +0.000 C 
ATOM      2  C   UNL     1      -6.689  14.036  16.930  0.00  0.00    +0.000 C 
ATOM      3  C   UNL     1      -6.782  14.999  18.119  0.00  0.00    +0.000 C 
ATOM      4  C   UNL     1      -7.784  14.503  19.167  0.00  0.00    +0.000 C 
ATOM      5  N   UNL     1      -7.474  13.121  19.542  0.00  0.00    +0.000 N 
ATOM      6  C   UNL     1      -7.049  12.637  20.780  0.00  0.00    +0.000 C 
ATOM      7  O   UNL     1      -6.980  11.435  21.038  0.00  0.00    +0.000 OA
ATOM      8  C   UNL     1      -7.544  12.183  18.415  0.00  0.00    +0.000 C 
ENDROOT
BRANCH   6   9
ATOM      9  C   UNL     1      -6.624  13.561  21.853  0.00  0.00    +0.000 A 
ATOM     10  C   UNL     1      -7.556  13.952  22.822  0.00  0.00    +0.000 A 
ATOM     11  N   UNL     1      -7.326  14.821  23.851  0.00  0.00    +0.000 NA
ATOM     12  C   UNL     1      -6.057  15.273  23.846  0.00  0.00    +0.000 A 
ATOM     13  N   UNL     1      -5.470  16.173  24.684  0.00  0.00    +0.000 N 
ATOM     14  N   UNL     1      -4.178  16.385  24.357  0.00  0.00    +0.000 NA
ATOM     15  N   UNL     1      -3.893  15.602  23.319  0.00  0.00    +0.000 NA
ATOM     16  C   UNL     1      -5.028  14.917  22.990  0.00  0.00    +0.000 A 
ATOM     17  C   UNL     1      -5.301  13.993  21.986  0.00  0.00    +0.000 A 
ATOM     18  H   UNL     1      -5.873  16.672  25.463  0.00  0.00    +0.000 HD
ENDBRANCH   6   9
BRANCH   1  21
ATOM     19  O   UNL     1      -4.589  10.936  16.133  0.00  0.00    +0.000 OA
ATOM     20  C   UNL     1      -4.283  11.476  17.192  0.00  0.00    +0.000 C 
ATOM     21  N   UNL     1      -5.118  12.356  17.854  0.00  0.00    +0.000 N 
ATOM     22  H   UNL     1      -4.942  12.496  18.840  0.00  0.00    +0.000 HD
BRANCH  20  23
ATOM     23  C   UNL     1      -2.969  11.174  17.824  0.00  0.00    +0.000 A 
ATOM     24  C   UNL     1      -2.145  10.234  17.198  0.00  0.00    +0.000 A 
ATOM     25  C   UNL     1      -0.881   9.947  17.717  0.00  0.00    +0.000 A 
ATOM     26  C   UNL     1      -0.419  10.594  18.871  0.00  0.00    +0.000 A 
ATOM     27  C   UNL     1       0.843  10.293  19.408  0.00  0.00    +0.000 A 
ATOM     28  C   UNL     1       1.297  10.930  20.562  0.00  0.00    +0.000 A 
ATOM     29  C   UNL     1       0.506  11.896  21.176  0.00  0.00    +0.000 A 
ATOM     30  C   UNL     1      -0.747  12.218  20.646  0.00  0.00    +0.000 A 
ATOM     31  C   UNL     1      -1.237  11.562  19.501  0.00  0.00    +0.000 A 
ATOM     32  C   UNL     1      -2.513  11.844  18.968  0.00  0.00    +0.000 A 
ENDBRANCH  20  23
ENDBRANCH   1  21
TORSDOF 3
ENDMDL
MODEL 5
REMARK VINA RESULT:      -7.6      7.392      9.620
REMARK  Name = 
REMARK  3 active torsions:
REMARK  status: ('A' for Active; 'I' for Inactive)
REMARK    1  A    between atoms: C_2  and  C_21
REMARK    2  A    between atoms: N_3  and  C_4
REMARK    3  A    between atoms: C_9  and  C_11
REMARK                            x       y       z     vdW  Elec       q    Type
REMARK                         _______ _______ _______ _____ _____    ______ ____
ROOT
ATOM      1  C   UNL     1       1.230   3.019  20.166  0.00  0.00    +0.000 C 
ATOM      2  C   UNL     1       2.337   2.691  21.184  0.00  0.00    +0.000 C 
ATOM      3  C   UNL     1       3.746   2.910  20.622  0.00  0.00    +0.000 C 
ATOM      4  C   UNL     1       3.920   2.232  19.259  0.00  0.00    +0.000 C 
ATOM      5  N   UNL     1       2.845   2.645  18.353  0.00  0.00    +0.000 N 
ATOM      6  C   UNL     1       2.946   3.393  17.179  0.00  0.00    +0.000 C 
ATOM      7  O   UNL     1       2.005   3.541  16.400  0.00  0.00    +0.000 OA
ATOM      8  C   UNL     1       1.507   2.286  18.835  0.00  0.00    +0.000 C 
ENDROOT
BRANCH   6   9
ATOM      9  C   UNL     1       4.205   4.080  16.821  0.00  0.00    +0.000 A 
ATOM     10  C   UNL     1       5.101   3.450  15.948  0.00  0.00    +0.000 A 
ATOM     11  N   UNL     1       6.313   3.940  15.551  0.00  0.00    +0.000 NA
ATOM     12  C   UNL     1       6.564   5.145  16.096  0.00  0.00    +0.000 A 
ATOM     13  N   UNL     1       7.676   5.924  15.967  0.00  0.00    +0.000 N 
ATOM     14  N   UNL     1       7.565   7.067  16.675  0.00  0.00    +0.000 NA
ATOM     15  N   UNL     1       6.367   7.067  17.253  0.00  0.00    +0.000 NA
ATOM     16  C   UNL     1       5.741   5.901  16.914  0.00  0.00    +0.000 A 
ATOM     17  C   UNL     1       4.496   5.378  17.253  0.00  0.00    +0.000 A 
ATOM     18  H   UNL     1       8.519   5.744  15.442  0.00  0.00    +0.000 HD
ENDBRANCH   6   9
BRANCH   1  21
ATOM     19  O   UNL     1       2.516   4.947  21.717  0.00  0.00    +0.000 OA
ATOM     20  C   UNL     1       1.747   5.332  20.843  0.00  0.00    +0.000 C 
ATOM     21  N   UNL     1       1.105   4.470  19.975  0.00  0.00    +0.000 N 
ATOM     22  H   UNL     1       0.271   4.817  19.520  0.00  0.00    +0.000 HD
BRANCH  20  23
ATOM     23  C   UNL     1       1.457   6.785  20.700  0.00  0.00    +0.000 A 
ATOM     24  C   UNL     1       1.930   7.435  19.556  0.00  0.00    +0.000 A 
ATOM     25  C   UNL     1       1.646   8.785  19.342  0.00  0.00    +0.000 A 
ATOM     26  C   UNL     1       0.886   9.510  20.269  0.00  0.00    +0.000 A 
ATOM     27  C   UNL     1       0.616  10.874  20.069  0.00  0.00    +0.000 A 
ATOM     28  C   UNL     1      -0.131  11.597  20.998  0.00  0.00    +0.000 A 
ATOM     29  C   UNL     1      -0.641  10.957  22.124  0.00  0.00    +0.000 A 
ATOM     30  C   UNL     1      -0.394   9.597  22.330  0.00  0.00    +0.000 A 
ATOM     31  C   UNL     1       0.386   8.858  21.422  0.00  0.00    +0.000 A 
ATOM     32  C   UNL     1       0.679   7.493  21.627  0.00  0.00    +0.000 A 
ENDBRANCH  20  23
ENDBRANCH   1  21
TORSDOF 3
ENDMDL
MODEL 6
REMARK VINA RESULT:      -7.6      2.862      7.803
REMARK  Name = 
REMARK  3 active torsions:
REMARK  status: ('A' for Active; 'I' for Inactive)
REMARK    1  A    between atoms: C_2  and  C_21
REMARK    2  A    between atoms: N_3  and  C_4
REMARK    3  A    between atoms: C_9  and  C_11
REMARK                            x       y       z     vdW  Elec       q    Type
REMARK                         _______ _______ _______ _____ _____    ______ ____
ROOT
ATOM      1  C   UNL     1      -6.587  13.763  18.864  0.00  0.00    +0.000 C 
ATOM      2  C   UNL     1      -6.589  15.287  18.644  0.00  0.00    +0.000 C 
ATOM      3  C   UNL     1      -5.934  16.055  19.798  0.00  0.00    +0.000 C 
ATOM      4  C   UNL     1      -6.489  15.612  21.155  0.00  0.00    +0.000 C 
ATOM      5  N   UNL     1      -6.400  14.154  21.282  0.00  0.00    +0.000 N 
ATOM      6  C   UNL     1      -5.627  13.411  22.175  0.00  0.00    +0.000 C 
ATOM      7  O   UNL     1      -5.753  12.195  22.313  0.00  0.00    +0.000 OA
ATOM      8  C   UNL     1      -7.165  13.433  20.258  0.00  0.00    +0.000 C 
ENDROOT
BRANCH   6   9
ATOM      9  C   UNL     1      -4.578  14.057  22.992  0.00  0.00    +0.000 A 
ATOM     10  C   UNL     1      -4.949  15.020  23.939  0.00  0.00    +0.000 A 
ATOM     11  N   UNL     1      -4.097  15.725  24.742  0.00  0.00    +0.000 NA
ATOM     12  C   UNL     1      -2.814  15.377  24.531  0.00  0.00    +0.000 A 
ATOM     13  N   UNL     1      -1.688  15.883  25.110  0.00  0.00    +0.000 N 
ATOM     14  N   UNL     1      -0.575  15.288  24.634  0.00  0.00    +0.000 NA
ATOM     15  N   UNL     1      -0.959  14.362  23.759  0.00  0.00    +0.000 NA
ATOM     16  C   UNL     1      -2.322  14.402  23.680  0.00  0.00    +0.000 A 
ATOM     17  C   UNL     1      -3.234  13.679  22.916  0.00  0.00    +0.000 A 
ATOM     18  H   UNL     1      -1.603  16.613  25.802  0.00  0.00    +0.000 HD
ENDBRANCH   6   9
BRANCH   1  21
ATOM     19  O   UNL     1      -6.032  11.233  17.830  0.00  0.00    +0.000 OA
ATOM     20  C   UNL     1      -5.089  11.916  18.215  0.00  0.00    +0.000 C 
ATOM     21  N   UNL     1      -5.240  13.207  18.685  0.00  0.00    +0.000 N 
ATOM     22  H   UNL     1      -4.497  13.570  19.268  0.00  0.00    +0.000 HD
BRANCH  20  23
ATOM     23  C   UNL     1      -3.712  11.350  18.205  0.00  0.00    +0.000 A 
ATOM     24  C   UNL     1      -3.399  10.414  17.215  0.00  0.00    +0.000 A 
ATOM     25  C   UNL     1      -2.109   9.886  17.126  0.00  0.00    +0.000 A 
ATOM     26  C   UNL     1      -1.111  10.283  18.024  0.00  0.00    +0.000 A 
ATOM     27  C   UNL     1       0.182   9.739  17.950  0.00  0.00    +0.000 A 
ATOM     28  C   UNL     1       1.172  10.128  18.852  0.00  0.00    +0.000 A 
ATOM     29  C   UNL     1       0.888  11.087  19.820  0.00  0.00    +0.000 A 
ATOM     30  C   UNL     1      -0.390  11.649  19.897  0.00  0.00    +0.000 A 
ATOM     31  C   UNL     1      -1.411  11.245  19.018  0.00  0.00    +0.000 A 
ATOM     32  C   UNL     1      -2.718  11.773  19.099  0.00  0.00    +0.000 A 
ENDBRANCH  20  23
ENDBRANCH   1  21
TORSDOF 3
ENDMDL
MODEL 7
REMARK VINA RESULT:      -7.5      3.280      8.005
REMARK  Name = 
REMARK  3 active torsions:
REMARK  status: ('A' for Active; 'I' for Inactive)
REMARK    1  A    between atoms: C_2  and  C_21
REMARK    2  A    between atoms: N_3  and  C_4
REMARK    3  A    between atoms: C_9  and  C_11
REMARK                            x       y       z     vdW  Elec       q    Type
REMARK                         _______ _______ _______ _____ _____    ______ ____
ROOT
ATOM      1  C   UNL     1      -6.419  12.390  17.451  0.00  0.00    +0.000 C 
ATOM      2  C   UNL     1      -6.680  13.831  16.976  0.00  0.00    +0.000 C 
ATOM      3  C   UNL     1      -6.809  14.826  18.136  0.00  0.00    +0.000 C 
ATOM      4  C   UNL     1      -7.789  14.324  19.201  0.00  0.00    +0.000 C 
ATOM      5  N   UNL     1      -7.427  12.967  19.617  0.00  0.00    +0.000 N 
ATOM      6  C   UNL     1      -6.982  12.537  20.868  0.00  0.00    +0.000 C 
ATOM      7  O   UNL     1      -6.867  11.347  21.162  0.00  0.00    +0.000 OA
ATOM      8  C   UNL     1      -7.461  11.993  18.519  0.00  0.00    +0.000 C 
ENDROOT
BRANCH   6   9
ATOM      9  C   UNL     1      -6.591  13.509  21.911  0.00  0.00    +0.000 A 
ATOM     10  C   UNL     1      -7.566  13.988  22.795  0.00  0.00    +0.000 A 
ATOM     11  N   UNL     1      -7.369  14.908  23.785  0.00  0.00    +0.000 NA
ATOM     12  C   UNL     1      -6.087  15.317  23.835  0.00  0.00    +0.000 A 
ATOM     13  N   UNL     1      -5.521  16.246  24.656  0.00  0.00    +0.000 N 
ATOM     14  N   UNL     1      -4.204  16.396  24.401  0.00  0.00    +0.000 NA
ATOM     15  N   UNL     1      -3.884  15.544  23.431  0.00  0.00    +0.000 NA
ATOM     16  C   UNL     1      -5.021  14.877  23.069  0.00  0.00    +0.000 A 
ATOM     17  C   UNL     1      -5.264  13.905  22.104  0.00  0.00    +0.000 A 
ATOM     18  H   UNL     1      -5.953  16.803  25.378  0.00  0.00    +0.000 HD
ENDBRANCH   6   9
BRANCH   1  21
ATOM     19  O   UNL     1      -4.393  10.997  16.135  0.00  0.00    +0.000 OA
ATOM     20  C   UNL     1      -4.139  11.478  17.235  0.00  0.00    +0.000 C 
ATOM     21  N   UNL     1      -5.045  12.241  17.947  0.00  0.00    +0.000 N 
ATOM     22  H   UNL     1      -4.890  12.320  18.943  0.00  0.00    +0.000 HD
BRANCH  20  23
ATOM     23  C   UNL     1      -2.813  11.230  17.863  0.00  0.00    +0.000 A 
ATOM     24  C   UNL     1      -2.532  11.875  19.071  0.00  0.00    +0.000 A 
ATOM     25  C   UNL     1      -1.325  11.641  19.733  0.00  0.00    +0.000 A 
ATOM     26  C   UNL     1      -0.376  10.761  19.197  0.00  0.00    +0.000 A 
ATOM     27  C   UNL     1       0.849  10.540  19.849  0.00  0.00    +0.000 A 
ATOM     28  C   UNL     1       1.796   9.671  19.309  0.00  0.00    +0.000 A 
ATOM     29  C   UNL     1       1.519   8.992  18.127  0.00  0.00    +0.000 A 
ATOM     30  C   UNL     1       0.298   9.190  17.474  0.00  0.00    +0.000 A 
ATOM     31  C   UNL     1      -0.657  10.088  17.984  0.00  0.00    +0.000 A 
ATOM     32  C   UNL     1      -1.881  10.331  17.325  0.00  0.00    +0.000 A 
ENDBRANCH  20  23
ENDBRANCH   1  21
TORSDOF 3
ENDMDL
MODEL 8
REMARK VINA RESULT:      -7.5      7.548      9.632
REMARK  Name = 
REMARK  3 active torsions:
REMARK  status: ('A' for Active; 'I' for Inactive)
REMARK    1  A    between atoms: C_2  and  C_21
REMARK    2  A    between atoms: N_3  and  C_4
REMARK    3  A    between atoms: C_9  and  C_11
REMARK                            x       y       z     vdW  Elec       q    Type
REMARK                         _______ _______ _______ _____ _____    ______ ____
ROOT
ATOM      1  C   UNL     1       1.226   3.038  20.200  0.00  0.00    +0.000 C 
ATOM      2  C   UNL     1       2.331   2.716  21.223  0.00  0.00    +0.000 C 
ATOM      3  C   UNL     1       3.742   2.922  20.659  0.00  0.00    +0.000 C 
ATOM      4  C   UNL     1       3.913   2.227  19.304  0.00  0.00    +0.000 C 
ATOM      5  N   UNL     1       2.840   2.636  18.392  0.00  0.00    +0.000 N 
ATOM      6  C   UNL     1       2.945   3.369  17.209  0.00  0.00    +0.000 C 
ATOM      7  O   UNL     1       2.005   3.513  16.429  0.00  0.00    +0.000 OA
ATOM      8  C   UNL     1       1.500   2.288  18.878  0.00  0.00    +0.000 C 
ENDROOT
BRANCH   6   9
ATOM      9  C   UNL     1       4.208   4.046  16.844  0.00  0.00    +0.000 A 
ATOM     10  C   UNL     1       4.761   4.979  17.730  0.00  0.00    +0.000 A 
ATOM     11  N   UNL     1       5.898   5.707  17.521  0.00  0.00    +0.000 NA
ATOM     12  C   UNL     1       6.463   5.417  16.334  0.00  0.00    +0.000 A 
ATOM     13  N   UNL     1       7.575   5.961  15.764  0.00  0.00    +0.000 N 
ATOM     14  N   UNL     1       7.827   5.420  14.554  0.00  0.00    +0.000 NA
ATOM     15  N   UNL     1       6.901   4.492  14.329  0.00  0.00    +0.000 NA
ATOM     16  C   UNL     1       6.057   4.476  15.403  0.00  0.00    +0.000 A 
ATOM     17  C   UNL     1       4.918   3.726  15.683  0.00  0.00    +0.000 A 
ATOM     18  H   UNL     1       8.182   6.684  16.121  0.00  0.00    +0.000 HD
ENDBRANCH   6   9
BRANCH   1  21
ATOM     19  O   UNL     1       2.521   4.977  21.731  0.00  0.00    +0.000 OA
ATOM     20  C   UNL     1       1.754   5.356  20.851  0.00  0.00    +0.000 C 
ATOM     21  N   UNL     1       1.108   4.487  19.992  0.00  0.00    +0.000 N 
ATOM     22  H   UNL     1       0.277   4.833  19.533  0.00  0.00    +0.000 HD
BRANCH  20  23
ATOM     23  C   UNL     1       1.472   6.809  20.691  0.00  0.00    +0.000 A 
ATOM     24  C   UNL     1       1.946   7.442  19.539  0.00  0.00    +0.000 A 
ATOM     25  C   UNL     1       1.669   8.792  19.310  0.00  0.00    +0.000 A 
ATOM     26  C   UNL     1       0.914   9.531  20.229  0.00  0.00    +0.000 A 
ATOM     27  C   UNL     1       0.651  10.894  20.013  0.00  0.00    +0.000 A 
ATOM     28  C   UNL     1      -0.092  11.632  20.935  0.00  0.00    +0.000 A 
ATOM     29  C   UNL     1      -0.603  11.008  22.068  0.00  0.00    +0.000 A 
ATOM     30  C   UNL     1      -0.363   9.649  22.291  0.00  0.00    +0.000 A 
ATOM     31  C   UNL     1       0.412   8.896  21.390  0.00  0.00    +0.000 A 
ATOM     32  C   UNL     1       0.698   7.531  21.611  0.00  0.00    +0.000 A 
ENDBRANCH  20  23
ENDBRANCH   1  21
TORSDOF 3
ENDMDL
MODEL 9
REMARK VINA RESULT:      -7.3      7.429      9.811
REMARK  Name = 
REMARK  3 active torsions:
REMARK  status: ('A' for Active; 'I' for Inactive)
REMARK    1  A    between atoms: C_2  and  C_21
REMARK    2  A    between atoms: N_3  and  C_4
REMARK    3  A    between atoms: C_9  and  C_11
REMARK                            x       y       z     vdW  Elec       q    Type
REMARK                         _______ _______ _______ _____ _____    ______ ____
ROOT
ATOM      1  C   UNL     1       1.249   2.989  20.193  0.00  0.00    +0.000 C 
ATOM      2  C   UNL     1       2.355   2.732  21.232  0.00  0.00    +0.000 C 
ATOM      3  C   UNL     1       3.763   2.963  20.672  0.00  0.00    +0.000 C 
ATOM      4  C   UNL     1       3.966   2.234  19.340  0.00  0.00    +0.000 C 
ATOM      5  N   UNL     1       2.889   2.581  18.409  0.00  0.00    +0.000 N 
ATOM      6  C   UNL     1       2.981   3.281  17.205  0.00  0.00    +0.000 C 
ATOM      7  O   UNL     1       2.043   3.373  16.414  0.00  0.00    +0.000 OA
ATOM      8  C   UNL     1       1.556   2.208  18.896  0.00  0.00    +0.000 C 
ENDROOT
BRANCH   6   9
ATOM      9  C   UNL     1       4.225   3.986  16.828  0.00  0.00    +0.000 A 
ATOM     10  C   UNL     1       5.112   3.371  15.936  0.00  0.00    +0.000 A 
ATOM     11  N   UNL     1       6.310   3.877  15.519  0.00  0.00    +0.000 NA
ATOM     12  C   UNL     1       6.558   5.082  16.067  0.00  0.00    +0.000 A 
ATOM     13  N   UNL     1       7.658   5.874  15.922  0.00  0.00    +0.000 N 
ATOM     14  N   UNL     1       7.548   7.011  16.639  0.00  0.00    +0.000 NA
ATOM     15  N   UNL     1       6.361   6.994  17.239  0.00  0.00    +0.000 NA
ATOM     16  C   UNL     1       5.742   5.823  16.905  0.00  0.00    +0.000 A 
ATOM     17  C   UNL     1       4.510   5.283  17.264  0.00  0.00    +0.000 A 
ATOM     18  H   UNL     1       8.493   5.707  15.380  0.00  0.00    +0.000 HD
ENDBRANCH   6   9
BRANCH   1  21
ATOM     19  O   UNL     1       2.518   5.010  21.635  0.00  0.00    +0.000 OA
ATOM     20  C   UNL     1       1.726   5.340  20.758  0.00  0.00    +0.000 C 
ATOM     21  N   UNL     1       1.089   4.426  19.940  0.00  0.00    +0.000 N 
ATOM     22  H   UNL     1       0.240   4.736  19.485  0.00  0.00    +0.000 HD
BRANCH  20  23
ATOM     23  C   UNL     1       1.402   6.779  20.556  0.00  0.00    +0.000 A 
ATOM     24  C   UNL     1       0.644   7.421  21.540  0.00  0.00    +0.000 A 
ATOM     25  C   UNL     1       0.352   8.782  21.430  0.00  0.00    +0.000 A 
ATOM     26  C   UNL     1       0.811   9.525  20.335  0.00  0.00    +0.000 A 
ATOM     27  C   UNL     1       0.501  10.889  20.210  0.00  0.00    +0.000 A 
ATOM     28  C   UNL     1       0.950  11.625  19.113  0.00  0.00    +0.000 A 
ATOM     29  C   UNL     1       1.737  11.011  18.144  0.00  0.00    +0.000 A 
ATOM     30  C   UNL     1       2.067   9.657  18.261  0.00  0.00    +0.000 A 
ATOM     31  C   UNL     1       1.596   8.890  19.342  0.00  0.00    +0.000 A 
ATOM     32  C   UNL     1       1.885   7.514  19.464  0.00  0.00    +0.000 A 
ENDBRANCH  20  23
ENDBRANCH   1  21
TORSDOF 3
ENDMDL
