MODEL 1
REMARK VINA RESULT:     -10.2      0.000      0.000
REMARK  Name = 
REMARK  5 active torsions:
REMARK  status: ('A' for Active; 'I' for Inactive)
REMARK    1  A    between atoms: C_1  and  C_2
REMARK    2  A    between atoms: N_5  and  C_6
REMARK    3  A    between atoms: C_6  and  C_7
REMARK    4  A    between atoms: C_11  and  C_12
REMARK    5  A    between atoms: N_18  and  C_19
REMARK                            x       y       z     vdW  Elec       q    Type
REMARK                         _______ _______ _______ _____ _____    ______ ____
ROOT
ATOM      1  C   UNL     1       4.009   4.499  17.756  0.00  0.00    +0.000 A 
ATOM      2  C   UNL     1       3.615   5.836  17.663  0.00  0.00    +0.000 A 
ATOM      3  C   UNL     1       2.804   6.342  18.659  0.00  0.00    +0.000 A 
ATOM      4  C   UNL     1       2.324   5.588  19.722  0.00  0.00    +0.000 A 
ATOM      5  C   UNL     1       2.642   4.233  19.804  0.00  0.00    +0.000 A 
ATOM      6  C   UNL     1       3.514   3.707  18.818  0.00  0.00    +0.000 A 
ATOM      7  C   UNL     1       1.515   6.478  20.620  0.00  0.00    +0.000 C 
ATOM      8  N   UNL     1       1.625   7.792  19.990  0.00  0.00    +0.000 N 
ATOM      9  C   UNL     1       2.358   7.724  18.809  0.00  0.00    +0.000 C 
ATOM     10  O   UNL     1       2.640   8.576  17.980  0.00  0.00    +0.000 OA
ENDROOT
BRANCH   8  11
ATOM     11  C   UNL     1       1.050   8.973  20.530  0.00  0.00    +0.000 A 
ATOM     12  C   UNL     1       0.940  10.145  19.762  0.00  0.00    +0.000 A 
ATOM     13  C   UNL     1       0.349  11.306  20.271  0.00  0.00    +0.000 A 
ATOM     14  C   UNL     1      -0.149  11.315  21.566  0.00  0.00    +0.000 A 
ATOM     15  C   UNL     1      -0.031  10.168  22.340  0.00  0.00    +0.000 A 
ATOM     16  F   UNL     1      -0.512  10.171  23.591  0.00  0.00    +0.000 F 
ATOM     17  C   UNL     1       0.570   9.010  21.844  0.00  0.00    +0.000 A 
ENDBRANCH   8  11
BRANCH   5  18
ATOM     18  C   UNL     1       2.092   3.336  20.884  0.00  0.00    +0.000 C 
ATOM     19  F   UNL     1       0.731   3.285  20.905  0.00  0.00    +0.000 F 
ATOM     20  F   UNL     1       2.508   2.048  20.750  0.00  0.00    +0.000 F 
ATOM     21  F   UNL     1       2.466   3.727  22.132  0.00  0.00    +0.000 F 
ENDBRANCH   5  18
BRANCH   1  22
ATOM     22  C   UNL     1       5.032   3.982  16.760  0.00  0.00    +0.000 C 
BRANCH  22  27
ATOM     23  C   UNL     1       8.018   8.322  17.900  0.00  0.00    +0.000 C 
ATOM     24  C   UNL     1       7.550   6.922  17.595  0.00  0.00    +0.000 C 
ATOM     25  N   UNL     1       7.339   6.605  16.374  0.00  0.00    +0.000 NA
ATOM     26  C   UNL     1       6.991   5.242  16.020  0.00  0.00    +0.000 C 
ATOM     27  N   UNL     1       6.425   4.354  17.022  0.00  0.00    +0.000 NA
ATOM     28  C   UNL     1       6.593   4.745  18.417  0.00  0.00    +0.000 C 
ATOM     29  C   UNL     1       7.392   5.987  18.748  0.00  0.00    +0.000 C 
ENDBRANCH  22  27
ENDBRANCH   1  22
TORSDOF 4
ENDMDL
MODEL 2
REMARK VINA RESULT:     -10.0      0.868      1.238
REMARK  Name = 
REMARK  5 active torsions:
REMARK  status: ('A' for Active; 'I' for Inactive)
REMARK    1  A    between atoms: C_1  and  C_2
REMARK    2  A    between atoms: N_5  and  C_6
REMARK    3  A    between atoms: C_6  and  C_7
REMARK    4  A    between atoms: C_11  and  C_12
REMARK    5  A    between atoms: N_18  and  C_19
REMARK                            x       y       z     vdW  Elec       q    Type
REMARK                         _______ _______ _______ _____ _____    ______ ____
ROOT
ATOM      1  C   UNL     1       4.016   4.463  17.752  0.00  0.00    +0.000 A 
ATOM      2  C   UNL     1       3.627   5.801  17.661  0.00  0.00    +0.000 A 
ATOM      3  C   UNL     1       2.805   6.305  18.649  0.00  0.00    +0.000 A 
ATOM      4  C   UNL     1       2.311   5.548  19.704  0.00  0.00    +0.000 A 
ATOM      5  C   UNL     1       2.625   4.191  19.784  0.00  0.00    +0.000 A 
ATOM      6  C   UNL     1       3.507   3.667  18.805  0.00  0.00    +0.000 A 
ATOM      7  C   UNL     1       1.495   6.436  20.597  0.00  0.00    +0.000 C 
ATOM      8  N   UNL     1       1.615   7.752  19.973  0.00  0.00    +0.000 N 
ATOM      9  C   UNL     1       2.361   7.687  18.800  0.00  0.00    +0.000 C 
ATOM     10  O   UNL     1       2.655   8.542  17.978  0.00  0.00    +0.000 OA
ENDROOT
BRANCH   8  11
ATOM     11  C   UNL     1       1.037   8.932  20.511  0.00  0.00    +0.000 A 
ATOM     12  C   UNL     1       0.759   9.045  21.885  0.00  0.00    +0.000 A 
ATOM     13  C   UNL     1       0.217  10.212  22.433  0.00  0.00    +0.000 A 
ATOM     14  C   UNL     1      -0.057  11.296  21.612  0.00  0.00    +0.000 A 
ATOM     15  C   UNL     1       0.198  11.191  20.251  0.00  0.00    +0.000 A 
ATOM     16  F   UNL     1      -0.062  12.237  19.454  0.00  0.00    +0.000 F 
ATOM     17  C   UNL     1       0.726  10.025  19.694  0.00  0.00    +0.000 A 
ENDBRANCH   8  11
BRANCH   5  18
ATOM     18  C   UNL     1       2.060   3.292  20.853  0.00  0.00    +0.000 C 
ATOM     19  F   UNL     1       0.698   3.249  20.863  0.00  0.00    +0.000 F 
ATOM     20  F   UNL     1       2.468   2.001  20.714  0.00  0.00    +0.000 F 
ATOM     21  F   UNL     1       2.427   3.672  22.107  0.00  0.00    +0.000 F 
ENDBRANCH   5  18
BRANCH   1  22
ATOM     22  C   UNL     1       5.049   3.947  16.766  0.00  0.00    +0.000 C 
BRANCH  22  27
ATOM     23  C   UNL     1       8.029   8.309  17.841  0.00  0.00    +0.000 C 
ATOM     24  C   UNL     1       7.561   6.902  17.564  0.00  0.00    +0.000 C 
ATOM     25  N   UNL     1       7.369   6.554  16.349  0.00  0.00    +0.000 NA
ATOM     26  C   UNL     1       7.023   5.183  16.024  0.00  0.00    +0.000 C 
ATOM     27  N   UNL     1       6.439   4.323  17.040  0.00  0.00    +0.000 NA
ATOM     28  C   UNL     1       6.586   4.749  18.427  0.00  0.00    +0.000 C 
ATOM     29  C   UNL     1       7.383   5.997  18.738  0.00  0.00    +0.000 C 
ENDBRANCH  22  27
ENDBRANCH   1  22
TORSDOF 4
ENDMDL
MODEL 3
REMARK VINA RESULT:      -9.0      1.133      1.220
REMARK  Name = 
REMARK  5 active torsions:
REMARK  status: ('A' for Active; 'I' for Inactive)
REMARK    1  A    between atoms: C_1  and  C_2
REMARK    2  A    between atoms: N_5  and  C_6
REMARK    3  A    between atoms: C_6  and  C_7
REMARK    4  A    between atoms: C_11  and  C_12
REMARK    5  A    between atoms: N_18  and  C_19
REMARK                            x       y       z     vdW  Elec       q    Type
REMARK                         _______ _______ _______ _____ _____    ______ ____
ROOT
ATOM      1  C   UNL     1       4.210   4.573  17.729  0.00  0.00    +0.000 A 
ATOM      2  C   UNL     1       3.816   5.852  17.330  0.00  0.00    +0.000 A 
ATOM      3  C   UNL     1       2.939   6.543  18.143  0.00  0.00    +0.000 A 
ATOM      4  C   UNL     1       2.396   6.023  19.311  0.00  0.00    +0.000 A 
ATOM      5  C   UNL     1       2.716   4.722  19.700  0.00  0.00    +0.000 A 
ATOM      6  C   UNL     1       3.652   4.016  18.903  0.00  0.00    +0.000 A 
ATOM      7  C   UNL     1       1.527   7.068  19.947  0.00  0.00    +0.000 C 
ATOM      8  N   UNL     1       1.670   8.220  19.059  0.00  0.00    +0.000 N 
ATOM      9  C   UNL     1       2.477   7.916  17.967  0.00  0.00    +0.000 C 
ATOM     10  O   UNL     1       2.807   8.578  16.994  0.00  0.00    +0.000 OA
ENDROOT
BRANCH   8  11
ATOM     11  C   UNL     1       1.055   9.477  19.298  0.00  0.00    +0.000 A 
ATOM     12  C   UNL     1      -0.072   9.887  18.565  0.00  0.00    +0.000 A 
ATOM     13  C   UNL     1      -0.706  11.109  18.810  0.00  0.00    +0.000 A 
ATOM     14  C   UNL     1      -0.222  11.949  19.802  0.00  0.00    +0.000 A 
ATOM     15  C   UNL     1       0.901  11.563  20.523  0.00  0.00    +0.000 A 
ATOM     16  F   UNL     1       1.371  12.370  21.484  0.00  0.00    +0.000 F 
ATOM     17  C   UNL     1       1.547  10.351  20.275  0.00  0.00    +0.000 A 
ENDBRANCH   8  11
BRANCH   5  18
ATOM     18  C   UNL     1       2.103   4.065  20.910  0.00  0.00    +0.000 C 
ATOM     19  F   UNL     1       0.742   4.019  20.871  0.00  0.00    +0.000 F 
ATOM     20  F   UNL     1       2.511   2.777  21.064  0.00  0.00    +0.000 F 
ATOM     21  F   UNL     1       2.417   4.703  22.070  0.00  0.00    +0.000 F 
ENDBRANCH   5  18
BRANCH   1  22
ATOM     22  C   UNL     1       5.298   3.875  16.932  0.00  0.00    +0.000 C 
BRANCH  22  27
ATOM     23  C   UNL     1       7.986   8.460  17.835  0.00  0.00    +0.000 C 
ATOM     24  C   UNL     1       7.613   7.018  17.599  0.00  0.00    +0.000 C 
ATOM     25  N   UNL     1       7.412   6.631  16.397  0.00  0.00    +0.000 NA
ATOM     26  C   UNL     1       7.156   5.233  16.109  0.00  0.00    +0.000 C 
ATOM     27  N   UNL     1       6.664   4.355  17.158  0.00  0.00    +0.000 NA
ATOM     28  C   UNL     1       6.819   4.819  18.531  0.00  0.00    +0.000 C 
ATOM     29  C   UNL     1       7.533   6.128  18.795  0.00  0.00    +0.000 C 
ENDBRANCH  22  27
ENDBRANCH   1  22
TORSDOF 4
ENDMDL
MODEL 4
REMARK VINA RESULT:      -8.9      1.149      1.605
REMARK  Name = 
REMARK  5 active torsions:
REMARK  status: ('A' for Active; 'I' for Inactive)
REMARK    1  A    between atoms: C_1  and  C_2
REMARK    2  A    between atoms: N_5  and  C_6
REMARK    3  A    between atoms: C_6  and  C_7
REMARK    4  A    between atoms: C_11  and  C_12
REMARK    5  A    between atoms: N_18  and  C_19
REMARK                            x       y       z     vdW  Elec       q    Type
REMARK                         _______ _______ _______ _____ _____    ______ ____
ROOT
ATOM      1  C   UNL     1       4.344   6.031  16.752  0.00  0.00    +0.000 A 
ATOM      2  C   UNL     1       3.735   7.255  17.039  0.00  0.00    +0.000 A 
ATOM      3  C   UNL     1       2.907   7.323  18.141  0.00  0.00    +0.000 A 
ATOM      4  C   UNL     1       2.611   6.236  18.954  0.00  0.00    +0.000 A 
ATOM      5  C   UNL     1       3.147   4.984  18.653  0.00  0.00    +0.000 A 
ATOM      6  C   UNL     1       4.039   4.905  17.554  0.00  0.00    +0.000 A 
ATOM      7  C   UNL     1       1.718   6.695  20.070  0.00  0.00    +0.000 C 
ATOM      8  N   UNL     1       1.582   8.131  19.832  0.00  0.00    +0.000 N 
ATOM      9  C   UNL     1       2.253   8.514  18.674  0.00  0.00    +0.000 C 
ATOM     10  O   UNL     1       2.350   9.596  18.114  0.00  0.00    +0.000 OA
ENDROOT
BRANCH   8  11
ATOM     11  C   UNL     1       0.854   9.003  20.683  0.00  0.00    +0.000 A 
ATOM     12  C   UNL     1       0.106  10.072  20.161  0.00  0.00    +0.000 A 
ATOM     13  C   UNL     1      -0.640  10.921  20.985  0.00  0.00    +0.000 A 
ATOM     14  C   UNL     1      -0.654  10.713  22.356  0.00  0.00    +0.000 A 
ATOM     15  C   UNL     1       0.094   9.669  22.886  0.00  0.00    +0.000 A 
ATOM     16  F   UNL     1       0.081   9.462  24.210  0.00  0.00    +0.000 F 
ATOM     17  C   UNL     1       0.852   8.826  22.072  0.00  0.00    +0.000 A 
ENDBRANCH   8  11
BRANCH   5  18
ATOM     18  C   UNL     1       2.806   3.747  19.442  0.00  0.00    +0.000 C 
ATOM     19  F   UNL     1       1.477   3.445  19.431  0.00  0.00    +0.000 F 
ATOM     20  F   UNL     1       3.440   2.639  18.970  0.00  0.00    +0.000 F 
ATOM     21  F   UNL     1       3.151   3.849  20.754  0.00  0.00    +0.000 F 
ENDBRANCH   5  18
BRANCH   1  22
ATOM     22  C   UNL     1       5.383   5.987  15.646  0.00  0.00    +0.000 C 
BRANCH  22  27
ATOM     23  C   UNL     1       8.303   5.453  20.146  0.00  0.00    +0.000 C 
ATOM     24  C   UNL     1       7.859   5.632  18.716  0.00  0.00    +0.000 C 
ATOM     25  N   UNL     1       7.497   6.797  18.334  0.00  0.00    +0.000 NA
ATOM     26  C   UNL     1       7.164   7.044  16.943  0.00  0.00    +0.000 C 
ATOM     27  N   UNL     1       6.781   5.936  16.083  0.00  0.00    +0.000 NA
ATOM     28  C   UNL     1       7.120   4.596  16.545  0.00  0.00    +0.000 C 
ATOM     29  C   UNL     1       7.902   4.431  17.831  0.00  0.00    +0.000 C 
ENDBRANCH  22  27
ENDBRANCH   1  22
TORSDOF 4
ENDMDL
MODEL 5
REMARK VINA RESULT:      -8.8      1.367      1.999
REMARK  Name = 
REMARK  5 active torsions:
REMARK  status: ('A' for Active; 'I' for Inactive)
REMARK    1  A    between atoms: C_1  and  C_2
REMARK    2  A    between atoms: N_5  and  C_6
REMARK    3  A    between atoms: C_6  and  C_7
REMARK    4  A    between atoms: C_11  and  C_12
REMARK    5  A    between atoms: N_18  and  C_19
REMARK                            x       y       z     vdW  Elec       q    Type
REMARK                         _______ _______ _______ _____ _____    ______ ____
ROOT
ATOM      1  C   UNL     1       4.144   6.330  17.000  0.00  0.00    +0.000 A 
ATOM      2  C   UNL     1       3.444   7.519  17.216  0.00  0.00    +0.000 A 
ATOM      3  C   UNL     1       2.682   7.623  18.363  0.00  0.00    +0.000 A 
ATOM      4  C   UNL     1       2.540   6.599  19.291  0.00  0.00    +0.000 A 
ATOM      5  C   UNL     1       3.170   5.375  19.069  0.00  0.00    +0.000 A 
ATOM      6  C   UNL     1       3.996   5.266  17.921  0.00  0.00    +0.000 A 
ATOM      7  C   UNL     1       1.680   7.087  20.421  0.00  0.00    +0.000 C 
ATOM      8  N   UNL     1       1.397   8.474  20.061  0.00  0.00    +0.000 N 
ATOM      9  C   UNL     1       1.955   8.799  18.829  0.00  0.00    +0.000 C 
ATOM     10  O   UNL     1       1.917   9.826  18.167  0.00  0.00    +0.000 OA
ENDROOT
BRANCH   8  11
ATOM     11  C   UNL     1       0.645   9.359  20.878  0.00  0.00    +0.000 A 
ATOM     12  C   UNL     1       0.352   9.043  22.216  0.00  0.00    +0.000 A 
ATOM     13  C   UNL     1      -0.362   9.918  23.042  0.00  0.00    +0.000 A 
ATOM     14  C   UNL     1      -0.798  11.136  22.540  0.00  0.00    +0.000 A 
ATOM     15  C   UNL     1      -0.529  11.453  21.215  0.00  0.00    +0.000 A 
ATOM     16  F   UNL     1      -0.945  12.630  20.727  0.00  0.00    +0.000 F 
ATOM     17  C   UNL     1       0.171  10.579  20.382  0.00  0.00    +0.000 A 
ENDBRANCH   8  11
BRANCH   5  18
ATOM     18  C   UNL     1       2.996   4.196  19.990  0.00  0.00    +0.000 C 
ATOM     19  F   UNL     1       1.906   3.433  19.696  0.00  0.00    +0.000 F 
ATOM     20  F   UNL     1       4.059   3.348  19.955  0.00  0.00    +0.000 F 
ATOM     21  F   UNL     1       2.848   4.564  21.292  0.00  0.00    +0.000 F 
ENDBRANCH   5  18
BRANCH   1  22
ATOM     22  C   UNL     1       5.112   6.268  15.832  0.00  0.00    +0.000 C 
BRANCH  22  27
ATOM     23  C   UNL     1       8.280   5.413  20.108  0.00  0.00    +0.000 C 
ATOM     24  C   UNL     1       7.757   5.690  18.722  0.00  0.00    +0.000 C 
ATOM     25  N   UNL     1       7.389   6.881  18.437  0.00  0.00    +0.000 NA
ATOM     26  C   UNL     1       6.980   7.220  17.088  0.00  0.00    +0.000 C 
ATOM     27  N   UNL     1       6.532   6.175  16.182  0.00  0.00    +0.000 NA
ATOM     28  C   UNL     1       6.880   4.804  16.535  0.00  0.00    +0.000 C 
ATOM     29  C   UNL     1       7.732   4.548  17.760  0.00  0.00    +0.000 C 
ENDBRANCH  22  27
ENDBRANCH   1  22
TORSDOF 4
ENDMDL
MODEL 6
REMARK VINA RESULT:      -8.8      2.880      7.648
REMARK  Name = 
REMARK  5 active torsions:
REMARK  status: ('A' for Active; 'I' for Inactive)
REMARK    1  A    between atoms: C_1  and  C_2
REMARK    2  A    between atoms: N_5  and  C_6
REMARK    3  A    between atoms: C_6  and  C_7
REMARK    4  A    between atoms: C_11  and  C_12
REMARK    5  A    between atoms: N_18  and  C_19
REMARK                            x       y       z     vdW  Elec       q    Type
REMARK                         _______ _______ _______ _____ _____    ______ ____
ROOT
ATOM      1  C   UNL     1       2.602   6.216  19.230  0.00  0.00    +0.000 A 
ATOM      2  C   UNL     1       3.368   6.686  18.160  0.00  0.00    +0.000 A 
ATOM      3  C   UNL     1       4.032   5.759  17.382  0.00  0.00    +0.000 A 
ATOM      4  C   UNL     1       4.016   4.392  17.628  0.00  0.00    +0.000 A 
ATOM      5  C   UNL     1       3.317   3.897  18.729  0.00  0.00    +0.000 A 
ATOM      6  C   UNL     1       2.589   4.830  19.511  0.00  0.00    +0.000 A 
ATOM      7  C   UNL     1       4.808   3.699  16.557  0.00  0.00    +0.000 C 
ATOM      8  N   UNL     1       5.225   4.790  15.679  0.00  0.00    +0.000 N 
ATOM      9  C   UNL     1       4.802   6.022  16.171  0.00  0.00    +0.000 C 
ATOM     10  O   UNL     1       4.975   7.160  15.762  0.00  0.00    +0.000 OA
ENDROOT
BRANCH   8  11
ATOM     11  C   UNL     1       5.967   4.597  14.484  0.00  0.00    +0.000 A 
ATOM     12  C   UNL     1       5.519   3.716  13.484  0.00  0.00    +0.000 A 
ATOM     13  C   UNL     1       6.224   3.538  12.289  0.00  0.00    +0.000 A 
ATOM     14  C   UNL     1       7.398   4.245  12.071  0.00  0.00    +0.000 A 
ATOM     15  C   UNL     1       7.859   5.106  13.058  0.00  0.00    +0.000 A 
ATOM     16  F   UNL     1       8.991   5.793  12.850  0.00  0.00    +0.000 F 
ATOM     17  C   UNL     1       7.169   5.279  14.258  0.00  0.00    +0.000 A 
ENDBRANCH   8  11
BRANCH   5  18
ATOM     18  C   UNL     1       3.322   2.437  19.102  0.00  0.00    +0.000 C 
ATOM     19  F   UNL     1       2.464   2.133  20.116  0.00  0.00    +0.000 F 
ATOM     20  F   UNL     1       2.964   1.636  18.063  0.00  0.00    +0.000 F 
ATOM     21  F   UNL     1       4.545   2.003  19.510  0.00  0.00    +0.000 F 
ENDBRANCH   5  18
BRANCH   1  22
ATOM     22  C   UNL     1       1.738   7.209  19.986  0.00  0.00    +0.000 C 
BRANCH  22  27
ATOM     23  C   UNL     1      -1.330  11.329  18.351  0.00  0.00    +0.000 C 
ATOM     24  C   UNL     1      -0.171  10.451  18.750  0.00  0.00    +0.000 C 
ATOM     25  N   UNL     1       0.296   9.631  17.887  0.00  0.00    +0.000 NA
ATOM     26  C   UNL     1       1.476   8.843  18.187  0.00  0.00    +0.000 C 
ATOM     27  N   UNL     1       1.859   8.609  19.569  0.00  0.00    +0.000 NA
ATOM     28  C   UNL     1       1.273   9.490  20.573  0.00  0.00    +0.000 C 
ATOM     29  C   UNL     1       0.374  10.624  20.129  0.00  0.00    +0.000 C 
ENDBRANCH  22  27
ENDBRANCH   1  22
TORSDOF 4
ENDMDL
MODEL 7
REMARK VINA RESULT:      -8.7      2.926      7.566
REMARK  Name = 
REMARK  5 active torsions:
REMARK  status: ('A' for Active; 'I' for Inactive)
REMARK    1  A    between atoms: C_1  and  C_2
REMARK    2  A    between atoms: N_5  and  C_6
REMARK    3  A    between atoms: C_6  and  C_7
REMARK    4  A    between atoms: C_11  and  C_12
REMARK    5  A    between atoms: N_18  and  C_19
REMARK                            x       y       z     vdW  Elec       q    Type
REMARK                         _______ _______ _______ _____ _____    ______ ____
ROOT
ATOM      1  C   UNL     1       2.797   6.316  19.319  0.00  0.00    +0.000 A 
ATOM      2  C   UNL     1       3.707   6.717  18.337  0.00  0.00    +0.000 A 
ATOM      3  C   UNL     1       4.168   5.762  17.453  0.00  0.00    +0.000 A 
ATOM      4  C   UNL     1       3.812   4.420  17.510  0.00  0.00    +0.000 A 
ATOM      5  C   UNL     1       2.960   3.976  18.522  0.00  0.00    +0.000 A 
ATOM      6  C   UNL     1       2.438   4.951  19.409  0.00  0.00    +0.000 A 
ATOM      7  C   UNL     1       4.469   3.697  16.371  0.00  0.00    +0.000 C 
ATOM      8  N   UNL     1       5.179   4.755  15.657  0.00  0.00    +0.000 N 
ATOM      9  C   UNL     1       5.039   5.980  16.303  0.00  0.00    +0.000 C 
ATOM     10  O   UNL     1       5.501   7.084  16.056  0.00  0.00    +0.000 OA
ENDROOT
BRANCH   8  11
ATOM     11  C   UNL     1       5.913   4.539  14.461  0.00  0.00    +0.000 A 
ATOM     12  C   UNL     1       5.462   3.635  13.483  0.00  0.00    +0.000 A 
ATOM     13  C   UNL     1       6.159   3.435  12.287  0.00  0.00    +0.000 A 
ATOM     14  C   UNL     1       7.327   4.142  12.044  0.00  0.00    +0.000 A 
ATOM     15  C   UNL     1       7.792   5.027  13.009  0.00  0.00    +0.000 A 
ATOM     16  F   UNL     1       8.918   5.714  12.777  0.00  0.00    +0.000 F 
ATOM     17  C   UNL     1       7.109   5.222  14.211  0.00  0.00    +0.000 A 
ENDBRANCH   8  11
BRANCH   5  18
ATOM     18  C   UNL     1       2.596   2.524  18.693  0.00  0.00    +0.000 C 
ATOM     19  F   UNL     1       2.070   1.960  17.569  0.00  0.00    +0.000 F 
ATOM     20  F   UNL     1       3.668   1.755  19.024  0.00  0.00    +0.000 F 
ATOM     21  F   UNL     1       1.671   2.326  19.672  0.00  0.00    +0.000 F 
ENDBRANCH   5  18
BRANCH   1  22
ATOM     22  C   UNL     1       2.159   7.386  20.186  0.00  0.00    +0.000 C 
BRANCH  22  27
ATOM     23  C   UNL     1       1.573  12.625  19.058  0.00  0.00    +0.000 C 
ATOM     24  C   UNL     1       1.377  11.134  19.175  0.00  0.00    +0.000 C 
ATOM     25  N   UNL     1       0.904  10.668  20.267  0.00  0.00    +0.000 NA
ATOM     26  C   UNL     1       0.598   9.255  20.391  0.00  0.00    +0.000 C 
ATOM     27  N   UNL     1       1.235   8.296  19.504  0.00  0.00    +0.000 NA
ATOM     28  C   UNL     1       1.846   8.825  18.291  0.00  0.00    +0.000 C 
ATOM     29  C   UNL     1       1.727  10.303  17.985  0.00  0.00    +0.000 C 
ENDBRANCH  22  27
ENDBRANCH   1  22
TORSDOF 4
ENDMDL
MODEL 8
REMARK VINA RESULT:      -8.7      2.205      7.427
REMARK  Name = 
REMARK  5 active torsions:
REMARK  status: ('A' for Active; 'I' for Inactive)
REMARK    1  A    between atoms: C_1  and  C_2
REMARK    2  A    between atoms: N_5  and  C_6
REMARK    3  A    between atoms: C_6  and  C_7
REMARK    4  A    between atoms: C_11  and  C_12
REMARK    5  A    between atoms: N_18  and  C_19
REMARK                            x       y       z     vdW  Elec       q    Type
REMARK                         _______ _______ _______ _____ _____    ______ ____
ROOT
ATOM      1  C   UNL     1       1.668   6.510  20.581  0.00  0.00    +0.000 A 
ATOM      2  C   UNL     1       2.473   6.982  19.542  0.00  0.00    +0.000 A 
ATOM      3  C   UNL     1       3.220   6.064  18.833  0.00  0.00    +0.000 A 
ATOM      4  C   UNL     1       3.250   4.705  19.120  0.00  0.00    +0.000 A 
ATOM      5  C   UNL     1       2.512   4.212  20.196  0.00  0.00    +0.000 A 
ATOM      6  C   UNL     1       1.700   5.134  20.905  0.00  0.00    +0.000 A 
ATOM      7  C   UNL     1       4.132   4.018  18.119  0.00  0.00    +0.000 C 
ATOM      8  N   UNL     1       4.550   5.100  17.231  0.00  0.00    +0.000 N 
ATOM      9  C   UNL     1       4.046   6.325  17.659  0.00  0.00    +0.000 C 
ATOM     10  O   UNL     1       4.192   7.458  17.224  0.00  0.00    +0.000 OA
ENDROOT
BRANCH   8  11
ATOM     11  C   UNL     1       5.368   4.905  16.087  0.00  0.00    +0.000 A 
ATOM     12  C   UNL     1       6.722   5.281  16.087  0.00  0.00    +0.000 A 
ATOM     13  C   UNL     1       7.546   5.068  14.977  0.00  0.00    +0.000 A 
ATOM     14  C   UNL     1       7.027   4.469  13.839  0.00  0.00    +0.000 A 
ATOM     15  C   UNL     1       5.686   4.107  13.820  0.00  0.00    +0.000 A 
ATOM     16  F   UNL     1       5.181   3.525  12.724  0.00  0.00    +0.000 F 
ATOM     17  C   UNL     1       4.854   4.329  14.919  0.00  0.00    +0.000 A 
ENDBRANCH   8  11
BRANCH   5  18
ATOM     18  C   UNL     1       2.559   2.766  20.615  0.00  0.00    +0.000 C 
ATOM     19  F   UNL     1       3.811   2.333  20.932  0.00  0.00    +0.000 F 
ATOM     20  F   UNL     1       1.795   2.518  21.713  0.00  0.00    +0.000 F 
ATOM     21  F   UNL     1       2.111   1.923  19.645  0.00  0.00    +0.000 F 
ENDBRANCH   5  18
BRANCH   1  22
ATOM     22  C   UNL     1       0.719   7.485  21.255  0.00  0.00    +0.000 C 
BRANCH  22  27
ATOM     23  C   UNL     1      -1.815  12.209  20.688  0.00  0.00    +0.000 C 
ATOM     24  C   UNL     1      -0.773  11.124  20.797  0.00  0.00    +0.000 C 
ATOM     25  N   UNL     1      -0.526  10.414  19.763  0.00  0.00    +0.000 NA
ATOM     26  C   UNL     1       0.540   9.430  19.786  0.00  0.00    +0.000 C 
ATOM     27  N   UNL     1       1.015   8.906  21.056  0.00  0.00    +0.000 NA
ATOM     28  C   UNL     1       0.675   9.668  22.252  0.00  0.00    +0.000 C 
ATOM     29  C   UNL     1      -0.077  10.975  22.109  0.00  0.00    +0.000 C 
ENDBRANCH  22  27
ENDBRANCH   1  22
TORSDOF 4
ENDMDL
MODEL 9
REMARK VINA RESULT:      -8.6      2.763      7.657
REMARK  Name = 
REMARK  5 active torsions:
REMARK  status: ('A' for Active; 'I' for Inactive)
REMARK    1  A    between atoms: C_1  and  C_2
REMARK    2  A    between atoms: N_5  and  C_6
REMARK    3  A    between atoms: C_6  and  C_7
REMARK    4  A    between atoms: C_11  and  C_12
REMARK    5  A    between atoms: N_18  and  C_19
REMARK                            x       y       z     vdW  Elec       q    Type
REMARK                         _______ _______ _______ _____ _____    ______ ____
ROOT
ATOM      1  C   UNL     1       2.588   6.228  19.344  0.00  0.00    +0.000 A 
ATOM      2  C   UNL     1       3.460   6.659  18.342  0.00  0.00    +0.000 A 
ATOM      3  C   UNL     1       3.986   5.709  17.489  0.00  0.00    +0.000 A 
ATOM      4  C   UNL     1       3.731   4.348  17.597  0.00  0.00    +0.000 A 
ATOM      5  C   UNL     1       2.920   3.878  18.630  0.00  0.00    +0.000 A 
ATOM      6  C   UNL     1       2.332   4.844  19.486  0.00  0.00    +0.000 A 
ATOM      7  C   UNL     1       4.434   3.634  16.479  0.00  0.00    +0.000 C 
ATOM      8  N   UNL     1       5.060   4.716  15.722  0.00  0.00    +0.000 N 
ATOM      9  C   UNL     1       4.833   5.950  16.325  0.00  0.00    +0.000 C 
ATOM     10  O   UNL     1       5.210   7.075  16.035  0.00  0.00    +0.000 OA
ENDROOT
BRANCH   8  11
ATOM     11  C   UNL     1       5.802   4.513  14.528  0.00  0.00    +0.000 A 
ATOM     12  C   UNL     1       7.026   5.168  14.311  0.00  0.00    +0.000 A 
ATOM     13  C   UNL     1       7.781   4.955  13.154  0.00  0.00    +0.000 A 
ATOM     14  C   UNL     1       7.324   4.073  12.186  0.00  0.00    +0.000 A 
ATOM     15  C   UNL     1       6.108   3.431  12.381  0.00  0.00    +0.000 A 
ATOM     16  F   UNL     1       5.663   2.575  11.450  0.00  0.00    +0.000 F 
ATOM     17  C   UNL     1       5.342   3.649  13.527  0.00  0.00    +0.000 A 
ENDBRANCH   8  11
BRANCH   5  18
ATOM     18  C   UNL     1       2.665   2.411  18.855  0.00  0.00    +0.000 C 
ATOM     19  F   UNL     1       1.721   2.163  19.806  0.00  0.00    +0.000 F 
ATOM     20  F   UNL     1       2.230   1.781  17.731  0.00  0.00    +0.000 F 
ATOM     21  F   UNL     1       3.779   1.740  19.257  0.00  0.00    +0.000 F 
ENDBRANCH   5  18
BRANCH   1  22
ATOM     22  C   UNL     1       1.877   7.278  20.178  0.00  0.00    +0.000 C 
BRANCH  22  27
ATOM     23  C   UNL     1      -1.453  10.964  18.082  0.00  0.00    +0.000 C 
ATOM     24  C   UNL     1      -0.242  10.226  18.596  0.00  0.00    +0.000 C 
ATOM     25  N   UNL     1       0.326   9.378  17.825  0.00  0.00    +0.000 NA
ATOM     26  C   UNL     1       1.553   8.722  18.233  0.00  0.00    +0.000 C 
ATOM     27  N   UNL     1       1.898   8.642  19.643  0.00  0.00    +0.000 NA
ATOM     28  C   UNL     1       1.202   9.553  20.544  0.00  0.00    +0.000 C 
ATOM     29  C   UNL     1       0.231  10.563  19.972  0.00  0.00    +0.000 C 
ENDBRANCH  22  27
ENDBRANCH   1  22
TORSDOF 4
ENDMDL
