MODEL 1
REMARK VINA RESULT:      -7.9      0.000      0.000
REMARK  Name = 
REMARK  3 active torsions:
REMARK  status: ('A' for Active; 'I' for Inactive)
REMARK    1  A    between atoms: C_2  and  C_16
REMARK    2  A    between atoms: N_3  and  C_4
REMARK    3  A    between atoms: C_7  and  N_8
REMARK                            x       y       z     vdW  Elec       q    Type
REMARK                         _______ _______ _______ _____ _____    ______ ____
ROOT
ATOM      1  O   UNL     1       2.236   9.105  18.266  0.00  0.00    +0.000 OA
ATOM      2  C   UNL     1       2.052   8.128  18.983  0.00  0.00    +0.000 C 
ATOM      3  N   UNL     1       1.287   8.068  20.131  0.00  0.00    +0.000 N 
ATOM      4  H   UNL     1       1.336   7.177  20.618  0.00  0.00    +0.000 HD
ENDROOT
BRANCH   2   5
ATOM      5  C   UNL     1       2.736   6.830  18.670  0.00  0.00    +0.000 A 
ATOM      6  C   UNL     1       3.711   6.791  17.686  0.00  0.00    +0.000 A 
ATOM      7  C   UNL     1       4.244   5.554  17.352  0.00  0.00    +0.000 A 
ATOM      8  C   UNL     1       3.713   4.398  17.933  0.00  0.00    +0.000 A 
ATOM      9  C   UNL     1       4.057   3.125  17.455  0.00  0.00    +0.000 A 
ATOM     10  C   UNL     1       3.446   1.989  17.979  0.00  0.00    +0.000 A 
ATOM     11  C   UNL     1       2.555   2.118  19.039  0.00  0.00    +0.000 A 
ATOM     12  C   UNL     1       2.241   3.385  19.539  0.00  0.00    +0.000 A 
ATOM     13  C   UNL     1       2.762   4.540  18.971  0.00  0.00    +0.000 A 
ATOM     14  N   UNL     1       2.311   5.742  19.373  0.00  0.00    +0.000 NA
ENDBRANCH   2   5
BRANCH   3  15
ATOM     15  C   UNL     1       0.556   9.107  20.728  0.00  0.00    +0.000 A 
ATOM     16  C   UNL     1      -0.102  10.106  20.015  0.00  0.00    +0.000 A 
ATOM     17  C   UNL     1      -0.812  11.114  20.690  0.00  0.00    +0.000 A 
ATOM     18  C   UNL     1      -0.851  11.168  22.088  0.00  0.00    +0.000 A 
ATOM     19  C   UNL     1      -0.185  10.154  22.792  0.00  0.00    +0.000 A 
ATOM     20  C   UNL     1       0.489   9.125  22.121  0.00  0.00    +0.000 A 
BRANCH  18  21
ATOM     21  N   UNL     1      -1.526  12.210  22.784  0.00  0.00    +0.000 N 
ATOM     22  C   UNL     1      -2.812  12.183  23.311  0.00  0.00    +0.000 A 
ATOM     23  C   UNL     1      -3.085  13.354  23.903  0.00  0.00    +0.000 A 
ATOM     24  N   UNL     1      -2.004  14.171  23.773  0.00  0.00    +0.000 N 
ATOM     25  C   UNL     1      -0.977  13.505  23.072  0.00  0.00    +0.000 A 
ATOM     26  O   UNL     1       0.101  14.005  22.795  0.00  0.00    +0.000 OA
ATOM     27  H   UNL     1      -1.908  15.120  24.104  0.00  0.00    +0.000 HD
ENDBRANCH  18  21
ENDBRANCH   3  15
TORSDOF 3
ENDMDL
MODEL 2
REMARK VINA RESULT:      -7.9      0.331      1.011
REMARK  Name = 
REMARK  3 active torsions:
REMARK  status: ('A' for Active; 'I' for Inactive)
REMARK    1  A    between atoms: C_2  and  C_16
REMARK    2  A    between atoms: N_3  and  C_4
REMARK    3  A    between atoms: C_7  and  N_8
REMARK                            x       y       z     vdW  Elec       q    Type
REMARK                         _______ _______ _______ _____ _____    ______ ____
ROOT
ATOM      1  O   UNL     1       1.992   9.174  18.599  0.00  0.00    +0.000 OA
ATOM      2  C   UNL     1       1.874   8.175  19.299  0.00  0.00    +0.000 C 
ATOM      3  N   UNL     1       1.199   8.074  20.500  0.00  0.00    +0.000 N 
ATOM      4  H   UNL     1       1.295   7.171  20.956  0.00  0.00    +0.000 HD
ENDROOT
BRANCH   2   5
ATOM      5  C   UNL     1       2.545   6.896  18.898  0.00  0.00    +0.000 A 
ATOM      6  C   UNL     1       3.471   6.903  17.867  0.00  0.00    +0.000 A 
ATOM      7  C   UNL     1       3.991   5.684  17.455  0.00  0.00    +0.000 A 
ATOM      8  C   UNL     1       3.493   4.502  18.012  0.00  0.00    +0.000 A 
ATOM      9  C   UNL     1       3.818   3.252  17.463  0.00  0.00    +0.000 A 
ATOM     10  C   UNL     1       3.238   2.092  17.969  0.00  0.00    +0.000 A 
ATOM     11  C   UNL     1       2.399   2.171  19.075  0.00  0.00    +0.000 A 
ATOM     12  C   UNL     1       2.106   3.414  19.643  0.00  0.00    +0.000 A 
ATOM     13  C   UNL     1       2.595   4.595  19.100  0.00  0.00    +0.000 A 
ATOM     14  N   UNL     1       2.160   5.776  19.575  0.00  0.00    +0.000 NA
ENDBRANCH   2   5
BRANCH   3  15
ATOM     15  C   UNL     1       0.505   9.086  21.180  0.00  0.00    +0.000 A 
ATOM     16  C   UNL     1       0.305   9.104  22.558  0.00  0.00    +0.000 A 
ATOM     17  C   UNL     1      -0.405  10.155  23.162  0.00  0.00    +0.000 A 
ATOM     18  C   UNL     1      -0.962  11.191  22.402  0.00  0.00    +0.000 A 
ATOM     19  C   UNL     1      -0.752  11.160  21.017  0.00  0.00    +0.000 A 
ATOM     20  C   UNL     1      -0.008  10.134  20.416  0.00  0.00    +0.000 A 
BRANCH  18  21
ATOM     21  N   UNL     1      -1.724  12.236  22.996  0.00  0.00    +0.000 N 
ATOM     22  C   UNL     1      -3.031  12.171  23.464  0.00  0.00    +0.000 A 
ATOM     23  C   UNL     1      -3.394  13.360  23.966  0.00  0.00    +0.000 A 
ATOM     24  N   UNL     1      -2.351  14.226  23.833  0.00  0.00    +0.000 N 
ATOM     25  C   UNL     1      -1.258  13.574  23.225  0.00  0.00    +0.000 A 
ATOM     26  O   UNL     1      -0.195  14.114  22.967  0.00  0.00    +0.000 OA
ATOM     27  H   UNL     1      -2.321  15.197  24.107  0.00  0.00    +0.000 HD
ENDBRANCH  18  21
ENDBRANCH   3  15
TORSDOF 3
ENDMDL
MODEL 3
REMARK VINA RESULT:      -7.8      7.302     11.245
REMARK  Name = 
REMARK  3 active torsions:
REMARK  status: ('A' for Active; 'I' for Inactive)
REMARK    1  A    between atoms: C_2  and  C_16
REMARK    2  A    between atoms: N_3  and  C_4
REMARK    3  A    between atoms: C_7  and  N_8
REMARK                            x       y       z     vdW  Elec       q    Type
REMARK                         _______ _______ _______ _____ _____    ______ ____
ROOT
ATOM      1  O   UNL     1       9.254   9.939  19.804  0.00  0.00    +0.000 OA
ATOM      2  C   UNL     1       9.081  10.254  18.633  0.00  0.00    +0.000 C 
ATOM      3  N   UNL     1       8.381   9.549  17.674  0.00  0.00    +0.000 N 
ATOM      4  H   UNL     1       8.431   9.952  16.742  0.00  0.00    +0.000 HD
ENDROOT
BRANCH   2   5
ATOM      5  C   UNL     1       9.707  11.507  18.095  0.00  0.00    +0.000 A 
ATOM      6  C   UNL     1      11.034  11.492  17.696  0.00  0.00    +0.000 A 
ATOM      7  C   UNL     1      11.606  12.694  17.304  0.00  0.00    +0.000 A 
ATOM      8  C   UNL     1      10.869  13.876  17.425  0.00  0.00    +0.000 A 
ATOM      9  C   UNL     1      11.481  15.129  17.265  0.00  0.00    +0.000 A 
ATOM     10  C   UNL     1      10.756  16.297  17.484  0.00  0.00    +0.000 A 
ATOM     11  C   UNL     1       9.399  16.217  17.780  0.00  0.00    +0.000 A 
ATOM     12  C   UNL     1       8.783  14.967  17.903  0.00  0.00    +0.000 A 
ATOM     13  C   UNL     1       9.504  13.786  17.784  0.00  0.00    +0.000 A 
ATOM     14  N   UNL     1       8.911  12.613  18.069  0.00  0.00    +0.000 NA
ENDBRANCH   2   5
BRANCH   3  15
ATOM     15  C   UNL     1       7.716   8.323  17.828  0.00  0.00    +0.000 A 
ATOM     16  C   UNL     1       8.243   7.231  18.511  0.00  0.00    +0.000 A 
ATOM     17  C   UNL     1       7.512   6.036  18.618  0.00  0.00    +0.000 A 
ATOM     18  C   UNL     1       6.256   5.892  18.016  0.00  0.00    +0.000 A 
ATOM     19  C   UNL     1       5.738   7.000  17.333  0.00  0.00    +0.000 A 
ATOM     20  C   UNL     1       6.447   8.207  17.259  0.00  0.00    +0.000 A 
BRANCH  18  21
ATOM     21  N   UNL     1       5.527   4.671  18.076  0.00  0.00    +0.000 N 
ATOM     22  C   UNL     1       4.931   4.094  19.191  0.00  0.00    +0.000 A 
ATOM     23  C   UNL     1       4.326   2.950  18.843  0.00  0.00    +0.000 A 
ATOM     24  N   UNL     1       4.516   2.745  17.510  0.00  0.00    +0.000 N 
ATOM     25  C   UNL     1       5.271   3.803  16.962  0.00  0.00    +0.000 A 
ATOM     26  O   UNL     1       5.607   3.872  15.791  0.00  0.00    +0.000 OA
ATOM     27  H   UNL     1       4.192   1.965  16.957  0.00  0.00    +0.000 HD
ENDBRANCH  18  21
ENDBRANCH   3  15
TORSDOF 3
ENDMDL
MODEL 4
REMARK VINA RESULT:      -7.8      2.358      9.428
REMARK  Name = 
REMARK  3 active torsions:
REMARK  status: ('A' for Active; 'I' for Inactive)
REMARK    1  A    between atoms: C_2  and  C_16
REMARK    2  A    between atoms: N_3  and  C_4
REMARK    3  A    between atoms: C_7  and  N_8
REMARK                            x       y       z     vdW  Elec       q    Type
REMARK                         _______ _______ _______ _____ _____    ______ ____
ROOT
ATOM      1  O   UNL     1       1.822   9.442  22.407  0.00  0.00    +0.000 OA
ATOM      2  C   UNL     1       0.910   9.544  21.594  0.00  0.00    +0.000 C 
ATOM      3  N   UNL     1       0.788   8.880  20.389  0.00  0.00    +0.000 N 
ATOM      4  H   UNL     1      -0.009   9.174  19.831  0.00  0.00    +0.000 HD
ENDROOT
BRANCH   2   5
ATOM      5  C   UNL     1      -0.210  10.510  21.844  0.00  0.00    +0.000 A 
ATOM      6  C   UNL     1      -0.718  10.653  23.125  0.00  0.00    +0.000 A 
ATOM      7  C   UNL     1      -1.821  11.477  23.296  0.00  0.00    +0.000 A 
ATOM      8  C   UNL     1      -2.438  12.040  22.175  0.00  0.00    +0.000 A 
ATOM      9  C   UNL     1      -3.682  12.681  22.279  0.00  0.00    +0.000 A 
ATOM     10  C   UNL     1      -4.327  13.150  21.138  0.00  0.00    +0.000 A 
ATOM     11  C   UNL     1      -3.693  13.057  19.904  0.00  0.00    +0.000 A 
ATOM     12  C   UNL     1      -2.436  12.451  19.808  0.00  0.00    +0.000 A 
ATOM     13  C   UNL     1      -1.814  11.889  20.915  0.00  0.00    +0.000 A 
ATOM     14  N   UNL     1      -0.685  11.175  20.752  0.00  0.00    +0.000 NA
ENDBRANCH   2   5
BRANCH   3  15
ATOM     15  C   UNL     1       1.676   7.947  19.832  0.00  0.00    +0.000 A 
ATOM     16  C   UNL     1       2.000   6.729  20.425  0.00  0.00    +0.000 A 
ATOM     17  C   UNL     1       2.902   5.850  19.802  0.00  0.00    +0.000 A 
ATOM     18  C   UNL     1       3.527   6.182  18.593  0.00  0.00    +0.000 A 
ATOM     19  C   UNL     1       3.190   7.411  18.009  0.00  0.00    +0.000 A 
ATOM     20  C   UNL     1       2.259   8.271  18.607  0.00  0.00    +0.000 A 
BRANCH  18  21
ATOM     21  N   UNL     1       4.478   5.323  17.976  0.00  0.00    +0.000 N 
ATOM     22  C   UNL     1       4.397   4.729  16.722  0.00  0.00    +0.000 A 
ATOM     23  C   UNL     1       5.496   3.997  16.493  0.00  0.00    +0.000 A 
ATOM     24  N   UNL     1       6.312   4.084  17.579  0.00  0.00    +0.000 N 
ATOM     25  C   UNL     1       5.725   4.912  18.559  0.00  0.00    +0.000 A 
ATOM     26  O   UNL     1       6.227   5.152  19.645  0.00  0.00    +0.000 OA
ATOM     27  H   UNL     1       7.206   3.635  17.713  0.00  0.00    +0.000 HD
ENDBRANCH  18  21
ENDBRANCH   3  15
TORSDOF 3
ENDMDL
MODEL 5
REMARK VINA RESULT:      -7.8      1.632      2.714
REMARK  Name = 
REMARK  3 active torsions:
REMARK  status: ('A' for Active; 'I' for Inactive)
REMARK    1  A    between atoms: C_2  and  C_16
REMARK    2  A    between atoms: N_3  and  C_4
REMARK    3  A    between atoms: C_7  and  N_8
REMARK                            x       y       z     vdW  Elec       q    Type
REMARK                         _______ _______ _______ _____ _____    ______ ____
ROOT
ATOM      1  O   UNL     1       1.768   5.658  20.807  0.00  0.00    +0.000 OA
ATOM      2  C   UNL     1       2.208   6.234  19.819  0.00  0.00    +0.000 C 
ATOM      3  N   UNL     1       2.080   7.574  19.510  0.00  0.00    +0.000 N 
ATOM      4  H   UNL     1       2.451   7.828  18.598  0.00  0.00    +0.000 HD
ENDROOT
BRANCH   2   5
ATOM      5  C   UNL     1       2.934   5.458  18.761  0.00  0.00    +0.000 A 
ATOM      6  C   UNL     1       2.980   4.076  18.836  0.00  0.00    +0.000 A 
ATOM      7  C   UNL     1       3.749   3.401  17.900  0.00  0.00    +0.000 A 
ATOM      8  C   UNL     1       4.525   4.131  16.994  0.00  0.00    +0.000 A 
ATOM      9  C   UNL     1       5.489   3.499  16.193  0.00  0.00    +0.000 A 
ATOM     10  C   UNL     1       6.318   4.253  15.368  0.00  0.00    +0.000 A 
ATOM     11  C   UNL     1       6.130   5.628  15.277  0.00  0.00    +0.000 A 
ATOM     12  C   UNL     1       5.144   6.251  16.049  0.00  0.00    +0.000 A 
ATOM     13  C   UNL     1       4.368   5.536  16.952  0.00  0.00    +0.000 A 
ATOM     14  N   UNL     1       3.546   6.194  17.790  0.00  0.00    +0.000 NA
ENDBRANCH   2   5
BRANCH   3  15
ATOM     15  C   UNL     1       1.424   8.566  20.255  0.00  0.00    +0.000 A 
ATOM     16  C   UNL     1       1.273   8.530  21.638  0.00  0.00    +0.000 A 
ATOM     17  C   UNL     1       0.599   9.564  22.310  0.00  0.00    +0.000 A 
ATOM     18  C   UNL     1       0.029  10.637  21.613  0.00  0.00    +0.000 A 
ATOM     19  C   UNL     1       0.191  10.660  20.221  0.00  0.00    +0.000 A 
ATOM     20  C   UNL     1       0.899   9.651  19.553  0.00  0.00    +0.000 A 
BRANCH  18  21
ATOM     21  N   UNL     1      -0.697  11.665  22.276  0.00  0.00    +0.000 N 
ATOM     22  C   UNL     1      -1.887  11.542  22.983  0.00  0.00    +0.000 A 
ATOM     23  C   UNL     1      -2.251  12.736  23.472  0.00  0.00    +0.000 A 
ATOM     24  N   UNL     1      -1.326  13.662  23.096  0.00  0.00    +0.000 N 
ATOM     25  C   UNL     1      -0.311  13.047  22.333  0.00  0.00    +0.000 A 
ATOM     26  O   UNL     1       0.638  13.641  21.849  0.00  0.00    +0.000 OA
ATOM     27  H   UNL     1      -1.329  14.651  23.300  0.00  0.00    +0.000 HD
ENDBRANCH  18  21
ENDBRANCH   3  15
TORSDOF 3
ENDMDL
MODEL 6
REMARK VINA RESULT:      -7.7      1.254      1.432
REMARK  Name = 
REMARK  3 active torsions:
REMARK  status: ('A' for Active; 'I' for Inactive)
REMARK    1  A    between atoms: C_2  and  C_16
REMARK    2  A    between atoms: N_3  and  C_4
REMARK    3  A    between atoms: C_7  and  N_8
REMARK                            x       y       z     vdW  Elec       q    Type
REMARK                         _______ _______ _______ _____ _____    ______ ____
ROOT
ATOM      1  O   UNL     1       1.817   9.390  18.627  0.00  0.00    +0.000 OA
ATOM      2  C   UNL     1       1.679   8.468  19.423  0.00  0.00    +0.000 C 
ATOM      3  N   UNL     1       0.991   8.496  20.620  0.00  0.00    +0.000 N 
ATOM      4  H   UNL     1       1.070   7.642  21.166  0.00  0.00    +0.000 HD
ENDROOT
BRANCH   2   5
ATOM      5  C   UNL     1       2.337   7.146  19.159  0.00  0.00    +0.000 A 
ATOM      6  C   UNL     1       3.112   6.983  18.023  0.00  0.00    +0.000 A 
ATOM      7  C   UNL     1       3.617   5.717  17.759  0.00  0.00    +0.000 A 
ATOM      8  C   UNL     1       3.244   4.646  18.577  0.00  0.00    +0.000 A 
ATOM      9  C   UNL     1       3.538   3.322  18.214  0.00  0.00    +0.000 A 
ATOM     10  C   UNL     1       3.075   2.263  18.990  0.00  0.00    +0.000 A 
ATOM     11  C   UNL     1       2.394   2.526  20.173  0.00  0.00    +0.000 A 
ATOM     12  C   UNL     1       2.134   3.846  20.552  0.00  0.00    +0.000 A 
ATOM     13  C   UNL     1       2.499   4.919  19.748  0.00  0.00    +0.000 A 
ATOM     14  N   UNL     1       2.090   6.160  20.067  0.00  0.00    +0.000 NA
ENDBRANCH   2   5
BRANCH   3  15
ATOM     15  C   UNL     1       0.304   9.580  21.188  0.00  0.00    +0.000 A 
ATOM     16  C   UNL     1      -0.035  10.738  20.492  0.00  0.00    +0.000 A 
ATOM     17  C   UNL     1      -0.723  11.781  21.135  0.00  0.00    +0.000 A 
ATOM     18  C   UNL     1      -1.056  11.707  22.494  0.00  0.00    +0.000 A 
ATOM     19  C   UNL     1      -0.709  10.535  23.180  0.00  0.00    +0.000 A 
ATOM     20  C   UNL     1      -0.059   9.476  22.530  0.00  0.00    +0.000 A 
BRANCH  18  21
ATOM     21  N   UNL     1      -1.709  12.775  23.168  0.00  0.00    +0.000 N 
ATOM     22  C   UNL     1      -1.175  14.008  23.522  0.00  0.00    +0.000 A 
ATOM     23  C   UNL     1      -2.108  14.750  24.135  0.00  0.00    +0.000 A 
ATOM     24  N   UNL     1      -3.261  14.029  24.206  0.00  0.00    +0.000 N 
ATOM     25  C   UNL     1      -3.076  12.764  23.609  0.00  0.00    +0.000 A 
ATOM     26  O   UNL     1      -3.937  11.902  23.547  0.00  0.00    +0.000 OA
ATOM     27  H   UNL     1      -4.137  14.311  24.621  0.00  0.00    +0.000 HD
ENDBRANCH  18  21
ENDBRANCH   3  15
TORSDOF 3
ENDMDL
MODEL 7
REMARK VINA RESULT:      -7.7      1.430      2.233
REMARK  Name = 
REMARK  3 active torsions:
REMARK  status: ('A' for Active; 'I' for Inactive)
REMARK    1  A    between atoms: C_2  and  C_16
REMARK    2  A    between atoms: N_3  and  C_4
REMARK    3  A    between atoms: C_7  and  N_8
REMARK                            x       y       z     vdW  Elec       q    Type
REMARK                         _______ _______ _______ _____ _____    ______ ____
ROOT
ATOM      1  O   UNL     1       1.248   8.957  18.156  0.00  0.00    +0.000 OA
ATOM      2  C   UNL     1       1.700   8.313  19.096  0.00  0.00    +0.000 C 
ATOM      3  N   UNL     1       1.452   8.513  20.440  0.00  0.00    +0.000 N 
ATOM      4  H   UNL     1       1.994   7.914  21.057  0.00  0.00    +0.000 HD
ENDROOT
BRANCH   2   5
ATOM      5  C   UNL     1       2.670   7.198  18.841  0.00  0.00    +0.000 A 
ATOM      6  C   UNL     1       2.703   6.110  19.698  0.00  0.00    +0.000 A 
ATOM      7  C   UNL     1       3.685   5.152  19.490  0.00  0.00    +0.000 A 
ATOM      8  C   UNL     1       4.656   5.366  18.507  0.00  0.00    +0.000 A 
ATOM      9  C   UNL     1       5.791   4.545  18.422  0.00  0.00    +0.000 A 
ATOM     10  C   UNL     1       6.795   4.831  17.500  0.00  0.00    +0.000 A 
ATOM     11  C   UNL     1       6.627   5.883  16.607  0.00  0.00    +0.000 A 
ATOM     12  C   UNL     1       5.478   6.677  16.670  0.00  0.00    +0.000 A 
ATOM     13  C   UNL     1       4.506   6.474  17.641  0.00  0.00    +0.000 A 
ATOM     14  N   UNL     1       3.499   7.357  17.770  0.00  0.00    +0.000 NA
ENDBRANCH   2   5
BRANCH   3  15
ATOM     15  C   UNL     1       0.634   9.492  21.023  0.00  0.00    +0.000 A 
ATOM     16  C   UNL     1       0.275  10.683  20.396  0.00  0.00    +0.000 A 
ATOM     17  C   UNL     1      -0.548  11.615  21.051  0.00  0.00    +0.000 A 
ATOM     18  C   UNL     1      -1.001  11.396  22.358  0.00  0.00    +0.000 A 
ATOM     19  C   UNL     1      -0.632  10.193  22.976  0.00  0.00    +0.000 A 
ATOM     20  C   UNL     1       0.154   9.243  22.309  0.00  0.00    +0.000 A 
BRANCH  18  21
ATOM     21  N   UNL     1      -1.795  12.353  23.050  0.00  0.00    +0.000 N 
ATOM     22  C   UNL     1      -3.100  12.203  23.503  0.00  0.00    +0.000 A 
ATOM     23  C   UNL     1      -3.500  13.324  24.119  0.00  0.00    +0.000 A 
ATOM     24  N   UNL     1      -2.483  14.230  24.079  0.00  0.00    +0.000 N 
ATOM     25  C   UNL     1      -1.369  13.675  23.413  0.00  0.00    +0.000 A 
ATOM     26  O   UNL     1      -0.323  14.270  23.215  0.00  0.00    +0.000 OA
ATOM     27  H   UNL     1      -2.483  15.169  24.448  0.00  0.00    +0.000 HD
ENDBRANCH  18  21
ENDBRANCH   3  15
TORSDOF 3
ENDMDL
MODEL 8
REMARK VINA RESULT:      -7.7      3.240      9.451
REMARK  Name = 
REMARK  3 active torsions:
REMARK  status: ('A' for Active; 'I' for Inactive)
REMARK    1  A    between atoms: C_2  and  C_16
REMARK    2  A    between atoms: N_3  and  C_4
REMARK    3  A    between atoms: C_7  and  N_8
REMARK                            x       y       z     vdW  Elec       q    Type
REMARK                         _______ _______ _______ _____ _____    ______ ____
ROOT
ATOM      1  O   UNL     1      -0.248   9.504  17.726  0.00  0.00    +0.000 OA
ATOM      2  C   UNL     1       0.579  10.082  18.422  0.00  0.00    +0.000 C 
ATOM      3  N   UNL     1       1.705   9.536  19.005  0.00  0.00    +0.000 N 
ATOM      4  H   UNL     1       2.212  10.176  19.611  0.00  0.00    +0.000 HD
ENDROOT
BRANCH   2   5
ATOM      5  C   UNL     1       0.391  11.531  18.759  0.00  0.00    +0.000 A 
ATOM      6  C   UNL     1      -0.866  11.994  19.112  0.00  0.00    +0.000 A 
ATOM      7  C   UNL     1      -1.021  13.358  19.314  0.00  0.00    +0.000 A 
ATOM      8  C   UNL     1       0.053  14.217  19.055  0.00  0.00    +0.000 A 
ATOM      9  C   UNL     1      -0.126  15.608  19.019  0.00  0.00    +0.000 A 
ATOM     10  C   UNL     1       0.931  16.442  18.665  0.00  0.00    +0.000 A 
ATOM     11  C   UNL     1       2.187  15.895  18.430  0.00  0.00    +0.000 A 
ATOM     12  C   UNL     1       2.372  14.511  18.502  0.00  0.00    +0.000 A 
ATOM     13  C   UNL     1       1.314  13.649  18.759  0.00  0.00    +0.000 A 
ATOM     14  N   UNL     1       1.499  12.320  18.659  0.00  0.00    +0.000 NA
ENDBRANCH   2   5
BRANCH   3  15
ATOM     15  C   UNL     1       2.149   8.207  18.931  0.00  0.00    +0.000 A 
ATOM     16  C   UNL     1       2.844   7.677  17.847  0.00  0.00    +0.000 A 
ATOM     17  C   UNL     1       3.252   6.333  17.849  0.00  0.00    +0.000 A 
ATOM     18  C   UNL     1       2.945   5.479  18.916  0.00  0.00    +0.000 A 
ATOM     19  C   UNL     1       2.246   6.027  20.000  0.00  0.00    +0.000 A 
ATOM     20  C   UNL     1       1.874   7.378  20.019  0.00  0.00    +0.000 A 
BRANCH  18  21
ATOM     21  N   UNL     1       3.311   4.104  18.910  0.00  0.00    +0.000 N 
ATOM     22  C   UNL     1       2.484   3.007  18.695  0.00  0.00    +0.000 A 
ATOM     23  C   UNL     1       3.202   1.877  18.756  0.00  0.00    +0.000 A 
ATOM     24  N   UNL     1       4.499   2.198  19.018  0.00  0.00    +0.000 N 
ATOM     25  C   UNL     1       4.637   3.598  19.127  0.00  0.00    +0.000 A 
ATOM     26  O   UNL     1       5.687   4.167  19.376  0.00  0.00    +0.000 OA
ATOM     27  H   UNL     1       5.277   1.565  19.133  0.00  0.00    +0.000 HD
ENDBRANCH  18  21
ENDBRANCH   3  15
TORSDOF 3
ENDMDL
MODEL 9
REMARK VINA RESULT:      -7.7      1.439      1.886
REMARK  Name = 
REMARK  3 active torsions:
REMARK  status: ('A' for Active; 'I' for Inactive)
REMARK    1  A    between atoms: C_2  and  C_16
REMARK    2  A    between atoms: N_3  and  C_4
REMARK    3  A    between atoms: C_7  and  N_8
REMARK                            x       y       z     vdW  Elec       q    Type
REMARK                         _______ _______ _______ _____ _____    ______ ____
ROOT
ATOM      1  O   UNL     1       0.815   9.569  18.508  0.00  0.00    +0.000 OA
ATOM      2  C   UNL     1       1.339   8.884  19.380  0.00  0.00    +0.000 C 
ATOM      3  N   UNL     1       1.203   9.028  20.747  0.00  0.00    +0.000 N 
ATOM      4  H   UNL     1       1.790   8.403  21.292  0.00  0.00    +0.000 HD
ENDROOT
BRANCH   2   5
ATOM      5  C   UNL     1       2.279   7.780  19.000  0.00  0.00    +0.000 A 
ATOM      6  C   UNL     1       3.033   7.891  17.844  0.00  0.00    +0.000 A 
ATOM      7  C   UNL     1       3.811   6.804  17.471  0.00  0.00    +0.000 A 
ATOM      8  C   UNL     1       3.727   5.616  18.204  0.00  0.00    +0.000 A 
ATOM      9  C   UNL     1       4.310   4.431  17.730  0.00  0.00    +0.000 A 
ATOM     10  C   UNL     1       4.134   3.236  18.423  0.00  0.00    +0.000 A 
ATOM     11  C   UNL     1       3.449   3.240  19.633  0.00  0.00    +0.000 A 
ATOM     12  C   UNL     1       2.899   4.429  20.122  0.00  0.00    +0.000 A 
ATOM     13  C   UNL     1       2.977   5.615  19.404  0.00  0.00    +0.000 A 
ATOM     14  N   UNL     1       2.299   6.697  19.828  0.00  0.00    +0.000 NA
ENDBRANCH   2   5
BRANCH   3  15
ATOM     15  C   UNL     1       0.440   9.984  21.436  0.00  0.00    +0.000 A 
ATOM     16  C   UNL     1      -0.388   9.689  22.516  0.00  0.00    +0.000 A 
ATOM     17  C   UNL     1      -1.122  10.706  23.151  0.00  0.00    +0.000 A 
ATOM     18  C   UNL     1      -1.073  12.031  22.700  0.00  0.00    +0.000 A 
ATOM     19  C   UNL     1      -0.233  12.312  21.613  0.00  0.00    +0.000 A 
ATOM     20  C   UNL     1       0.531  11.307  21.004  0.00  0.00    +0.000 A 
BRANCH  18  21
ATOM     21  N   UNL     1      -1.847  13.061  23.304  0.00  0.00    +0.000 N 
ATOM     22  C   UNL     1      -1.385  14.207  23.939  0.00  0.00    +0.000 A 
ATOM     23  C   UNL     1      -2.422  14.940  24.368  0.00  0.00    +0.000 A 
ATOM     24  N   UNL     1      -3.576  14.296  24.037  0.00  0.00    +0.000 N 
ATOM     25  C   UNL     1      -3.281  13.095  23.358  0.00  0.00    +0.000 A 
ATOM     26  O   UNL     1      -4.124  12.308  22.960  0.00  0.00    +0.000 OA
ATOM     27  H   UNL     1      -4.522  14.591  24.235  0.00  0.00    +0.000 HD
ENDBRANCH  18  21
ENDBRANCH   3  15
TORSDOF 3
ENDMDL
