MODEL 1
REMARK VINA RESULT:      -9.7      0.000      0.000
REMARK  Name = 
REMARK  7 active torsions:
REMARK  status: ('A' for Active; 'I' for Inactive)
REMARK    1  A    between atoms: C_1  and  C_2
REMARK    2  A    between atoms: C_5  and  C_6
REMARK    3  A    between atoms: N_15  and  C_16
REMARK    4  A    between atoms: C_16  and  C_17
REMARK    5  A    between atoms: C_17  and  O_18
REMARK    6  A    between atoms: C_17  and  C_19
REMARK    7  A    between atoms: C_19  and  C_20
REMARK                            x       y       z     vdW  Elec       q    Type
REMARK                         _______ _______ _______ _____ _____    ______ ____
ROOT
ATOM      1  C   UNL     1       3.055   6.276  18.327  0.00  0.00    +0.000 C 
ATOM      2  C   UNL     1       2.167   5.157  17.745  0.00  0.00    +0.000 C 
ATOM      3  C   UNL     1       1.879   4.132  18.805  0.00  0.00    +0.000 A 
ATOM      4  C   UNL     1       1.892   2.761  18.548  0.00  0.00    +0.000 A 
ATOM      5  C   UNL     1       1.647   1.863  19.587  0.00  0.00    +0.000 A 
ATOM      6  C   UNL     1       1.365   2.337  20.871  0.00  0.00    +0.000 A 
ATOM      7  C   UNL     1       1.335   3.708  21.124  0.00  0.00    +0.000 A 
ATOM      8  C   UNL     1       1.609   4.616  20.095  0.00  0.00    +0.000 A 
ATOM      9  C   UNL     1       1.526   6.110  20.303  0.00  0.00    +0.000 C 
ATOM     10  N   UNL     1       2.517   6.912  19.561  0.00  0.00    +0.000 NA
ENDROOT
BRANCH   1  15
ATOM     11  C   UNL     1       7.435   4.582  17.027  0.00  0.00    +0.000 C 
ATOM     12  C   UNL     1       6.389   5.044  17.957  0.00  0.00    +0.000 A 
ATOM     13  N   UNL     1       6.321   4.940  19.266  0.00  0.00    +0.000 NA
ATOM     14  N   UNL     1       5.080   5.425  19.629  0.00  0.00    +0.000 NA
ATOM     15  C   UNL     1       4.477   5.788  18.513  0.00  0.00    +0.000 A 
ATOM     16  O   UNL     1       5.269   5.602  17.406  0.00  0.00    +0.000 OA
ENDBRANCH   1  15
BRANCH  10  17
ATOM     17  C   UNL     1       2.042   8.292  19.327  0.00  0.00    +0.000 C 
BRANCH  17  18
ATOM     18  C   UNL     1       1.149   8.863  20.463  0.00  0.00    +0.000 C 
BRANCH  18  19
ATOM     19  O   UNL     1       1.757   8.583  21.731  0.00  0.00    +0.000 OA
ATOM     20  H   UNL     1       2.093   7.672  21.708  0.00  0.00    +0.000 HD
ENDBRANCH  18  19
BRANCH  18  21
ATOM     21  C   UNL     1       0.939  10.381  20.301  0.00  0.00    +0.000 C 
BRANCH  21  22
ATOM     22  C   UNL     1      -0.390  10.705  19.642  0.00  0.00    +0.000 A 
ATOM     23  C   UNL     1      -1.300  11.573  20.245  0.00  0.00    +0.000 A 
ATOM     24  C   UNL     1      -2.500  11.900  19.596  0.00  0.00    +0.000 A 
ATOM     25  C   UNL     1      -2.809  11.362  18.336  0.00  0.00    +0.000 A 
ATOM     26  C   UNL     1      -4.002  11.681  17.666  0.00  0.00    +0.000 A 
ATOM     27  C   UNL     1      -4.288  11.136  16.412  0.00  0.00    +0.000 A 
ATOM     28  C   UNL     1      -3.381  10.268  15.808  0.00  0.00    +0.000 A 
ATOM     29  C   UNL     1      -2.189   9.942  16.458  0.00  0.00    +0.000 A 
ATOM     30  C   UNL     1      -1.894  10.481  17.720  0.00  0.00    +0.000 A 
ATOM     31  C   UNL     1      -0.697  10.165  18.385  0.00  0.00    +0.000 A 
ENDBRANCH  21  22
ENDBRANCH  18  21
ENDBRANCH  17  18
ENDBRANCH  10  17
TORSDOF 6
ENDMDL
MODEL 2
REMARK VINA RESULT:      -9.2      0.560      1.417
REMARK  Name = 
REMARK  7 active torsions:
REMARK  status: ('A' for Active; 'I' for Inactive)
REMARK    1  A    between atoms: C_1  and  C_2
REMARK    2  A    between atoms: C_5  and  C_6
REMARK    3  A    between atoms: N_15  and  C_16
REMARK    4  A    between atoms: C_16  and  C_17
REMARK    5  A    between atoms: C_17  and  O_18
REMARK    6  A    between atoms: C_17  and  C_19
REMARK    7  A    between atoms: C_19  and  C_20
REMARK                            x       y       z     vdW  Elec       q    Type
REMARK                         _______ _______ _______ _____ _____    ______ ____
ROOT
ATOM      1  C   UNL     1       3.056   6.257  18.208  0.00  0.00    +0.000 C 
ATOM      2  C   UNL     1       2.113   5.142  17.712  0.00  0.00    +0.000 C 
ATOM      3  C   UNL     1       1.869   4.153  18.816  0.00  0.00    +0.000 A 
ATOM      4  C   UNL     1       1.839   2.775  18.596  0.00  0.00    +0.000 A 
ATOM      5  C   UNL     1       1.640   1.911  19.673  0.00  0.00    +0.000 A 
ATOM      6  C   UNL     1       1.446   2.425  20.958  0.00  0.00    +0.000 A 
ATOM      7  C   UNL     1       1.459   3.802  21.174  0.00  0.00    +0.000 A 
ATOM      8  C   UNL     1       1.688   4.676  20.105  0.00  0.00    +0.000 A 
ATOM      9  C   UNL     1       1.647   6.176  20.277  0.00  0.00    +0.000 C 
ATOM     10  N   UNL     1       2.608   6.938  19.454  0.00  0.00    +0.000 NA
ENDROOT
BRANCH   1  15
ATOM     11  C   UNL     1       7.352   4.538  16.681  0.00  0.00    +0.000 C 
ATOM     12  C   UNL     1       6.353   4.988  17.666  0.00  0.00    +0.000 A 
ATOM     13  N   UNL     1       6.337   4.848  18.974  0.00  0.00    +0.000 NA
ATOM     14  N   UNL     1       5.120   5.340  19.401  0.00  0.00    +0.000 NA
ATOM     15  C   UNL     1       4.477   5.744  18.322  0.00  0.00    +0.000 A 
ATOM     16  O   UNL     1       5.220   5.577  17.178  0.00  0.00    +0.000 OA
ENDBRANCH   1  15
BRANCH  10  17
ATOM     17  C   UNL     1       2.147   8.320  19.211  0.00  0.00    +0.000 C 
BRANCH  17  18
ATOM     18  C   UNL     1       1.141   8.855  20.267  0.00  0.00    +0.000 C 
BRANCH  18  19
ATOM     19  O   UNL     1       1.705   8.707  21.577  0.00  0.00    +0.000 OA
ATOM     20  H   UNL     1       1.033   8.300  22.149  0.00  0.00    +0.000 HD
ENDBRANCH  18  19
BRANCH  18  21
ATOM     21  C   UNL     1       0.788  10.332  20.008  0.00  0.00    +0.000 C 
BRANCH  21  22
ATOM     22  C   UNL     1      -0.451  10.479  19.144  0.00  0.00    +0.000 A 
ATOM     23  C   UNL     1      -0.553   9.829  17.914  0.00  0.00    +0.000 A 
ATOM     24  C   UNL     1      -1.727   9.936  17.154  0.00  0.00    +0.000 A 
ATOM     25  C   UNL     1      -2.815  10.699  17.609  0.00  0.00    +0.000 A 
ATOM     26  C   UNL     1      -4.002  10.815  16.866  0.00  0.00    +0.000 A 
ATOM     27  C   UNL     1      -5.073  11.577  17.340  0.00  0.00    +0.000 A 
ATOM     28  C   UNL     1      -4.973  12.229  18.566  0.00  0.00    +0.000 A 
ATOM     29  C   UNL     1      -3.802  12.123  19.320  0.00  0.00    +0.000 A 
ATOM     30  C   UNL     1      -2.718  11.363  18.851  0.00  0.00    +0.000 A 
ATOM     31  C   UNL     1      -1.535  11.243  19.599  0.00  0.00    +0.000 A 
ENDBRANCH  21  22
ENDBRANCH  18  21
ENDBRANCH  17  18
ENDBRANCH  10  17
TORSDOF 6
ENDMDL
MODEL 3
REMARK VINA RESULT:      -9.0      3.215      8.532
REMARK  Name = 
REMARK  7 active torsions:
REMARK  status: ('A' for Active; 'I' for Inactive)
REMARK    1  A    between atoms: C_1  and  C_2
REMARK    2  A    between atoms: C_5  and  C_6
REMARK    3  A    between atoms: N_15  and  C_16
REMARK    4  A    between atoms: C_16  and  C_17
REMARK    5  A    between atoms: C_17  and  O_18
REMARK    6  A    between atoms: C_17  and  C_19
REMARK    7  A    between atoms: C_19  and  C_20
REMARK                            x       y       z     vdW  Elec       q    Type
REMARK                         _______ _______ _______ _____ _____    ______ ____
ROOT
ATOM      1  C   UNL     1      -0.239  10.279  19.244  0.00  0.00    +0.000 C 
ATOM      2  C   UNL     1       0.923  11.229  18.887  0.00  0.00    +0.000 C 
ATOM      3  C   UNL     1       0.621  12.613  19.386  0.00  0.00    +0.000 A 
ATOM      4  C   UNL     1       0.896  13.758  18.636  0.00  0.00    +0.000 A 
ATOM      5  C   UNL     1       0.559  15.012  19.147  0.00  0.00    +0.000 A 
ATOM      6  C   UNL     1      -0.024  15.120  20.411  0.00  0.00    +0.000 A 
ATOM      7  C   UNL     1      -0.282  13.977  21.167  0.00  0.00    +0.000 A 
ATOM      8  C   UNL     1       0.025  12.713  20.652  0.00  0.00    +0.000 A 
ATOM      9  C   UNL     1      -0.176  11.451  21.456  0.00  0.00    +0.000 C 
ATOM     10  N   UNL     1      -0.604  10.266  20.687  0.00  0.00    +0.000 NA
ENDROOT
BRANCH   1  15
ATOM     11  C   UNL     1      -2.889  10.312  15.155  0.00  0.00    +0.000 C 
ATOM     12  C   UNL     1      -2.600  10.569  16.577  0.00  0.00    +0.000 A 
ATOM     13  N   UNL     1      -3.236  11.330  17.442  0.00  0.00    +0.000 NA
ATOM     14  N   UNL     1      -2.482  11.314  18.599  0.00  0.00    +0.000 NA
ATOM     15  C   UNL     1      -1.437  10.545  18.357  0.00  0.00    +0.000 A 
ATOM     16  O   UNL     1      -1.465  10.008  17.093  0.00  0.00    +0.000 OA
ENDBRANCH   1  15
BRANCH  10  17
ATOM     17  C   UNL     1      -0.218   9.007  21.358  0.00  0.00    +0.000 C 
BRANCH  17  18
ATOM     18  C   UNL     1       1.283   8.635  21.209  0.00  0.00    +0.000 C 
BRANCH  18  19
ATOM     19  O   UNL     1       1.966   8.913  22.439  0.00  0.00    +0.000 OA
ATOM     20  H   UNL     1       2.887   9.135  22.228  0.00  0.00    +0.000 HD
ENDBRANCH  18  19
BRANCH  18  21
ATOM     21  C   UNL     1       1.458   7.152  20.831  0.00  0.00    +0.000 C 
BRANCH  21  22
ATOM     22  C   UNL     1       2.352   6.975  19.616  0.00  0.00    +0.000 A 
ATOM     23  C   UNL     1       2.364   7.916  18.587  0.00  0.00    +0.000 A 
ATOM     24  C   UNL     1       3.233   7.761  17.498  0.00  0.00    +0.000 A 
ATOM     25  C   UNL     1       4.102   6.660  17.419  0.00  0.00    +0.000 A 
ATOM     26  C   UNL     1       4.986   6.488  16.340  0.00  0.00    +0.000 A 
ATOM     27  C   UNL     1       5.843   5.386  16.283  0.00  0.00    +0.000 A 
ATOM     28  C   UNL     1       5.832   4.444  17.309  0.00  0.00    +0.000 A 
ATOM     29  C   UNL     1       4.963   4.600  18.391  0.00  0.00    +0.000 A 
ATOM     30  C   UNL     1       4.094   5.701  18.455  0.00  0.00    +0.000 A 
ATOM     31  C   UNL     1       3.217   5.874  19.539  0.00  0.00    +0.000 A 
ENDBRANCH  21  22
ENDBRANCH  18  21
ENDBRANCH  17  18
ENDBRANCH  10  17
TORSDOF 6
ENDMDL
MODEL 4
REMARK VINA RESULT:      -8.9      1.728      2.915
REMARK  Name = 
REMARK  7 active torsions:
REMARK  status: ('A' for Active; 'I' for Inactive)
REMARK    1  A    between atoms: C_1  and  C_2
REMARK    2  A    between atoms: C_5  and  C_6
REMARK    3  A    between atoms: N_15  and  C_16
REMARK    4  A    between atoms: C_16  and  C_17
REMARK    5  A    between atoms: C_17  and  O_18
REMARK    6  A    between atoms: C_17  and  C_19
REMARK    7  A    between atoms: C_19  and  C_20
REMARK                            x       y       z     vdW  Elec       q    Type
REMARK                         _______ _______ _______ _____ _____    ______ ____
ROOT
ATOM      1  C   UNL     1       3.550   5.727  17.427  0.00  0.00    +0.000 C 
ATOM      2  C   UNL     1       2.570   4.539  17.518  0.00  0.00    +0.000 C 
ATOM      3  C   UNL     1       2.386   4.139  18.955  0.00  0.00    +0.000 A 
ATOM      4  C   UNL     1       2.332   2.806  19.363  0.00  0.00    +0.000 A 
ATOM      5  C   UNL     1       2.192   2.506  20.718  0.00  0.00    +0.000 A 
ATOM      6  C   UNL     1       2.080   3.535  21.655  0.00  0.00    +0.000 A 
ATOM      7  C   UNL     1       2.116   4.867  21.246  0.00  0.00    +0.000 A 
ATOM      8  C   UNL     1       2.286   5.179  19.892  0.00  0.00    +0.000 A 
ATOM      9  C   UNL     1       2.267   6.604  19.391  0.00  0.00    +0.000 C 
ATOM     10  N   UNL     1       3.182   6.897  18.270  0.00  0.00    +0.000 NA
ENDROOT
BRANCH   1  15
ATOM     11  C   UNL     1       8.002   5.765  19.408  0.00  0.00    +0.000 C 
ATOM     12  C   UNL     1       6.918   5.279  18.536  0.00  0.00    +0.000 A 
ATOM     13  N   UNL     1       6.960   4.425  17.536  0.00  0.00    +0.000 NA
ATOM     14  N   UNL     1       5.696   4.415  16.982  0.00  0.00    +0.000 NA
ATOM     15  C   UNL     1       4.971   5.268  17.682  0.00  0.00    +0.000 A 
ATOM     16  O   UNL     1       5.681   5.834  18.713  0.00  0.00    +0.000 OA
ENDBRANCH   1  15
BRANCH  10  17
ATOM     17  C   UNL     1       2.717   8.049  17.471  0.00  0.00    +0.000 C 
BRANCH  17  18
ATOM     18  C   UNL     1       1.947   9.126  18.284  0.00  0.00    +0.000 C 
BRANCH  18  19
ATOM     19  O   UNL     1       2.579  10.400  18.102  0.00  0.00    +0.000 OA
ATOM     20  H   UNL     1       2.394  10.942  18.885  0.00  0.00    +0.000 HD
ENDBRANCH  18  19
BRANCH  18  21
ATOM     21  C   UNL     1       0.470   9.203  17.855  0.00  0.00    +0.000 C 
BRANCH  21  22
ATOM     22  C   UNL     1      -0.319  10.186  18.701  0.00  0.00    +0.000 A 
ATOM     23  C   UNL     1      -1.259  11.040  18.125  0.00  0.00    +0.000 A 
ATOM     24  C   UNL     1      -2.014  11.905  18.931  0.00  0.00    +0.000 A 
ATOM     25  C   UNL     1      -1.838  11.933  20.324  0.00  0.00    +0.000 A 
ATOM     26  C   UNL     1      -2.588  12.787  21.150  0.00  0.00    +0.000 A 
ATOM     27  C   UNL     1      -2.397  12.796  22.534  0.00  0.00    +0.000 A 
ATOM     28  C   UNL     1      -1.457  11.946  23.111  0.00  0.00    +0.000 A 
ATOM     29  C   UNL     1      -0.705  11.088  22.306  0.00  0.00    +0.000 A 
ATOM     30  C   UNL     1      -0.886  11.074  20.914  0.00  0.00    +0.000 A 
ATOM     31  C   UNL     1      -0.139  10.214  20.092  0.00  0.00    +0.000 A 
ENDBRANCH  21  22
ENDBRANCH  18  21
ENDBRANCH  17  18
ENDBRANCH  10  17
TORSDOF 6
ENDMDL
MODEL 5
REMARK VINA RESULT:      -8.9      3.634      9.093
REMARK  Name = 
REMARK  7 active torsions:
REMARK  status: ('A' for Active; 'I' for Inactive)
REMARK    1  A    between atoms: C_1  and  C_2
REMARK    2  A    between atoms: C_5  and  C_6
REMARK    3  A    between atoms: N_15  and  C_16
REMARK    4  A    between atoms: C_16  and  C_17
REMARK    5  A    between atoms: C_17  and  O_18
REMARK    6  A    between atoms: C_17  and  C_19
REMARK    7  A    between atoms: C_19  and  C_20
REMARK                            x       y       z     vdW  Elec       q    Type
REMARK                         _______ _______ _______ _____ _____    ______ ____
ROOT
ATOM      1  C   UNL     1       0.214  12.025  19.204  0.00  0.00    +0.000 C 
ATOM      2  C   UNL     1      -0.522  13.232  18.588  0.00  0.00    +0.000 C 
ATOM      3  C   UNL     1       0.050  14.510  19.134  0.00  0.00    +0.000 A 
ATOM      4  C   UNL     1      -0.748  15.595  19.498  0.00  0.00    +0.000 A 
ATOM      5  C   UNL     1      -0.153  16.739  20.029  0.00  0.00    +0.000 A 
ATOM      6  C   UNL     1       1.235  16.807  20.169  0.00  0.00    +0.000 A 
ATOM      7  C   UNL     1       2.034  15.729  19.789  0.00  0.00    +0.000 A 
ATOM      8  C   UNL     1       1.445  14.565  19.283  0.00  0.00    +0.000 A 
ATOM      9  C   UNL     1       2.270  13.396  18.799  0.00  0.00    +0.000 C 
ATOM     10  N   UNL     1       1.695  12.061  19.054  0.00  0.00    +0.000 NA
ENDROOT
BRANCH   1  15
ATOM     11  C   UNL     1      -2.718  12.144  23.094  0.00  0.00    +0.000 C 
ATOM     12  C   UNL     1      -1.475  11.875  22.350  0.00  0.00    +0.000 A 
ATOM     13  N   UNL     1      -0.271  11.586  22.797  0.00  0.00    +0.000 NA
ATOM     14  N   UNL     1       0.554  11.550  21.691  0.00  0.00    +0.000 NA
ATOM     15  C   UNL     1      -0.205  11.822  20.645  0.00  0.00    +0.000 A 
ATOM     16  O   UNL     1      -1.522  12.009  20.991  0.00  0.00    +0.000 OA
ENDBRANCH   1  15
BRANCH  10  17
ATOM     17  C   UNL     1       2.193  11.057  18.091  0.00  0.00    +0.000 C 
BRANCH  17  18
ATOM     18  C   UNL     1       1.570   9.643  18.261  0.00  0.00    +0.000 C 
BRANCH  18  19
ATOM     19  O   UNL     1       0.398   9.540  17.442  0.00  0.00    +0.000 OA
ATOM     20  H   UNL     1       0.486   8.747  16.889  0.00  0.00    +0.000 HD
ENDBRANCH  18  19
BRANCH  18  21
ATOM     21  C   UNL     1       2.576   8.539  17.884  0.00  0.00    +0.000 C 
BRANCH  21  22
ATOM     22  C   UNL     1       2.309   7.245  18.634  0.00  0.00    +0.000 A 
ATOM     23  C   UNL     1       2.083   7.244  20.010  0.00  0.00    +0.000 A 
ATOM     24  C   UNL     1       1.788   6.045  20.676  0.00  0.00    +0.000 A 
ATOM     25  C   UNL     1       1.719   4.829  19.977  0.00  0.00    +0.000 A 
ATOM     26  C   UNL     1       1.419   3.618  20.623  0.00  0.00    +0.000 A 
ATOM     27  C   UNL     1       1.353   2.420  19.907  0.00  0.00    +0.000 A 
ATOM     28  C   UNL     1       1.579   2.419  18.533  0.00  0.00    +0.000 A 
ATOM     29  C   UNL     1       1.876   3.613  17.873  0.00  0.00    +0.000 A 
ATOM     30  C   UNL     1       1.949   4.822  18.584  0.00  0.00    +0.000 A 
ATOM     31  C   UNL     1       2.242   6.032  17.934  0.00  0.00    +0.000 A 
ENDBRANCH  21  22
ENDBRANCH  18  21
ENDBRANCH  17  18
ENDBRANCH  10  17
TORSDOF 6
ENDMDL
MODEL 6
REMARK VINA RESULT:      -8.9      2.117      3.072
REMARK  Name = 
REMARK  7 active torsions:
REMARK  status: ('A' for Active; 'I' for Inactive)
REMARK    1  A    between atoms: C_1  and  C_2
REMARK    2  A    between atoms: C_5  and  C_6
REMARK    3  A    between atoms: N_15  and  C_16
REMARK    4  A    between atoms: C_16  and  C_17
REMARK    5  A    between atoms: C_17  and  O_18
REMARK    6  A    between atoms: C_17  and  C_19
REMARK    7  A    between atoms: C_19  and  C_20
REMARK                            x       y       z     vdW  Elec       q    Type
REMARK                         _______ _______ _______ _____ _____    ______ ____
ROOT
ATOM      1  C   UNL     1       3.591   5.669  17.377  0.00  0.00    +0.000 C 
ATOM      2  C   UNL     1       2.646   4.455  17.487  0.00  0.00    +0.000 C 
ATOM      3  C   UNL     1       2.453   4.090  18.931  0.00  0.00    +0.000 A 
ATOM      4  C   UNL     1       2.433   2.767  19.375  0.00  0.00    +0.000 A 
ATOM      5  C   UNL     1       2.281   2.500  20.736  0.00  0.00    +0.000 A 
ATOM      6  C   UNL     1       2.123   3.550  21.642  0.00  0.00    +0.000 A 
ATOM      7  C   UNL     1       2.125   4.871  21.196  0.00  0.00    +0.000 A 
ATOM      8  C   UNL     1       2.306   5.151  19.837  0.00  0.00    +0.000 A 
ATOM      9  C   UNL     1       2.252   6.560  19.296  0.00  0.00    +0.000 C 
ATOM     10  N   UNL     1       3.174   6.851  18.181  0.00  0.00    +0.000 NA
ENDROOT
BRANCH   1  15
ATOM     11  C   UNL     1       8.066   5.999  19.276  0.00  0.00    +0.000 C 
ATOM     12  C   UNL     1       6.978   5.399  18.484  0.00  0.00    +0.000 A 
ATOM     13  N   UNL     1       7.020   4.432  17.593  0.00  0.00    +0.000 NA
ATOM     14  N   UNL     1       5.749   4.340  17.061  0.00  0.00    +0.000 NA
ATOM     15  C   UNL     1       5.021   5.262  17.664  0.00  0.00    +0.000 A 
ATOM     16  O   UNL     1       5.736   5.956  18.610  0.00  0.00    +0.000 OA
ENDBRANCH   1  15
BRANCH  10  17
ATOM     17  C   UNL     1       2.688   7.965  17.343  0.00  0.00    +0.000 C 
BRANCH  17  18
ATOM     18  C   UNL     1       2.170   9.192  18.144  0.00  0.00    +0.000 C 
BRANCH  18  19
ATOM     19  O   UNL     1       2.666  10.395  17.543  0.00  0.00    +0.000 OA
ATOM     20  H   UNL     1       2.857  11.029  18.253  0.00  0.00    +0.000 HD
ENDBRANCH  18  19
BRANCH  18  21
ATOM     21  C   UNL     1       0.630   9.221  18.192  0.00  0.00    +0.000 C 
BRANCH  21  22
ATOM     22  C   UNL     1       0.112   9.843  19.476  0.00  0.00    +0.000 A 
ATOM     23  C   UNL     1       0.555   9.399  20.722  0.00  0.00    +0.000 A 
ATOM     24  C   UNL     1       0.102  10.020  21.895  0.00  0.00    +0.000 A 
ATOM     25  C   UNL     1      -0.803  11.092  21.841  0.00  0.00    +0.000 A 
ATOM     26  C   UNL     1      -1.265  11.733  23.004  0.00  0.00    +0.000 A 
ATOM     27  C   UNL     1      -2.164  12.799  22.926  0.00  0.00    +0.000 A 
ATOM     28  C   UNL     1      -2.609  13.244  21.683  0.00  0.00    +0.000 A 
ATOM     29  C   UNL     1      -2.159  12.621  20.517  0.00  0.00    +0.000 A 
ATOM     30  C   UNL     1      -1.259  11.546  20.584  0.00  0.00    +0.000 A 
ATOM     31  C   UNL     1      -0.794  10.912  19.420  0.00  0.00    +0.000 A 
ENDBRANCH  21  22
ENDBRANCH  18  21
ENDBRANCH  17  18
ENDBRANCH  10  17
TORSDOF 6
ENDMDL
MODEL 7
REMARK VINA RESULT:      -8.8      2.397      3.074
REMARK  Name = 
REMARK  7 active torsions:
REMARK  status: ('A' for Active; 'I' for Inactive)
REMARK    1  A    between atoms: C_1  and  C_2
REMARK    2  A    between atoms: C_5  and  C_6
REMARK    3  A    between atoms: N_15  and  C_16
REMARK    4  A    between atoms: C_16  and  C_17
REMARK    5  A    between atoms: C_17  and  O_18
REMARK    6  A    between atoms: C_17  and  C_19
REMARK    7  A    between atoms: C_19  and  C_20
REMARK                            x       y       z     vdW  Elec       q    Type
REMARK                         _______ _______ _______ _____ _____    ______ ____
ROOT
ATOM      1  C   UNL     1       2.965   6.348  18.556  0.00  0.00    +0.000 C 
ATOM      2  C   UNL     1       2.044   5.340  17.837  0.00  0.00    +0.000 C 
ATOM      3  C   UNL     1       1.809   4.148  18.720  0.00  0.00    +0.000 A 
ATOM      4  C   UNL     1       1.804   2.841  18.230  0.00  0.00    +0.000 A 
ATOM      5  C   UNL     1       1.611   1.777  19.111  0.00  0.00    +0.000 A 
ATOM      6  C   UNL     1       1.398   2.022  20.470  0.00  0.00    +0.000 A 
ATOM      7  C   UNL     1       1.386   3.328  20.956  0.00  0.00    +0.000 A 
ATOM      8  C   UNL     1       1.608   4.401  20.085  0.00  0.00    +0.000 A 
ATOM      9  C   UNL     1       1.541   5.836  20.551  0.00  0.00    +0.000 C 
ATOM     10  N   UNL     1       2.494   6.760  19.907  0.00  0.00    +0.000 NA
ENDROOT
BRANCH   1  15
ATOM     11  C   UNL     1       7.168   4.654  16.765  0.00  0.00    +0.000 C 
ATOM     12  C   UNL     1       6.229   5.099  17.810  0.00  0.00    +0.000 A 
ATOM     13  N   UNL     1       6.296   4.961  19.117  0.00  0.00    +0.000 NA
ATOM     14  N   UNL     1       5.105   5.446  19.619  0.00  0.00    +0.000 NA
ATOM     15  C   UNL     1       4.393   5.844  18.581  0.00  0.00    +0.000 A 
ATOM     16  O   UNL     1       5.064   5.681  17.393  0.00  0.00    +0.000 OA
ENDBRANCH   1  15
BRANCH  10  17
ATOM     17  C   UNL     1       2.012   8.157  19.938  0.00  0.00    +0.000 C 
BRANCH  17  18
ATOM     18  C   UNL     1       1.038   8.472  21.107  0.00  0.00    +0.000 C 
BRANCH  18  19
ATOM     19  O   UNL     1       1.764   9.094  22.175  0.00  0.00    +0.000 OA
ATOM     20  H   UNL     1       1.185   9.757  22.585  0.00  0.00    +0.000 HD
ENDBRANCH  18  19
BRANCH  18  21
ATOM     21  C   UNL     1      -0.112   9.387  20.647  0.00  0.00    +0.000 C 
BRANCH  21  22
ATOM     22  C   UNL     1       0.330  10.833  20.510  0.00  0.00    +0.000 A 
ATOM     23  C   UNL     1      -0.006  11.784  21.473  0.00  0.00    +0.000 A 
ATOM     24  C   UNL     1       0.455  13.103  21.354  0.00  0.00    +0.000 A 
ATOM     25  C   UNL     1       1.255  13.493  20.268  0.00  0.00    +0.000 A 
ATOM     26  C   UNL     1       1.734  14.808  20.134  0.00  0.00    +0.000 A 
ATOM     27  C   UNL     1       2.531  15.172  19.046  0.00  0.00    +0.000 A 
ATOM     28  C   UNL     1       2.866  14.225  18.082  0.00  0.00    +0.000 A 
ATOM     29  C   UNL     1       2.403  12.914  18.200  0.00  0.00    +0.000 A 
ATOM     30  C   UNL     1       1.598  12.537  19.287  0.00  0.00    +0.000 A 
ATOM     31  C   UNL     1       1.128  11.221  19.423  0.00  0.00    +0.000 A 
ENDBRANCH  21  22
ENDBRANCH  18  21
ENDBRANCH  17  18
ENDBRANCH  10  17
TORSDOF 6
ENDMDL
MODEL 8
REMARK VINA RESULT:      -8.8      2.453      3.515
REMARK  Name = 
REMARK  7 active torsions:
REMARK  status: ('A' for Active; 'I' for Inactive)
REMARK    1  A    between atoms: C_1  and  C_2
REMARK    2  A    between atoms: C_5  and  C_6
REMARK    3  A    between atoms: N_15  and  C_16
REMARK    4  A    between atoms: C_16  and  C_17
REMARK    5  A    between atoms: C_17  and  O_18
REMARK    6  A    between atoms: C_17  and  C_19
REMARK    7  A    between atoms: C_19  and  C_20
REMARK                            x       y       z     vdW  Elec       q    Type
REMARK                         _______ _______ _______ _____ _____    ______ ____
ROOT
ATOM      1  C   UNL     1       3.000   6.404  18.627  0.00  0.00    +0.000 C 
ATOM      2  C   UNL     1       2.081   5.440  17.849  0.00  0.00    +0.000 C 
ATOM      3  C   UNL     1       1.809   4.216  18.678  0.00  0.00    +0.000 A 
ATOM      4  C   UNL     1       1.795   2.930  18.136  0.00  0.00    +0.000 A 
ATOM      5  C   UNL     1       1.568   1.835  18.969  0.00  0.00    +0.000 A 
ATOM      6  C   UNL     1       1.330   2.028  20.331  0.00  0.00    +0.000 A 
ATOM      7  C   UNL     1       1.326   3.314  20.869  0.00  0.00    +0.000 A 
ATOM      8  C   UNL     1       1.582   4.417  20.048  0.00  0.00    +0.000 A 
ATOM      9  C   UNL     1       1.527   5.834  20.570  0.00  0.00    +0.000 C 
ATOM     10  N   UNL     1       2.507   6.768  19.983  0.00  0.00    +0.000 NA
ENDROOT
BRANCH   1  15
ATOM     11  C   UNL     1       7.214   4.714  16.857  0.00  0.00    +0.000 C 
ATOM     12  C   UNL     1       6.261   5.134  17.899  0.00  0.00    +0.000 A 
ATOM     13  N   UNL     1       6.298   4.945  19.201  0.00  0.00    +0.000 NA
ATOM     14  N   UNL     1       5.104   5.428  19.697  0.00  0.00    +0.000 NA
ATOM     15  C   UNL     1       4.420   5.877  18.661  0.00  0.00    +0.000 A 
ATOM     16  O   UNL     1       5.113   5.749  17.482  0.00  0.00    +0.000 OA
ENDBRANCH   1  15
BRANCH  10  17
ATOM     17  C   UNL     1       2.045   8.169  20.062  0.00  0.00    +0.000 C 
BRANCH  17  18
ATOM     18  C   UNL     1       1.014   8.442  21.192  0.00  0.00    +0.000 C 
BRANCH  18  19
ATOM     19  O   UNL     1       1.671   9.096  22.285  0.00  0.00    +0.000 OA
ATOM     20  H   UNL     1       2.420   8.543  22.560  0.00  0.00    +0.000 HD
ENDBRANCH  18  19
BRANCH  18  21
ATOM     21  C   UNL     1      -0.157   9.306  20.686  0.00  0.00    +0.000 C 
BRANCH  21  22
ATOM     22  C   UNL     1      -0.012  10.760  21.100  0.00  0.00    +0.000 A 
ATOM     23  C   UNL     1       0.885  11.608  20.451  0.00  0.00    +0.000 A 
ATOM     24  C   UNL     1       0.968  12.960  20.814  0.00  0.00    +0.000 A 
ATOM     25  C   UNL     1       0.157  13.484  21.833  0.00  0.00    +0.000 A 
ATOM     26  C   UNL     1       0.218  14.838  22.208  0.00  0.00    +0.000 A 
ATOM     27  C   UNL     1      -0.600  15.338  23.224  0.00  0.00    +0.000 A 
ATOM     28  C   UNL     1      -1.496  14.493  23.874  0.00  0.00    +0.000 A 
ATOM     29  C   UNL     1      -1.573  13.147  23.513  0.00  0.00    +0.000 A 
ATOM     30  C   UNL     1      -0.753  12.633  22.497  0.00  0.00    +0.000 A 
ATOM     31  C   UNL     1      -0.822  11.281  22.119  0.00  0.00    +0.000 A 
ENDBRANCH  21  22
ENDBRANCH  18  21
ENDBRANCH  17  18
ENDBRANCH  10  17
TORSDOF 6
ENDMDL
MODEL 9
REMARK VINA RESULT:      -8.8      2.070      2.862
REMARK  Name = 
REMARK  7 active torsions:
REMARK  status: ('A' for Active; 'I' for Inactive)
REMARK    1  A    between atoms: C_1  and  C_2
REMARK    2  A    between atoms: C_5  and  C_6
REMARK    3  A    between atoms: N_15  and  C_16
REMARK    4  A    between atoms: C_16  and  C_17
REMARK    5  A    between atoms: C_17  and  O_18
REMARK    6  A    between atoms: C_17  and  C_19
REMARK    7  A    between atoms: C_19  and  C_20
REMARK                            x       y       z     vdW  Elec       q    Type
REMARK                         _______ _______ _______ _____ _____    ______ ____
ROOT
ATOM      1  C   UNL     1       2.965   6.224  18.264  0.00  0.00    +0.000 C 
ATOM      2  C   UNL     1       2.035   5.092  17.783  0.00  0.00    +0.000 C 
ATOM      3  C   UNL     1       1.825   4.100  18.891  0.00  0.00    +0.000 A 
ATOM      4  C   UNL     1       1.816   2.721  18.673  0.00  0.00    +0.000 A 
ATOM      5  C   UNL     1       1.649   1.855  19.753  0.00  0.00    +0.000 A 
ATOM      6  C   UNL     1       1.465   2.366  21.040  0.00  0.00    +0.000 A 
ATOM      7  C   UNL     1       1.456   3.744  21.255  0.00  0.00    +0.000 A 
ATOM      8  C   UNL     1       1.653   4.621  20.182  0.00  0.00    +0.000 A 
ATOM      9  C   UNL     1       1.589   6.120  20.353  0.00  0.00    +0.000 C 
ATOM     10  N   UNL     1       2.523   6.898  19.516  0.00  0.00    +0.000 NA
ENDROOT
BRANCH   1  15
ATOM     11  C   UNL     1       7.257   4.548  16.679  0.00  0.00    +0.000 C 
ATOM     12  C   UNL     1       6.271   5.000  17.676  0.00  0.00    +0.000 A 
ATOM     13  N   UNL     1       6.284   4.883  18.987  0.00  0.00    +0.000 NA
ATOM     14  N   UNL     1       5.068   5.363  19.430  0.00  0.00    +0.000 NA
ATOM     15  C   UNL     1       4.396   5.736  18.357  0.00  0.00    +0.000 A 
ATOM     16  O   UNL     1       5.119   5.562  17.202  0.00  0.00    +0.000 OA
ENDBRANCH   1  15
BRANCH  10  17
ATOM     17  C   UNL     1       2.034   8.271  19.279  0.00  0.00    +0.000 C 
BRANCH  17  18
ATOM     18  C   UNL     1       1.196   8.864  20.446  0.00  0.00    +0.000 C 
BRANCH  18  19
ATOM     19  O   UNL     1       1.934   8.741  21.669  0.00  0.00    +0.000 OA
ATOM     20  H   UNL     1       1.373   8.280  22.313  0.00  0.00    +0.000 HD
ENDBRANCH  18  19
BRANCH  18  21
ATOM     21  C   UNL     1       0.843  10.341  20.188  0.00  0.00    +0.000 C 
BRANCH  21  22
ATOM     22  C   UNL     1      -0.257  10.833  21.113  0.00  0.00    +0.000 A 
ATOM     23  C   UNL     1      -0.378  10.344  22.413  0.00  0.00    +0.000 A 
ATOM     24  C   UNL     1      -1.369  10.848  23.268  0.00  0.00    +0.000 A 
ATOM     25  C   UNL     1      -2.256  11.847  22.835  0.00  0.00    +0.000 A 
ATOM     26  C   UNL     1      -3.252  12.371  23.677  0.00  0.00    +0.000 A 
ATOM     27  C   UNL     1      -4.122  13.366  23.225  0.00  0.00    +0.000 A 
ATOM     28  C   UNL     1      -4.004  13.855  21.927  0.00  0.00    +0.000 A 
ATOM     29  C   UNL     1      -3.019  13.349  21.077  0.00  0.00    +0.000 A 
ATOM     30  C   UNL     1      -2.142  12.346  21.519  0.00  0.00    +0.000 A 
ATOM     31  C   UNL     1      -1.143  11.829  20.677  0.00  0.00    +0.000 A 
ENDBRANCH  21  22
ENDBRANCH  18  21
ENDBRANCH  17  18
ENDBRANCH  10  17
TORSDOF 6
ENDMDL
