MODEL 1
REMARK VINA RESULT:      -8.3      0.000      0.000
REMARK  Name = 
REMARK  8 active torsions:
REMARK  status: ('A' for Active; 'I' for Inactive)
REMARK    1  A    between atoms: C_1  and  C_2
REMARK    2  A    between atoms: C_2  and  C_3
REMARK    3  A    between atoms: C_5  and  C_6
REMARK    4  A    between atoms: C_13  and  C_14
REMARK    5  A    between atoms: C_14  and  C_15
REMARK    6  A    between atoms: C_15  and  C_16
REMARK    7  A    between atoms: N_20  and  C_21
REMARK    8  A    between atoms: C_27  and  C_28
REMARK                            x       y       z     vdW  Elec       q    Type
REMARK                         _______ _______ _______ _____ _____    ______ ____
ROOT
ATOM      1  C   UNL     1       1.664   8.016  19.872  0.00  0.00    +0.000 C 
ATOM      2  O   UNL     1       1.709   7.517  20.997  0.00  0.00    +0.000 OA
ATOM      3  N   UNL     1       2.331   7.511  18.771  0.00  0.00    +0.000 N 
ATOM      4  C   UNL     1       3.146   6.373  18.914  0.00  0.00    +0.000 A 
ATOM      5  C   UNL     1       2.650   5.201  19.470  0.00  0.00    +0.000 A 
ATOM      6  C   UNL     1       3.511   4.122  19.633  0.00  0.00    +0.000 A 
ATOM      7  C   UNL     1       4.841   4.254  19.259  0.00  0.00    +0.000 A 
ATOM      8  C   UNL     1       5.273   5.448  18.686  0.00  0.00    +0.000 A 
ATOM      9  N   UNL     1       4.417   6.494  18.485  0.00  0.00    +0.000 NA
ATOM     10  H   UNL     1       2.681   8.181  18.101  0.00  0.00    +0.000 HD
ENDROOT
BRANCH   1  13
ATOM     11  C   UNL     1      -0.650  10.706  18.590  0.00  0.00    +0.000 A 
ATOM     12  C   UNL     1       0.172   9.578  18.560  0.00  0.00    +0.000 A 
ATOM     13  C   UNL     1       0.897   9.281  19.708  0.00  0.00    +0.000 A 
ATOM     14  C   UNL     1       0.792  10.114  20.827  0.00  0.00    +0.000 A 
ATOM     15  C   UNL     1      -0.059  11.212  20.799  0.00  0.00    +0.000 A 
ATOM     16  N   UNL     1      -0.752  11.505  19.673  0.00  0.00    +0.000 NA
BRANCH  15  17
ATOM     17  C   UNL     1      -0.261  12.073  22.025  0.00  0.00    +0.000 C 
ATOM     18  C   UNL     1      -1.375  11.762  23.003  0.00  0.00    +0.000 C 
ATOM     19  C   UNL     1      -1.482  12.964  22.115  0.00  0.00    +0.000 C 
ENDBRANCH  15  17
BRANCH  11  21
ATOM     20  C   UNL     1      -2.164   9.770  16.840  0.00  0.00    +0.000 C 
ATOM     21  C   UNL     1      -1.562  11.034  17.436  0.00  0.00    +0.000 C 
ENDBRANCH  11  21
ENDBRANCH   1  13
BRANCH   8  22
ATOM     22  C   UNL     1       6.743   5.741  18.210  0.00  0.00    +0.000 C 
ATOM     23  C   UNL     1       7.693   6.193  19.356  0.00  0.00    +0.000 C 
ATOM     24  O   UNL     1       8.275   7.213  18.509  0.00  0.00    +0.000 OA
ATOM     25  C   UNL     1       7.105   7.140  17.644  0.00  0.00    +0.000 C 
BRANCH  22  26
ATOM     26  C   UNL     1       7.309   4.585  17.362  0.00  0.00    +0.000 C 
BRANCH  26  27
ATOM     27  C   UNL     1       6.959   4.670  15.907  0.00  0.00    +0.000 A 
ATOM     28  N   UNL     1       7.688   5.246  14.969  0.00  0.00    +0.000 NA
ATOM     29  N   UNL     1       7.050   5.077  13.761  0.00  0.00    +0.000 NA
ATOM     30  C   UNL     1       5.949   4.407  13.984  0.00  0.00    +0.000 A 
ATOM     31  N   UNL     1       5.843   4.138  15.317  0.00  0.00    +0.000 N 
ATOM     32  C   UNL     1       4.755   3.425  15.932  0.00  0.00    +0.000 C 
ENDBRANCH  26  27
ENDBRANCH  22  26
ENDBRANCH   8  22
TORSDOF 6
ENDMDL
MODEL 2
REMARK VINA RESULT:      -8.1      2.121      3.564
REMARK  Name = 
REMARK  8 active torsions:
REMARK  status: ('A' for Active; 'I' for Inactive)
REMARK    1  A    between atoms: C_1  and  C_2
REMARK    2  A    between atoms: C_2  and  C_3
REMARK    3  A    between atoms: C_5  and  C_6
REMARK    4  A    between atoms: C_13  and  C_14
REMARK    5  A    between atoms: C_14  and  C_15
REMARK    6  A    between atoms: C_15  and  C_16
REMARK    7  A    between atoms: N_20  and  C_21
REMARK    8  A    between atoms: C_27  and  C_28
REMARK                            x       y       z     vdW  Elec       q    Type
REMARK                         _______ _______ _______ _____ _____    ______ ____
ROOT
ATOM      1  C   UNL     1       1.890   6.638  19.851  0.00  0.00    +0.000 C 
ATOM      2  O   UNL     1       2.223   5.905  20.783  0.00  0.00    +0.000 OA
ATOM      3  N   UNL     1       2.090   6.339  18.517  0.00  0.00    +0.000 N 
ATOM      4  C   UNL     1       2.740   5.142  18.163  0.00  0.00    +0.000 A 
ATOM      5  C   UNL     1       2.290   3.915  18.634  0.00  0.00    +0.000 A 
ATOM      6  C   UNL     1       2.996   2.768  18.293  0.00  0.00    +0.000 A 
ATOM      7  C   UNL     1       4.141   2.883  17.516  0.00  0.00    +0.000 A 
ATOM      8  C   UNL     1       4.529   4.140  17.056  0.00  0.00    +0.000 A 
ATOM      9  N   UNL     1       3.810   5.263  17.353  0.00  0.00    +0.000 NA
ATOM     10  H   UNL     1       2.297   7.112  17.900  0.00  0.00    +0.000 HD
ENDROOT
BRANCH   1  13
ATOM     11  C   UNL     1       0.377   9.559  21.699  0.00  0.00    +0.000 A 
ATOM     12  C   UNL     1       0.739   8.238  21.435  0.00  0.00    +0.000 A 
ATOM     13  C   UNL     1       1.296   7.961  20.192  0.00  0.00    +0.000 A 
ATOM     14  C   UNL     1       1.461   8.993  19.262  0.00  0.00    +0.000 A 
ATOM     15  C   UNL     1       1.098  10.292  19.594  0.00  0.00    +0.000 A 
ATOM     16  N   UNL     1       0.540  10.554  20.800  0.00  0.00    +0.000 NA
BRANCH  15  17
ATOM     17  C   UNL     1       1.350  11.440  18.643  0.00  0.00    +0.000 C 
ATOM     18  C   UNL     1       2.183  12.626  19.080  0.00  0.00    +0.000 C 
ATOM     19  C   UNL     1       0.703  12.782  18.910  0.00  0.00    +0.000 C 
ENDBRANCH  15  17
BRANCH  11  21
ATOM     20  C   UNL     1      -1.135  11.101  22.951  0.00  0.00    +0.000 C 
ATOM     21  C   UNL     1      -0.121   9.972  23.061  0.00  0.00    +0.000 C 
ENDBRANCH  11  21
ENDBRANCH   1  13
BRANCH   8  22
ATOM     22  C   UNL     1       5.795   4.424  16.166  0.00  0.00    +0.000 C 
ATOM     23  C   UNL     1       5.615   5.620  15.188  0.00  0.00    +0.000 C 
ATOM     24  O   UNL     1       6.262   4.883  14.123  0.00  0.00    +0.000 OA
ATOM     25  C   UNL     1       5.993   3.643  14.840  0.00  0.00    +0.000 C 
BRANCH  22  26
ATOM     26  C   UNL     1       7.081   4.509  17.012  0.00  0.00    +0.000 C 
BRANCH  26  27
ATOM     27  C   UNL     1       7.476   5.907  17.380  0.00  0.00    +0.000 A 
ATOM     28  N   UNL     1       7.525   6.938  16.557  0.00  0.00    +0.000 NA
ATOM     29  N   UNL     1       7.890   8.051  17.279  0.00  0.00    +0.000 NA
ATOM     30  C   UNL     1       8.059   7.680  18.522  0.00  0.00    +0.000 A 
ATOM     31  N   UNL     1       7.821   6.341  18.632  0.00  0.00    +0.000 N 
ATOM     32  C   UNL     1       7.919   5.583  19.851  0.00  0.00    +0.000 C 
ENDBRANCH  26  27
ENDBRANCH  22  26
ENDBRANCH   8  22
TORSDOF 6
ENDMDL
MODEL 3
REMARK VINA RESULT:      -8.1      1.463      1.575
REMARK  Name = 
REMARK  8 active torsions:
REMARK  status: ('A' for Active; 'I' for Inactive)
REMARK    1  A    between atoms: C_1  and  C_2
REMARK    2  A    between atoms: C_2  and  C_3
REMARK    3  A    between atoms: C_5  and  C_6
REMARK    4  A    between atoms: C_13  and  C_14
REMARK    5  A    between atoms: C_14  and  C_15
REMARK    6  A    between atoms: C_15  and  C_16
REMARK    7  A    between atoms: N_20  and  C_21
REMARK    8  A    between atoms: C_27  and  C_28
REMARK                            x       y       z     vdW  Elec       q    Type
REMARK                         _______ _______ _______ _____ _____    ______ ____
ROOT
ATOM      1  C   UNL     1       1.724   8.380  19.084  0.00  0.00    +0.000 C 
ATOM      2  O   UNL     1       1.640   8.019  20.259  0.00  0.00    +0.000 OA
ATOM      3  N   UNL     1       2.465   7.723  18.120  0.00  0.00    +0.000 N 
ATOM      4  C   UNL     1       3.210   6.582  18.474  0.00  0.00    +0.000 A 
ATOM      5  C   UNL     1       2.611   5.504  19.113  0.00  0.00    +0.000 A 
ATOM      6  C   UNL     1       3.402   4.424  19.483  0.00  0.00    +0.000 A 
ATOM      7  C   UNL     1       4.766   4.463  19.229  0.00  0.00    +0.000 A 
ATOM      8  C   UNL     1       5.304   5.563  18.564  0.00  0.00    +0.000 A 
ATOM      9  N   UNL     1       4.520   6.606  18.159  0.00  0.00    +0.000 NA
ATOM     10  H   UNL     1       2.907   8.294  17.413  0.00  0.00    +0.000 HD
ENDROOT
BRANCH   1  13
ATOM     11  C   UNL     1      -0.888  10.945  18.168  0.00  0.00    +0.000 A 
ATOM     12  C   UNL     1      -0.306   9.687  18.334  0.00  0.00    +0.000 A 
ATOM     13  C   UNL     1       1.035   9.642  18.699  0.00  0.00    +0.000 A 
ATOM     14  C   UNL     1       1.745  10.835  18.870  0.00  0.00    +0.000 A 
ATOM     15  C   UNL     1       1.102  12.056  18.708  0.00  0.00    +0.000 A 
ATOM     16  N   UNL     1      -0.200  12.094  18.338  0.00  0.00    +0.000 NA
BRANCH  15  17
ATOM     17  C   UNL     1       1.822  13.358  18.977  0.00  0.00    +0.000 C 
ATOM     18  C   UNL     1       1.537  14.142  20.241  0.00  0.00    +0.000 C 
ATOM     19  C   UNL     1       1.050  14.659  18.922  0.00  0.00    +0.000 C 
ENDBRANCH  15  17
BRANCH  11  21
ATOM     20  C   UNL     1      -2.805  10.146  16.785  0.00  0.00    +0.000 C 
ATOM     21  C   UNL     1      -2.362  11.089  17.894  0.00  0.00    +0.000 C 
ENDBRANCH  11  21
ENDBRANCH   1  13
BRANCH   8  22
ATOM     22  C   UNL     1       6.824   5.745  18.203  0.00  0.00    +0.000 C 
ATOM     23  C   UNL     1       7.723   6.077  19.428  0.00  0.00    +0.000 C 
ATOM     24  O   UNL     1       8.447   7.070  18.664  0.00  0.00    +0.000 OA
ATOM     25  C   UNL     1       7.340   7.125  17.718  0.00  0.00    +0.000 C 
BRANCH  22  26
ATOM     26  C   UNL     1       7.353   4.573  17.352  0.00  0.00    +0.000 C 
BRANCH  26  27
ATOM     27  C   UNL     1       6.991   4.663  15.900  0.00  0.00    +0.000 A 
ATOM     28  N   UNL     1       7.697   5.269  14.964  0.00  0.00    +0.000 NA
ATOM     29  N   UNL     1       7.057   5.096  13.759  0.00  0.00    +0.000 NA
ATOM     30  C   UNL     1       5.976   4.393  13.981  0.00  0.00    +0.000 A 
ATOM     31  N   UNL     1       5.887   4.107  15.312  0.00  0.00    +0.000 N 
ATOM     32  C   UNL     1       4.822   3.358  15.925  0.00  0.00    +0.000 C 
ENDBRANCH  26  27
ENDBRANCH  22  26
ENDBRANCH   8  22
TORSDOF 6
ENDMDL
MODEL 4
REMARK VINA RESULT:      -8.1      1.462      2.431
REMARK  Name = 
REMARK  8 active torsions:
REMARK  status: ('A' for Active; 'I' for Inactive)
REMARK    1  A    between atoms: C_1  and  C_2
REMARK    2  A    between atoms: C_2  and  C_3
REMARK    3  A    between atoms: C_5  and  C_6
REMARK    4  A    between atoms: C_13  and  C_14
REMARK    5  A    between atoms: C_14  and  C_15
REMARK    6  A    between atoms: C_15  and  C_16
REMARK    7  A    between atoms: N_20  and  C_21
REMARK    8  A    between atoms: C_27  and  C_28
REMARK                            x       y       z     vdW  Elec       q    Type
REMARK                         _______ _______ _______ _____ _____    ______ ____
ROOT
ATOM      1  C   UNL     1       1.733   8.095  19.644  0.00  0.00    +0.000 C 
ATOM      2  O   UNL     1       1.544   7.282  20.551  0.00  0.00    +0.000 OA
ATOM      3  N   UNL     1       2.510   7.847  18.528  0.00  0.00    +0.000 N 
ATOM      4  C   UNL     1       3.166   6.609  18.399  0.00  0.00    +0.000 A 
ATOM      5  C   UNL     1       2.467   5.413  18.493  0.00  0.00    +0.000 A 
ATOM      6  C   UNL     1       3.171   4.218  18.407  0.00  0.00    +0.000 A 
ATOM      7  C   UNL     1       4.550   4.253  18.256  0.00  0.00    +0.000 A 
ATOM      8  C   UNL     1       5.193   5.485  18.146  0.00  0.00    +0.000 A 
ATOM      9  N   UNL     1       4.496   6.660  18.185  0.00  0.00    +0.000 NA
ATOM     10  H   UNL     1       3.032   8.625  18.151  0.00  0.00    +0.000 HD
ENDROOT
BRANCH   1  13
ATOM     11  C   UNL     1       0.013  11.158  21.018  0.00  0.00    +0.000 A 
ATOM     12  C   UNL     1       0.363   9.813  20.893  0.00  0.00    +0.000 A 
ATOM     13  C   UNL     1       1.141   9.452  19.799  0.00  0.00    +0.000 A 
ATOM     14  C   UNL     1       1.528  10.426  18.872  0.00  0.00    +0.000 A 
ATOM     15  C   UNL     1       1.162  11.753  19.065  0.00  0.00    +0.000 A 
ATOM     16  N   UNL     1       0.390  12.097  20.124  0.00  0.00    +0.000 NA
BRANCH  15  17
ATOM     17  C   UNL     1       1.644  12.839  18.131  0.00  0.00    +0.000 C 
ATOM     18  C   UNL     1       2.962  13.539  18.387  0.00  0.00    +0.000 C 
ATOM     19  C   UNL     1       1.675  14.274  18.612  0.00  0.00    +0.000 C 
ENDBRANCH  15  17
BRANCH  11  21
ATOM     20  C   UNL     1      -1.059  10.515  23.178  0.00  0.00    +0.000 C 
ATOM     21  C   UNL     1      -0.725  11.660  22.233  0.00  0.00    +0.000 C 
ENDBRANCH  11  21
ENDBRANCH   1  13
BRANCH   8  22
ATOM     22  C   UNL     1       6.743   5.682  17.965  0.00  0.00    +0.000 C 
ATOM     23  C   UNL     1       7.497   5.957  19.298  0.00  0.00    +0.000 C 
ATOM     24  O   UNL     1       8.298   6.984  18.665  0.00  0.00    +0.000 OA
ATOM     25  C   UNL     1       7.304   7.083  17.604  0.00  0.00    +0.000 C 
BRANCH  22  26
ATOM     26  C   UNL     1       7.368   4.550  17.127  0.00  0.00    +0.000 C 
BRANCH  26  27
ATOM     27  C   UNL     1       7.138   4.686  15.652  0.00  0.00    +0.000 A 
ATOM     28  N   UNL     1       7.782   5.505  14.841  0.00  0.00    +0.000 NA
ATOM     29  N   UNL     1       7.314   5.305  13.563  0.00  0.00    +0.000 NA
ATOM     30  C   UNL     1       6.396   4.374  13.617  0.00  0.00    +0.000 A 
ATOM     31  N   UNL     1       6.243   3.963  14.909  0.00  0.00    +0.000 N 
ATOM     32  C   UNL     1       5.314   2.957  15.350  0.00  0.00    +0.000 C 
ENDBRANCH  26  27
ENDBRANCH  22  26
ENDBRANCH   8  22
TORSDOF 6
ENDMDL
MODEL 5
REMARK VINA RESULT:      -8.0      1.392      2.381
REMARK  Name = 
REMARK  8 active torsions:
REMARK  status: ('A' for Active; 'I' for Inactive)
REMARK    1  A    between atoms: C_1  and  C_2
REMARK    2  A    between atoms: C_2  and  C_3
REMARK    3  A    between atoms: C_5  and  C_6
REMARK    4  A    between atoms: C_13  and  C_14
REMARK    5  A    between atoms: C_14  and  C_15
REMARK    6  A    between atoms: C_15  and  C_16
REMARK    7  A    between atoms: N_20  and  C_21
REMARK    8  A    between atoms: C_27  and  C_28
REMARK                            x       y       z     vdW  Elec       q    Type
REMARK                         _______ _______ _______ _____ _____    ______ ____
ROOT
ATOM      1  C   UNL     1       1.675   8.365  19.476  0.00  0.00    +0.000 C 
ATOM      2  O   UNL     1       1.618   7.891  20.612  0.00  0.00    +0.000 OA
ATOM      3  N   UNL     1       2.380   7.796  18.431  0.00  0.00    +0.000 N 
ATOM      4  C   UNL     1       3.115   6.617  18.650  0.00  0.00    +0.000 A 
ATOM      5  C   UNL     1       2.517   5.489  19.196  0.00  0.00    +0.000 A 
ATOM      6  C   UNL     1       3.300   4.366  19.436  0.00  0.00    +0.000 A 
ATOM      7  C   UNL     1       4.657   4.413  19.147  0.00  0.00    +0.000 A 
ATOM      8  C   UNL     1       5.195   5.566  18.579  0.00  0.00    +0.000 A 
ATOM      9  N   UNL     1       4.416   6.655  18.302  0.00  0.00    +0.000 NA
ATOM     10  H   UNL     1       2.811   8.429  17.772  0.00  0.00    +0.000 HD
ENDROOT
BRANCH   1  13
ATOM     11  C   UNL     1       0.938  12.044  19.082  0.00  0.00    +0.000 A 
ATOM     12  C   UNL     1       1.596  10.891  19.513  0.00  0.00    +0.000 A 
ATOM     13  C   UNL     1       0.996   9.668  19.237  0.00  0.00    +0.000 A 
ATOM     14  C   UNL     1      -0.229   9.634  18.563  0.00  0.00    +0.000 A 
ATOM     15  C   UNL     1      -0.824  10.818  18.143  0.00  0.00    +0.000 A 
ATOM     16  N   UNL     1      -0.244  12.008  18.429  0.00  0.00    +0.000 NA
BRANCH  15  17
ATOM     17  C   UNL     1      -2.100  10.805  17.333  0.00  0.00    +0.000 C 
ATOM     18  C   UNL     1      -3.429  11.106  17.995  0.00  0.00    +0.000 C 
ATOM     19  C   UNL     1      -3.115   9.706  17.563  0.00  0.00    +0.000 C 
ENDBRANCH  15  17
BRANCH  11  21
ATOM     20  C   UNL     1       2.556  13.670  18.101  0.00  0.00    +0.000 C 
ATOM     21  C   UNL     1       1.572  13.403  19.230  0.00  0.00    +0.000 C 
ENDBRANCH  11  21
ENDBRANCH   1  13
BRANCH   8  22
ATOM     22  C   UNL     1       6.707   5.763  18.194  0.00  0.00    +0.000 C 
ATOM     23  C   UNL     1       7.614   6.144  19.398  0.00  0.00    +0.000 C 
ATOM     24  O   UNL     1       8.312   7.127  18.597  0.00  0.00    +0.000 OA
ATOM     25  C   UNL     1       7.194   7.137  17.664  0.00  0.00    +0.000 C 
BRANCH  22  26
ATOM     26  C   UNL     1       7.245   4.576  17.370  0.00  0.00    +0.000 C 
BRANCH  26  27
ATOM     27  C   UNL     1       6.936   4.662  15.906  0.00  0.00    +0.000 A 
ATOM     28  N   UNL     1       7.681   5.256  14.993  0.00  0.00    +0.000 NA
ATOM     29  N   UNL     1       7.082   5.082  13.767  0.00  0.00    +0.000 NA
ATOM     30  C   UNL     1       5.987   4.390  13.953  0.00  0.00    +0.000 A 
ATOM     31  N   UNL     1       5.848   4.113  15.282  0.00  0.00    +0.000 N 
ATOM     32  C   UNL     1       4.755   3.377  15.861  0.00  0.00    +0.000 C 
ENDBRANCH  26  27
ENDBRANCH  22  26
ENDBRANCH   8  22
TORSDOF 6
ENDMDL
MODEL 6
REMARK VINA RESULT:      -8.0      2.949     10.037
REMARK  Name = 
REMARK  8 active torsions:
REMARK  status: ('A' for Active; 'I' for Inactive)
REMARK    1  A    between atoms: C_1  and  C_2
REMARK    2  A    between atoms: C_2  and  C_3
REMARK    3  A    between atoms: C_5  and  C_6
REMARK    4  A    between atoms: C_13  and  C_14
REMARK    5  A    between atoms: C_14  and  C_15
REMARK    6  A    between atoms: C_15  and  C_16
REMARK    7  A    between atoms: N_20  and  C_21
REMARK    8  A    between atoms: C_27  and  C_28
REMARK                            x       y       z     vdW  Elec       q    Type
REMARK                         _______ _______ _______ _____ _____    ______ ____
ROOT
ATOM      1  C   UNL     1       1.864   7.920  19.417  0.00  0.00    +0.000 C 
ATOM      2  O   UNL     1       1.654   8.377  20.541  0.00  0.00    +0.000 OA
ATOM      3  N   UNL     1       1.422   8.504  18.245  0.00  0.00    +0.000 N 
ATOM      4  C   UNL     1       0.654   9.682  18.302  0.00  0.00    +0.000 A 
ATOM      5  C   UNL     1       1.107  10.801  18.989  0.00  0.00    +0.000 A 
ATOM      6  C   UNL     1       0.288  11.922  19.056  0.00  0.00    +0.000 A 
ATOM      7  C   UNL     1      -0.964  11.882  18.458  0.00  0.00    +0.000 A 
ATOM      8  C   UNL     1      -1.352  10.738  17.764  0.00  0.00    +0.000 A 
ATOM      9  N   UNL     1      -0.530   9.652  17.660  0.00  0.00    +0.000 NA
ATOM     10  H   UNL     1       1.157   7.882  17.495  0.00  0.00    +0.000 HD
ENDROOT
BRANCH   1  13
ATOM     11  C   UNL     1       2.991   4.360  19.961  0.00  0.00    +0.000 A 
ATOM     12  C   UNL     1       2.405   5.594  20.248  0.00  0.00    +0.000 A 
ATOM     13  C   UNL     1       2.582   6.619  19.325  0.00  0.00    +0.000 A 
ATOM     14  C   UNL     1       3.336   6.387  18.169  0.00  0.00    +0.000 A 
ATOM     15  C   UNL     1       3.876   5.128  17.933  0.00  0.00    +0.000 A 
ATOM     16  N   UNL     1       3.715   4.139  18.843  0.00  0.00    +0.000 NA
BRANCH  15  17
ATOM     17  C   UNL     1       4.616   4.826  16.650  0.00  0.00    +0.000 C 
ATOM     18  C   UNL     1       6.124   4.690  16.651  0.00  0.00    +0.000 C 
ATOM     19  C   UNL     1       5.489   5.894  16.026  0.00  0.00    +0.000 C 
ENDBRANCH  15  17
BRANCH  11  21
ATOM     20  C   UNL     1       1.262   2.892  21.002  0.00  0.00    +0.000 C 
ATOM     21  C   UNL     1       2.751   3.162  20.843  0.00  0.00    +0.000 C 
ENDBRANCH  11  21
ENDBRANCH   1  13
BRANCH   8  22
ATOM     22  C   UNL     1      -2.733  10.550  17.034  0.00  0.00    +0.000 C 
ATOM     23  C   UNL     1      -2.670   9.586  15.815  0.00  0.00    +0.000 C 
ATOM     24  O   UNL     1      -3.505  10.473  15.034  0.00  0.00    +0.000 OA
ATOM     25  C   UNL     1      -3.170  11.562  15.942  0.00  0.00    +0.000 C 
BRANCH  22  26
ATOM     26  C   UNL     1      -3.863  10.213  18.027  0.00  0.00    +0.000 C 
BRANCH  26  27
ATOM     27  C   UNL     1      -4.902  11.285  18.153  0.00  0.00    +0.000 A 
ATOM     28  N   UNL     1      -5.987  11.402  17.410  0.00  0.00    +0.000 NA
ATOM     29  N   UNL     1      -6.706  12.484  17.860  0.00  0.00    +0.000 NA
ATOM     30  C   UNL     1      -6.050  13.007  18.865  0.00  0.00    +0.000 A 
ATOM     31  N   UNL     1      -4.906  12.295  19.078  0.00  0.00    +0.000 N 
ATOM     32  C   UNL     1      -3.931  12.586  20.096  0.00  0.00    +0.000 C 
ENDBRANCH  26  27
ENDBRANCH  22  26
ENDBRANCH   8  22
TORSDOF 6
ENDMDL
MODEL 7
REMARK VINA RESULT:      -8.0      2.937     10.178
REMARK  Name = 
REMARK  8 active torsions:
REMARK  status: ('A' for Active; 'I' for Inactive)
REMARK    1  A    between atoms: C_1  and  C_2
REMARK    2  A    between atoms: C_2  and  C_3
REMARK    3  A    between atoms: C_5  and  C_6
REMARK    4  A    between atoms: C_13  and  C_14
REMARK    5  A    between atoms: C_14  and  C_15
REMARK    6  A    between atoms: C_15  and  C_16
REMARK    7  A    between atoms: N_20  and  C_21
REMARK    8  A    between atoms: C_27  and  C_28
REMARK                            x       y       z     vdW  Elec       q    Type
REMARK                         _______ _______ _______ _____ _____    ______ ____
ROOT
ATOM      1  C   UNL     1       2.086   7.791  18.867  0.00  0.00    +0.000 C 
ATOM      2  O   UNL     1       1.917   8.084  20.051  0.00  0.00    +0.000 OA
ATOM      3  N   UNL     1       1.560   8.505  17.807  0.00  0.00    +0.000 N 
ATOM      4  C   UNL     1       0.748   9.627  18.059  0.00  0.00    +0.000 A 
ATOM      5  C   UNL     1       1.190  10.664  18.870  0.00  0.00    +0.000 A 
ATOM      6  C   UNL     1       0.330  11.725  19.126  0.00  0.00    +0.000 A 
ATOM      7  C   UNL     1      -0.949  11.707  18.587  0.00  0.00    +0.000 A 
ATOM      8  C   UNL     1      -1.326  10.648  17.763  0.00  0.00    +0.000 A 
ATOM      9  N   UNL     1      -0.466   9.626  17.474  0.00  0.00    +0.000 NA
ATOM     10  H   UNL     1       1.282   7.977  16.992  0.00  0.00    +0.000 HD
ENDROOT
BRANCH   1  13
ATOM     11  C   UNL     1       3.152   4.188  18.530  0.00  0.00    +0.000 A 
ATOM     12  C   UNL     1       2.462   5.296  19.022  0.00  0.00    +0.000 A 
ATOM     13  C   UNL     1       2.851   6.550  18.565  0.00  0.00    +0.000 A 
ATOM     14  C   UNL     1       3.908   6.657  17.655  0.00  0.00    +0.000 A 
ATOM     15  C   UNL     1       4.542   5.512  17.188  0.00  0.00    +0.000 A 
ATOM     16  N   UNL     1       4.170   4.295  17.649  0.00  0.00    +0.000 NA
BRANCH  15  17
ATOM     17  C   UNL     1       5.624   5.594  16.136  0.00  0.00    +0.000 C 
ATOM     18  C   UNL     1       5.472   4.854  14.823  0.00  0.00    +0.000 C 
ATOM     19  C   UNL     1       6.464   4.371  15.837  0.00  0.00    +0.000 C 
ENDBRANCH  15  17
BRANCH  11  21
ATOM     20  C   UNL     1       3.490   1.761  18.057  0.00  0.00    +0.000 C 
ATOM     21  C   UNL     1       2.720   2.786  18.876  0.00  0.00    +0.000 C 
ENDBRANCH  11  21
ENDBRANCH   1  13
BRANCH   8  22
ATOM     22  C   UNL     1      -2.734  10.494  17.079  0.00  0.00    +0.000 C 
ATOM     23  C   UNL     1      -2.734   9.528  15.859  0.00  0.00    +0.000 C 
ATOM     24  O   UNL     1      -3.573  10.435  15.106  0.00  0.00    +0.000 OA
ATOM     25  C   UNL     1      -3.182  11.516  16.001  0.00  0.00    +0.000 C 
BRANCH  22  26
ATOM     26  C   UNL     1      -3.838  10.183  18.109  0.00  0.00    +0.000 C 
BRANCH  26  27
ATOM     27  C   UNL     1      -4.886  11.249  18.217  0.00  0.00    +0.000 A 
ATOM     28  N   UNL     1      -5.984  11.331  17.490  0.00  0.00    +0.000 NA
ATOM     29  N   UNL     1      -6.706  12.421  17.916  0.00  0.00    +0.000 NA
ATOM     30  C   UNL     1      -6.038  12.984  18.890  0.00  0.00    +0.000 A 
ATOM     31  N   UNL     1      -4.884  12.290  19.108  0.00  0.00    +0.000 N 
ATOM     32  C   UNL     1      -3.894  12.624  20.097  0.00  0.00    +0.000 C 
ENDBRANCH  26  27
ENDBRANCH  22  26
ENDBRANCH   8  22
TORSDOF 6
ENDMDL
MODEL 8
REMARK VINA RESULT:      -8.0      2.950     10.081
REMARK  Name = 
REMARK  8 active torsions:
REMARK  status: ('A' for Active; 'I' for Inactive)
REMARK    1  A    between atoms: C_1  and  C_2
REMARK    2  A    between atoms: C_2  and  C_3
REMARK    3  A    between atoms: C_5  and  C_6
REMARK    4  A    between atoms: C_13  and  C_14
REMARK    5  A    between atoms: C_14  and  C_15
REMARK    6  A    between atoms: C_15  and  C_16
REMARK    7  A    between atoms: N_20  and  C_21
REMARK    8  A    between atoms: C_27  and  C_28
REMARK                            x       y       z     vdW  Elec       q    Type
REMARK                         _______ _______ _______ _____ _____    ______ ____
ROOT
ATOM      1  C   UNL     1       2.215   7.768  18.701  0.00  0.00    +0.000 C 
ATOM      2  O   UNL     1       1.968   7.803  19.907  0.00  0.00    +0.000 OA
ATOM      3  N   UNL     1       1.693   8.651  17.775  0.00  0.00    +0.000 N 
ATOM      4  C   UNL     1       0.793   9.648  18.195  0.00  0.00    +0.000 A 
ATOM      5  C   UNL     1       1.121  10.522  19.223  0.00  0.00    +0.000 A 
ATOM      6  C   UNL     1       0.178  11.457  19.632  0.00  0.00    +0.000 A 
ATOM      7  C   UNL     1      -1.069  11.473  19.022  0.00  0.00    +0.000 A 
ATOM      8  C   UNL     1      -1.330  10.584  17.981  0.00  0.00    +0.000 A 
ATOM      9  N   UNL     1      -0.387   9.695  17.548  0.00  0.00    +0.000 NA
ATOM     10  H   UNL     1       1.493   8.284  16.855  0.00  0.00    +0.000 HD
ENDROOT
BRANCH   1  13
ATOM     11  C   UNL     1       5.039   5.786  17.173  0.00  0.00    +0.000 A 
ATOM     12  C   UNL     1       4.210   6.880  17.427  0.00  0.00    +0.000 A 
ATOM     13  C   UNL     1       3.079   6.661  18.206  0.00  0.00    +0.000 A 
ATOM     14  C   UNL     1       2.808   5.376  18.687  0.00  0.00    +0.000 A 
ATOM     15  C   UNL     1       3.685   4.332  18.414  0.00  0.00    +0.000 A 
ATOM     16  N   UNL     1       4.776   4.547  17.642  0.00  0.00    +0.000 NA
BRANCH  15  17
ATOM     17  C   UNL     1       3.464   2.956  18.998  0.00  0.00    +0.000 C 
ATOM     18  C   UNL     1       3.341   1.750  18.090  0.00  0.00    +0.000 C 
ATOM     19  C   UNL     1       2.129   2.270  18.802  0.00  0.00    +0.000 C 
ENDBRANCH  15  17
BRANCH  11  21
ATOM     20  C   UNL     1       6.597   4.787  15.499  0.00  0.00    +0.000 C 
ATOM     21  C   UNL     1       6.346   5.955  16.442  0.00  0.00    +0.000 C 
ENDBRANCH  11  21
ENDBRANCH   1  13
BRANCH   8  22
ATOM     22  C   UNL     1      -2.689  10.490  17.194  0.00  0.00    +0.000 C 
ATOM     23  C   UNL     1      -2.629   9.555  15.952  0.00  0.00    +0.000 C 
ATOM     24  O   UNL     1      -3.384  10.506  15.165  0.00  0.00    +0.000 OA
ATOM     25  C   UNL     1      -3.028  11.552  16.115  0.00  0.00    +0.000 C 
BRANCH  22  26
ATOM     26  C   UNL     1      -3.873  10.188  18.134  0.00  0.00    +0.000 C 
BRANCH  26  27
ATOM     27  C   UNL     1      -4.909  11.271  18.175  0.00  0.00    +0.000 A 
ATOM     28  N   UNL     1      -5.957  11.368  17.379  0.00  0.00    +0.000 NA
ATOM     29  N   UNL     1      -6.687  12.471  17.758  0.00  0.00    +0.000 NA
ATOM     30  C   UNL     1      -6.073  13.025  18.772  0.00  0.00    +0.000 A 
ATOM     31  N   UNL     1      -4.946  12.313  19.062  0.00  0.00    +0.000 N 
ATOM     32  C   UNL     1      -4.015  12.634  20.112  0.00  0.00    +0.000 C 
ENDBRANCH  26  27
ENDBRANCH  22  26
ENDBRANCH   8  22
TORSDOF 6
ENDMDL
MODEL 9
REMARK VINA RESULT:      -8.0      2.691     10.517
REMARK  Name = 
REMARK  8 active torsions:
REMARK  status: ('A' for Active; 'I' for Inactive)
REMARK    1  A    between atoms: C_1  and  C_2
REMARK    2  A    between atoms: C_2  and  C_3
REMARK    3  A    between atoms: C_5  and  C_6
REMARK    4  A    between atoms: C_13  and  C_14
REMARK    5  A    between atoms: C_14  and  C_15
REMARK    6  A    between atoms: C_15  and  C_16
REMARK    7  A    between atoms: N_20  and  C_21
REMARK    8  A    between atoms: C_27  and  C_28
REMARK                            x       y       z     vdW  Elec       q    Type
REMARK                         _______ _______ _______ _____ _____    ______ ____
ROOT
ATOM      1  C   UNL     1       1.558   8.777  18.425  0.00  0.00    +0.000 C 
ATOM      2  O   UNL     1       1.845   9.553  17.513  0.00  0.00    +0.000 OA
ATOM      3  N   UNL     1       0.465   8.927  19.259  0.00  0.00    +0.000 N 
ATOM      4  C   UNL     1      -0.378  10.043  19.104  0.00  0.00    +0.000 A 
ATOM      5  C   UNL     1      -0.952  10.343  17.876  0.00  0.00    +0.000 A 
ATOM      6  C   UNL     1      -1.738  11.484  17.766  0.00  0.00    +0.000 A 
ATOM      7  C   UNL     1      -1.906  12.301  18.875  0.00  0.00    +0.000 A 
ATOM      8  C   UNL     1      -1.322  11.934  20.086  0.00  0.00    +0.000 A 
ATOM      9  N   UNL     1      -0.586  10.789  20.206  0.00  0.00    +0.000 NA
ATOM     10  H   UNL     1       0.577   8.632  20.219  0.00  0.00    +0.000 HD
ENDROOT
BRANCH   1  13
ATOM     11  C   UNL     1       3.088   5.565  19.683  0.00  0.00    +0.000 A 
ATOM     12  C   UNL     1       2.240   6.674  19.651  0.00  0.00    +0.000 A 
ATOM     13  C   UNL     1       2.488   7.643  18.686  0.00  0.00    +0.000 A 
ATOM     14  C   UNL     1       3.564   7.486  17.806  0.00  0.00    +0.000 A 
ATOM     15  C   UNL     1       4.359   6.348  17.878  0.00  0.00    +0.000 A 
ATOM     16  N   UNL     1       4.124   5.414  18.830  0.00  0.00    +0.000 NA
BRANCH  15  17
ATOM     17  C   UNL     1       5.470   6.109  16.881  0.00  0.00    +0.000 C 
ATOM     18  C   UNL     1       5.159   5.996  15.404  0.00  0.00    +0.000 C 
ATOM     19  C   UNL     1       5.558   4.774  16.173  0.00  0.00    +0.000 C 
ENDBRANCH  15  17
BRANCH  11  21
ATOM     20  C   UNL     1       1.444   3.816  20.364  0.00  0.00    +0.000 C 
ATOM     21  C   UNL     1       2.822   4.410  20.614  0.00  0.00    +0.000 C 
ENDBRANCH  11  21
ENDBRANCH   1  13
BRANCH   8  22
ATOM     22  C   UNL     1      -1.429  12.753  21.425  0.00  0.00    +0.000 C 
ATOM     23  C   UNL     1      -0.082  13.381  21.883  0.00  0.00    +0.000 C 
ATOM     24  O   UNL     1      -0.341  13.005  23.256  0.00  0.00    +0.000 OA
ATOM     25  C   UNL     1      -1.308  12.021  22.787  0.00  0.00    +0.000 C 
BRANCH  22  26
ATOM     26  C   UNL     1      -2.596  13.761  21.386  0.00  0.00    +0.000 C 
BRANCH  26  27
ATOM     27  C   UNL     1      -3.785  13.346  22.198  0.00  0.00    +0.000 A 
ATOM     28  N   UNL     1      -4.701  12.469  21.835  0.00  0.00    +0.000 NA
ATOM     29  N   UNL     1      -5.602  12.331  22.865  0.00  0.00    +0.000 NA
ATOM     30  C   UNL     1      -5.222  13.125  23.834  0.00  0.00    +0.000 A 
ATOM     31  N   UNL     1      -4.092  13.791  23.456  0.00  0.00    +0.000 N 
ATOM     32  C   UNL     1      -3.395  14.756  24.264  0.00  0.00    +0.000 C 
ENDBRANCH  26  27
ENDBRANCH  22  26
ENDBRANCH   8  22
TORSDOF 6
ENDMDL
