MODEL 1
REMARK VINA RESULT:      -8.7      0.000      0.000
REMARK  Name = 
REMARK  4 active torsions:
REMARK  status: ('A' for Active; 'I' for Inactive)
REMARK    1  A    between atoms: C_2  and  C_3
REMARK    2  A    between atoms: C_3  and  S_4
REMARK    3  A    between atoms: S_4  and  C_5
REMARK    4  A    between atoms: N_16  and  C_17
REMARK                            x       y       z     vdW  Elec       q    Type
REMARK                         _______ _______ _______ _____ _____    ______ ____
ROOT
ATOM      1  O   UNL     1       1.045   4.274  19.527  0.00  0.00    +0.000 OA
ATOM      2  C   UNL     1       2.073   4.461  20.174  0.00  0.00    +0.000 C 
ATOM      3  N   UNL     1       2.793   5.648  20.210  0.00  0.00    +0.000 N 
ATOM      4  H   UNL     1       3.740   5.598  20.569  0.00  0.00    +0.000 HD
ENDROOT
BRANCH   3   5
ATOM      5  C   UNL     1       2.399   6.882  19.632  0.00  0.00    +0.000 A 
ATOM      6  C   UNL     1       2.711   7.227  18.293  0.00  0.00    +0.000 A 
ATOM      7  C   UNL     1       2.305   8.442  17.723  0.00  0.00    +0.000 A 
ATOM      8  C   UNL     1       1.579   9.282  18.524  0.00  0.00    +0.000 A 
ATOM      9  N   UNL     1       1.040  10.532  18.238  0.00  0.00    +0.000 N 
ATOM     10  C   UNL     1       0.374  11.003  19.377  0.00  0.00    +0.000 A 
ATOM     11  O   UNL     1      -0.219  12.061  19.487  0.00  0.00    +0.000 OA
ATOM     12  N   UNL     1       0.520  10.016  20.366  0.00  0.00    +0.000 N 
ATOM     13  C   UNL     1       1.256   8.958  19.839  0.00  0.00    +0.000 A 
ATOM     14  C   UNL     1       1.644   7.768  20.421  0.00  0.00    +0.000 A 
ATOM     15  H   UNL     1       1.097  11.037  17.370  0.00  0.00    +0.000 HD
ATOM     16  H   UNL     1       0.137  10.101  21.292  0.00  0.00    +0.000 HD
ENDBRANCH   3   5
BRANCH   2  17
ATOM     17  C   UNL     1       2.658   3.349  21.037  0.00  0.00    +0.000 C 
BRANCH  17  18
ATOM     18  S   UNL     1       3.686   2.231  20.037  0.00  0.00    +0.000 S 
BRANCH  18  19
ATOM     19  C   UNL     1       4.577   3.403  19.119  0.00  0.00    +0.000 A 
ATOM     20  N   UNL     1       5.494   4.131  19.652  0.00  0.00    +0.000 NA
ATOM     21  C   UNL     1       6.177   5.015  18.801  0.00  0.00    +0.000 A 
ATOM     22  C   UNL     1       7.202   5.798  19.337  0.00  0.00    +0.000 A 
ATOM     23  C   UNL     1       7.909   6.689  18.526  0.00  0.00    +0.000 A 
ATOM     24  C   UNL     1       7.597   6.804  17.170  0.00  0.00    +0.000 A 
ATOM     25  C   UNL     1       6.581   6.023  16.620  0.00  0.00    +0.000 A 
ATOM     26  C   UNL     1       5.880   5.134  17.439  0.00  0.00    +0.000 A 
ATOM     27  C   UNL     1       4.810   4.274  16.899  0.00  0.00    +0.000 A 
ATOM     28  O   UNL     1       4.484   4.303  15.719  0.00  0.00    +0.000 OA
ATOM     29  N   UNL     1       4.216   3.437  17.807  0.00  0.00    +0.000 N 
ATOM     30  H   UNL     1       3.481   2.831  17.477  0.00  0.00    +0.000 HD
ENDBRANCH  18  19
ENDBRANCH  17  18
ENDBRANCH   2  17
TORSDOF 4
ENDMDL
MODEL 2
REMARK VINA RESULT:      -8.6      1.027      1.268
REMARK  Name = 
REMARK  4 active torsions:
REMARK  status: ('A' for Active; 'I' for Inactive)
REMARK    1  A    between atoms: C_2  and  C_3
REMARK    2  A    between atoms: C_3  and  S_4
REMARK    3  A    between atoms: S_4  and  C_5
REMARK    4  A    between atoms: N_16  and  C_17
REMARK                            x       y       z     vdW  Elec       q    Type
REMARK                         _______ _______ _______ _____ _____    ______ ____
ROOT
ATOM      1  O   UNL     1       0.861   4.372  20.048  0.00  0.00    +0.000 OA
ATOM      2  C   UNL     1       1.850   4.616  20.737  0.00  0.00    +0.000 C 
ATOM      3  N   UNL     1       2.630   5.761  20.643  0.00  0.00    +0.000 N 
ATOM      4  H   UNL     1       3.545   5.728  21.079  0.00  0.00    +0.000 HD
ENDROOT
BRANCH   3   5
ATOM      5  C   UNL     1       2.346   6.902  19.850  0.00  0.00    +0.000 A 
ATOM      6  C   UNL     1       2.768   7.014  18.502  0.00  0.00    +0.000 A 
ATOM      7  C   UNL     1       2.470   8.139  17.719  0.00  0.00    +0.000 A 
ATOM      8  C   UNL     1       1.740   9.128  18.320  0.00  0.00    +0.000 A 
ATOM      9  N   UNL     1       1.292  10.338  17.802  0.00  0.00    +0.000 N 
ATOM     10  C   UNL     1       0.578  11.015  18.799  0.00  0.00    +0.000 A 
ATOM     11  O   UNL     1       0.039  12.103  18.696  0.00  0.00    +0.000 OA
ATOM     12  N   UNL     1       0.601  10.195  19.938  0.00  0.00    +0.000 N 
ATOM     13  C   UNL     1       1.311   9.034  19.641  0.00  0.00    +0.000 A 
ATOM     14  C   UNL     1       1.590   7.936  20.431  0.00  0.00    +0.000 A 
ATOM     15  H   UNL     1       1.437  10.695  16.873  0.00  0.00    +0.000 HD
ATOM     16  H   UNL     1       0.160  10.444  20.808  0.00  0.00    +0.000 HD
ENDBRANCH   3   5
BRANCH   2  17
ATOM     17  C   UNL     1       2.311   3.632  21.806  0.00  0.00    +0.000 C 
BRANCH  17  18
ATOM     18  S   UNL     1       3.217   2.244  21.056  0.00  0.00    +0.000 S 
BRANCH  18  19
ATOM     19  C   UNL     1       3.787   3.020  19.613  0.00  0.00    +0.000 A 
ATOM     20  N   UNL     1       4.921   3.626  19.568  0.00  0.00    +0.000 NA
ATOM     21  C   UNL     1       5.296   4.180  18.333  0.00  0.00    +0.000 A 
ATOM     22  C   UNL     1       6.535   4.817  18.236  0.00  0.00    +0.000 A 
ATOM     23  C   UNL     1       6.949   5.380  17.027  0.00  0.00    +0.000 A 
ATOM     24  C   UNL     1       6.127   5.308  15.901  0.00  0.00    +0.000 A 
ATOM     25  C   UNL     1       4.890   4.668  15.980  0.00  0.00    +0.000 A 
ATOM     26  C   UNL     1       4.485   4.108  17.194  0.00  0.00    +0.000 A 
ATOM     27  C   UNL     1       3.194   3.405  17.323  0.00  0.00    +0.000 A 
ATOM     28  O   UNL     1       2.421   3.286  16.381  0.00  0.00    +0.000 OA
ATOM     29  N   UNL     1       2.929   2.889  18.564  0.00  0.00    +0.000 N 
ATOM     30  H   UNL     1       2.057   2.399  18.693  0.00  0.00    +0.000 HD
ENDBRANCH  18  19
ENDBRANCH  17  18
ENDBRANCH   2  17
TORSDOF 4
ENDMDL
MODEL 3
REMARK VINA RESULT:      -8.5      1.229      1.956
REMARK  Name = 
REMARK  4 active torsions:
REMARK  status: ('A' for Active; 'I' for Inactive)
REMARK    1  A    between atoms: C_2  and  C_3
REMARK    2  A    between atoms: C_3  and  S_4
REMARK    3  A    between atoms: S_4  and  C_5
REMARK    4  A    between atoms: N_16  and  C_17
REMARK                            x       y       z     vdW  Elec       q    Type
REMARK                         _______ _______ _______ _____ _____    ______ ____
ROOT
ATOM      1  O   UNL     1       1.096   4.689  19.359  0.00  0.00    +0.000 OA
ATOM      2  C   UNL     1       1.991   4.952  20.160  0.00  0.00    +0.000 C 
ATOM      3  N   UNL     1       2.567   6.202  20.335  0.00  0.00    +0.000 N 
ATOM      4  H   UNL     1       3.450   6.233  20.834  0.00  0.00    +0.000 HD
ENDROOT
BRANCH   3   5
ATOM      5  C   UNL     1       2.135   7.413  19.736  0.00  0.00    +0.000 A 
ATOM      6  C   UNL     1       2.430   7.741  18.390  0.00  0.00    +0.000 A 
ATOM      7  C   UNL     1       1.987   8.933  17.799  0.00  0.00    +0.000 A 
ATOM      8  C   UNL     1       1.242   9.768  18.587  0.00  0.00    +0.000 A 
ATOM      9  N   UNL     1       0.667  10.996  18.281  0.00  0.00    +0.000 N 
ATOM     10  C   UNL     1      -0.005  11.471  19.415  0.00  0.00    +0.000 A 
ATOM     11  O   UNL     1      -0.627  12.514  19.508  0.00  0.00    +0.000 OA
ATOM     12  N   UNL     1       0.174  10.508  20.421  0.00  0.00    +0.000 N 
ATOM     13  C   UNL     1       0.937   9.461  19.910  0.00  0.00    +0.000 A 
ATOM     14  C   UNL     1       1.361   8.293  20.513  0.00  0.00    +0.000 A 
ATOM     15  H   UNL     1       0.705  11.485  17.403  0.00  0.00    +0.000 HD
ATOM     16  H   UNL     1      -0.206  10.600  21.348  0.00  0.00    +0.000 HD
ENDBRANCH   3   5
BRANCH   2  17
ATOM     17  C   UNL     1       2.554   3.869  21.072  0.00  0.00    +0.000 C 
BRANCH  17  18
ATOM     18  S   UNL     1       3.195   2.474  20.097  0.00  0.00    +0.000 S 
BRANCH  18  19
ATOM     19  C   UNL     1       4.308   3.325  19.075  0.00  0.00    +0.000 A 
ATOM     20  N   UNL     1       4.204   3.308  17.792  0.00  0.00    +0.000 NA
ATOM     21  C   UNL     1       5.137   4.070  17.070  0.00  0.00    +0.000 A 
ATOM     22  C   UNL     1       5.036   4.102  15.677  0.00  0.00    +0.000 A 
ATOM     23  C   UNL     1       5.941   4.849  14.919  0.00  0.00    +0.000 A 
ATOM     24  C   UNL     1       6.956   5.571  15.548  0.00  0.00    +0.000 A 
ATOM     25  C   UNL     1       7.064   5.555  16.939  0.00  0.00    +0.000 A 
ATOM     26  C   UNL     1       6.153   4.806  17.688  0.00  0.00    +0.000 A 
ATOM     27  C   UNL     1       6.216   4.772  19.162  0.00  0.00    +0.000 A 
ATOM     28  O   UNL     1       7.067   5.389  19.792  0.00  0.00    +0.000 OA
ATOM     29  N   UNL     1       5.254   4.012  19.773  0.00  0.00    +0.000 N 
ATOM     30  H   UNL     1       5.261   3.964  20.780  0.00  0.00    +0.000 HD
ENDBRANCH  18  19
ENDBRANCH  17  18
ENDBRANCH   2  17
TORSDOF 4
ENDMDL
MODEL 4
REMARK VINA RESULT:      -8.3      5.183      7.178
REMARK  Name = 
REMARK  4 active torsions:
REMARK  status: ('A' for Active; 'I' for Inactive)
REMARK    1  A    between atoms: C_2  and  C_3
REMARK    2  A    between atoms: C_3  and  S_4
REMARK    3  A    between atoms: S_4  and  C_5
REMARK    4  A    between atoms: N_16  and  C_17
REMARK                            x       y       z     vdW  Elec       q    Type
REMARK                         _______ _______ _______ _____ _____    ______ ____
ROOT
ATOM      1  O   UNL     1       7.310   8.766  17.317  0.00  0.00    +0.000 OA
ATOM      2  C   UNL     1       7.972   8.152  18.151  0.00  0.00    +0.000 C 
ATOM      3  N   UNL     1       8.918   8.715  18.996  0.00  0.00    +0.000 N 
ATOM      4  H   UNL     1       9.563   8.077  19.451  0.00  0.00    +0.000 HD
ENDROOT
BRANCH   3   5
ATOM      5  C   UNL     1       9.184  10.099  19.148  0.00  0.00    +0.000 A 
ATOM      6  C   UNL     1       9.290  10.716  20.420  0.00  0.00    +0.000 A 
ATOM      7  C   UNL     1       9.568  12.083  20.563  0.00  0.00    +0.000 A 
ATOM      8  C   UNL     1       9.743  12.798  19.409  0.00  0.00    +0.000 A 
ATOM      9  N   UNL     1      10.033  14.147  19.238  0.00  0.00    +0.000 N 
ATOM     10  C   UNL     1      10.122  14.415  17.865  0.00  0.00    +0.000 A 
ATOM     11  O   UNL     1      10.368  15.490  17.349  0.00  0.00    +0.000 OA
ATOM     12  N   UNL     1       9.877  13.202  17.202  0.00  0.00    +0.000 N 
ATOM     13  C   UNL     1       9.649  12.209  18.151  0.00  0.00    +0.000 A 
ATOM     14  C   UNL     1       9.377  10.865  17.985  0.00  0.00    +0.000 A 
ATOM     15  H   UNL     1      10.167  14.838  19.956  0.00  0.00    +0.000 HD
ATOM     16  H   UNL     1       9.878  13.110  16.200  0.00  0.00    +0.000 HD
ENDBRANCH   3   5
BRANCH   2  17
ATOM     17  C   UNL     1       7.783   6.650  18.335  0.00  0.00    +0.000 C 
BRANCH  17  18
ATOM     18  S   UNL     1       7.291   5.867  16.769  0.00  0.00    +0.000 S 
BRANCH  18  19
ATOM     19  C   UNL     1       5.666   5.415  17.172  0.00  0.00    +0.000 A 
ATOM     20  N   UNL     1       5.290   4.185  17.212  0.00  0.00    +0.000 NA
ATOM     21  C   UNL     1       3.961   3.939  17.592  0.00  0.00    +0.000 A 
ATOM     22  C   UNL     1       3.526   2.614  17.679  0.00  0.00    +0.000 A 
ATOM     23  C   UNL     1       2.214   2.323  18.056  0.00  0.00    +0.000 A 
ATOM     24  C   UNL     1       1.323   3.356  18.352  0.00  0.00    +0.000 A 
ATOM     25  C   UNL     1       1.745   4.684  18.278  0.00  0.00    +0.000 A 
ATOM     26  C   UNL     1       3.060   4.964  17.900  0.00  0.00    +0.000 A 
ATOM     27  C   UNL     1       3.558   6.351  17.824  0.00  0.00    +0.000 A 
ATOM     28  O   UNL     1       2.845   7.313  18.081  0.00  0.00    +0.000 OA
ATOM     29  N   UNL     1       4.872   6.484  17.458  0.00  0.00    +0.000 N 
ATOM     30  H   UNL     1       5.251   7.415  17.397  0.00  0.00    +0.000 HD
ENDBRANCH  18  19
ENDBRANCH  17  18
ENDBRANCH   2  17
TORSDOF 4
ENDMDL
MODEL 5
REMARK VINA RESULT:      -8.2      5.231      7.252
REMARK  Name = 
REMARK  4 active torsions:
REMARK  status: ('A' for Active; 'I' for Inactive)
REMARK    1  A    between atoms: C_2  and  C_3
REMARK    2  A    between atoms: C_3  and  S_4
REMARK    3  A    between atoms: S_4  and  C_5
REMARK    4  A    between atoms: N_16  and  C_17
REMARK                            x       y       z     vdW  Elec       q    Type
REMARK                         _______ _______ _______ _____ _____    ______ ____
ROOT
ATOM      1  O   UNL     1       7.616   8.039  16.956  0.00  0.00    +0.000 OA
ATOM      2  C   UNL     1       8.071   7.890  18.089  0.00  0.00    +0.000 C 
ATOM      3  N   UNL     1       8.771   8.851  18.804  0.00  0.00    +0.000 N 
ATOM      4  H   UNL     1       9.302   8.528  19.606  0.00  0.00    +0.000 HD
ENDROOT
BRANCH   3   5
ATOM      5  C   UNL     1       8.959  10.204  18.423  0.00  0.00    +0.000 A 
ATOM      6  C   UNL     1       7.951  10.955  17.769  0.00  0.00    +0.000 A 
ATOM      7  C   UNL     1       8.138  12.297  17.408  0.00  0.00    +0.000 A 
ATOM      8  C   UNL     1       9.346  12.856  17.729  0.00  0.00    +0.000 A 
ATOM      9  N   UNL     1       9.811  14.148  17.510  0.00  0.00    +0.000 N 
ATOM     10  C   UNL     1      11.111  14.248  18.020  0.00  0.00    +0.000 A 
ATOM     11  O   UNL     1      11.823  15.236  18.007  0.00  0.00    +0.000 OA
ATOM     12  N   UNL     1      11.433  12.989  18.553  0.00  0.00    +0.000 N 
ATOM     13  C   UNL     1      10.346  12.137  18.377  0.00  0.00    +0.000 A 
ATOM     14  C   UNL     1      10.185  10.815  18.743  0.00  0.00    +0.000 A 
ATOM     15  H   UNL     1       9.320  14.906  17.067  0.00  0.00    +0.000 HD
ATOM     16  H   UNL     1      12.318  12.781  18.985  0.00  0.00    +0.000 HD
ENDBRANCH   3   5
BRANCH   2  17
ATOM     17  C   UNL     1       7.879   6.572  18.832  0.00  0.00    +0.000 C 
BRANCH  17  18
ATOM     18  S   UNL     1       7.235   5.290  17.714  0.00  0.00    +0.000 S 
BRANCH  18  19
ATOM     19  C   UNL     1       5.793   4.856  18.575  0.00  0.00    +0.000 A 
ATOM     20  N   UNL     1       4.851   5.704  18.796  0.00  0.00    +0.000 NA
ATOM     21  C   UNL     1       3.712   5.227  19.466  0.00  0.00    +0.000 A 
ATOM     22  C   UNL     1       2.654   6.109  19.694  0.00  0.00    +0.000 A 
ATOM     23  C   UNL     1       1.502   5.677  20.354  0.00  0.00    +0.000 A 
ATOM     24  C   UNL     1       1.397   4.355  20.791  0.00  0.00    +0.000 A 
ATOM     25  C   UNL     1       2.443   3.460  20.563  0.00  0.00    +0.000 A 
ATOM     26  C   UNL     1       3.591   3.902  19.901  0.00  0.00    +0.000 A 
ATOM     27  C   UNL     1       4.715   2.989  19.621  0.00  0.00    +0.000 A 
ATOM     28  O   UNL     1       4.697   1.812  19.959  0.00  0.00    +0.000 OA
ATOM     29  N   UNL     1       5.771   3.548  18.951  0.00  0.00    +0.000 N 
ATOM     30  H   UNL     1       6.560   2.956  18.738  0.00  0.00    +0.000 HD
ENDBRANCH  18  19
ENDBRANCH  17  18
ENDBRANCH   2  17
TORSDOF 4
ENDMDL
MODEL 6
REMARK VINA RESULT:      -8.1      3.790      8.953
REMARK  Name = 
REMARK  4 active torsions:
REMARK  status: ('A' for Active; 'I' for Inactive)
REMARK    1  A    between atoms: C_2  and  C_3
REMARK    2  A    between atoms: C_3  and  S_4
REMARK    3  A    between atoms: S_4  and  C_5
REMARK    4  A    between atoms: N_16  and  C_17
REMARK                            x       y       z     vdW  Elec       q    Type
REMARK                         _______ _______ _______ _____ _____    ______ ____
ROOT
ATOM      1  O   UNL     1       1.785   9.175  17.341  0.00  0.00    +0.000 OA
ATOM      2  C   UNL     1       1.703   8.758  18.495  0.00  0.00    +0.000 C 
ATOM      3  N   UNL     1       2.217   7.551  18.949  0.00  0.00    +0.000 N 
ATOM      4  H   UNL     1       1.870   7.212  19.840  0.00  0.00    +0.000 HD
ENDROOT
BRANCH   3   5
ATOM      5  C   UNL     1       3.042   6.664  18.211  0.00  0.00    +0.000 A 
ATOM      6  C   UNL     1       2.727   5.292  18.050  0.00  0.00    +0.000 A 
ATOM      7  C   UNL     1       3.539   4.423  17.307  0.00  0.00    +0.000 A 
ATOM      8  C   UNL     1       4.655   4.969  16.732  0.00  0.00    +0.000 A 
ATOM      9  N   UNL     1       5.629   4.368  15.943  0.00  0.00    +0.000 N 
ATOM     10  C   UNL     1       6.575   5.337  15.584  0.00  0.00    +0.000 A 
ATOM     11  O   UNL     1       7.564   5.167  14.893  0.00  0.00    +0.000 OA
ATOM     12  N   UNL     1       6.160   6.542  16.172  0.00  0.00    +0.000 N 
ATOM     13  C   UNL     1       4.978   6.316  16.873  0.00  0.00    +0.000 A 
ATOM     14  C   UNL     1       4.193   7.190  17.599  0.00  0.00    +0.000 A 
ATOM     15  H   UNL     1       5.674   3.405  15.658  0.00  0.00    +0.000 HD
ATOM     16  H   UNL     1       6.664   7.408  16.075  0.00  0.00    +0.000 HD
ENDBRANCH   3   5
BRANCH   2  17
ATOM     17  C   UNL     1       1.003   9.583  19.568  0.00  0.00    +0.000 C 
BRANCH  17  18
ATOM     18  S   UNL     1       0.838  11.317  19.042  0.00  0.00    +0.000 S 
BRANCH  18  19
ATOM     19  C   UNL     1      -0.833  11.317  18.575  0.00  0.00    +0.000 A 
ATOM     20  N   UNL     1      -1.750  11.817  19.327  0.00  0.00    +0.000 NA
ATOM     21  C   UNL     1      -3.062  11.799  18.825  0.00  0.00    +0.000 A 
ATOM     22  C   UNL     1      -4.079  12.363  19.598  0.00  0.00    +0.000 A 
ATOM     23  C   UNL     1      -5.397  12.370  19.136  0.00  0.00    +0.000 A 
ATOM     24  C   UNL     1      -5.709  11.813  17.895  0.00  0.00    +0.000 A 
ATOM     25  C   UNL     1      -4.703  11.253  17.108  0.00  0.00    +0.000 A 
ATOM     26  C   UNL     1      -3.387  11.252  17.579  0.00  0.00    +0.000 A 
ATOM     27  C   UNL     1      -2.285  10.688  16.776  0.00  0.00    +0.000 A 
ATOM     28  O   UNL     1      -2.472  10.193  15.671  0.00  0.00    +0.000 OA
ATOM     29  N   UNL     1      -1.043  10.767  17.348  0.00  0.00    +0.000 N 
ATOM     30  H   UNL     1      -0.262  10.395  16.830  0.00  0.00    +0.000 HD
ENDBRANCH  18  19
ENDBRANCH  17  18
ENDBRANCH   2  17
TORSDOF 4
ENDMDL
MODEL 7
REMARK VINA RESULT:      -8.1      5.033      7.020
REMARK  Name = 
REMARK  4 active torsions:
REMARK  status: ('A' for Active; 'I' for Inactive)
REMARK    1  A    between atoms: C_2  and  C_3
REMARK    2  A    between atoms: C_3  and  S_4
REMARK    3  A    between atoms: S_4  and  C_5
REMARK    4  A    between atoms: N_16  and  C_17
REMARK                            x       y       z     vdW  Elec       q    Type
REMARK                         _______ _______ _______ _____ _____    ______ ____
ROOT
ATOM      1  O   UNL     1       7.368   8.408  17.274  0.00  0.00    +0.000 OA
ATOM      2  C   UNL     1       7.998   7.902  18.200  0.00  0.00    +0.000 C 
ATOM      3  N   UNL     1       8.893   8.574  19.021  0.00  0.00    +0.000 N 
ATOM      4  H   UNL     1       9.526   8.003  19.572  0.00  0.00    +0.000 HD
ENDROOT
BRANCH   3   5
ATOM      5  C   UNL     1       9.128   9.972  19.033  0.00  0.00    +0.000 A 
ATOM      6  C   UNL     1       8.996  10.773  17.872  0.00  0.00    +0.000 A 
ATOM      7  C   UNL     1       9.215  12.159  17.894  0.00  0.00    +0.000 A 
ATOM      8  C   UNL     1       9.557  12.706  19.101  0.00  0.00    +0.000 A 
ATOM      9  N   UNL     1       9.823  14.031  19.429  0.00  0.00    +0.000 N 
ATOM     10  C   UNL     1      10.123  14.101  20.796  0.00  0.00    +0.000 A 
ATOM     11  O   UNL     1      10.401  15.105  21.428  0.00  0.00    +0.000 OA
ATOM     12  N   UNL     1      10.038  12.792  21.295  0.00  0.00    +0.000 N 
ATOM     13  C   UNL     1       9.685  11.937  20.254  0.00  0.00    +0.000 A 
ATOM     14  C   UNL     1       9.473  10.572  20.257  0.00  0.00    +0.000 A 
ATOM     15  H   UNL     1       9.807  14.826  18.814  0.00  0.00    +0.000 HD
ATOM     16  H   UNL     1      10.210  12.555  22.258  0.00  0.00    +0.000 HD
ENDBRANCH   3   5
BRANCH   2  17
ATOM     17  C   UNL     1       7.826   6.425  18.538  0.00  0.00    +0.000 C 
BRANCH  17  18
ATOM     18  S   UNL     1       6.806   5.592  17.283  0.00  0.00    +0.000 S 
BRANCH  18  19
ATOM     19  C   UNL     1       5.514   5.027  18.291  0.00  0.00    +0.000 A 
ATOM     20  N   UNL     1       4.510   5.773  18.594  0.00  0.00    +0.000 NA
ATOM     21  C   UNL     1       3.503   5.193  19.383  0.00  0.00    +0.000 A 
ATOM     22  C   UNL     1       2.381   5.962  19.705  0.00  0.00    +0.000 A 
ATOM     23  C   UNL     1       1.355   5.424  20.484  0.00  0.00    +0.000 A 
ATOM     24  C   UNL     1       1.441   4.111  20.948  0.00  0.00    +0.000 A 
ATOM     25  C   UNL     1       2.550   3.328  20.629  0.00  0.00    +0.000 A 
ATOM     26  C   UNL     1       3.572   3.875  19.848  0.00  0.00    +0.000 A 
ATOM     27  C   UNL     1       4.756   3.082  19.468  0.00  0.00    +0.000 A 
ATOM     28  O   UNL     1       4.902   1.919  19.823  0.00  0.00    +0.000 OA
ATOM     29  N   UNL     1       5.673   3.734  18.686  0.00  0.00    +0.000 N 
ATOM     30  H   UNL     1       6.497   3.226  18.404  0.00  0.00    +0.000 HD
ENDBRANCH  18  19
ENDBRANCH  17  18
ENDBRANCH   2  17
TORSDOF 4
ENDMDL
MODEL 8
REMARK VINA RESULT:      -8.0      2.291      4.341
REMARK  Name = 
REMARK  4 active torsions:
REMARK  status: ('A' for Active; 'I' for Inactive)
REMARK    1  A    between atoms: C_2  and  C_3
REMARK    2  A    between atoms: C_3  and  S_4
REMARK    3  A    between atoms: S_4  and  C_5
REMARK    4  A    between atoms: N_16  and  C_17
REMARK                            x       y       z     vdW  Elec       q    Type
REMARK                         _______ _______ _______ _____ _____    ______ ____
ROOT
ATOM      1  O   UNL     1       5.335   6.190  18.818  0.00  0.00    +0.000 OA
ATOM      2  C   UNL     1       4.933   6.240  17.657  0.00  0.00    +0.000 C 
ATOM      3  N   UNL     1       3.765   6.863  17.240  0.00  0.00    +0.000 N 
ATOM      4  H   UNL     1       3.422   6.621  16.316  0.00  0.00    +0.000 HD
ENDROOT
BRANCH   3   5
ATOM      5  C   UNL     1       2.913   7.665  18.041  0.00  0.00    +0.000 A 
ATOM      6  C   UNL     1       2.324   8.862  17.560  0.00  0.00    +0.000 A 
ATOM      7  C   UNL     1       1.471   9.642  18.353  0.00  0.00    +0.000 A 
ATOM      8  C   UNL     1       1.224   9.187  19.620  0.00  0.00    +0.000 A 
ATOM      9  N   UNL     1       0.425   9.734  20.618  0.00  0.00    +0.000 N 
ATOM     10  C   UNL     1       0.484   8.903  21.744  0.00  0.00    +0.000 A 
ATOM     11  O   UNL     1      -0.096   9.071  22.802  0.00  0.00    +0.000 OA
ATOM     12  N   UNL     1       1.337   7.839  21.414  0.00  0.00    +0.000 N 
ATOM     13  C   UNL     1       1.787   8.012  20.108  0.00  0.00    +0.000 A 
ATOM     14  C   UNL     1       2.629   7.226  19.346  0.00  0.00    +0.000 A 
ATOM     15  H   UNL     1      -0.118  10.579  20.570  0.00  0.00    +0.000 HD
ATOM     16  H   UNL     1       1.559   7.091  22.050  0.00  0.00    +0.000 HD
ENDBRANCH   3   5
BRANCH   2  17
ATOM     17  C   UNL     1       5.736   5.597  16.533  0.00  0.00    +0.000 C 
BRANCH  17  18
ATOM     18  S   UNL     1       5.058   3.962  16.111  0.00  0.00    +0.000 S 
BRANCH  18  19
ATOM     19  C   UNL     1       4.223   3.608  17.589  0.00  0.00    +0.000 A 
ATOM     20  N   UNL     1       2.987   3.917  17.764  0.00  0.00    +0.000 NA
ATOM     21  C   UNL     1       2.405   3.541  18.986  0.00  0.00    +0.000 A 
ATOM     22  C   UNL     1       1.055   3.830  19.199  0.00  0.00    +0.000 A 
ATOM     23  C   UNL     1       0.436   3.472  20.399  0.00  0.00    +0.000 A 
ATOM     24  C   UNL     1       1.162   2.820  21.397  0.00  0.00    +0.000 A 
ATOM     25  C   UNL     1       2.508   2.518  21.195  0.00  0.00    +0.000 A 
ATOM     26  C   UNL     1       3.119   2.879  19.991  0.00  0.00    +0.000 A 
ATOM     27  C   UNL     1       4.535   2.565  19.724  0.00  0.00    +0.000 A 
ATOM     28  O   UNL     1       5.238   1.984  20.541  0.00  0.00    +0.000 OA
ATOM     29  N   UNL     1       5.003   2.961  18.499  0.00  0.00    +0.000 N 
ATOM     30  H   UNL     1       5.966   2.763  18.277  0.00  0.00    +0.000 HD
ENDBRANCH  18  19
ENDBRANCH  17  18
ENDBRANCH   2  17
TORSDOF 4
ENDMDL
MODEL 9
REMARK VINA RESULT:      -8.0      2.009      4.241
REMARK  Name = 
REMARK  4 active torsions:
REMARK  status: ('A' for Active; 'I' for Inactive)
REMARK    1  A    between atoms: C_2  and  C_3
REMARK    2  A    between atoms: C_3  and  S_4
REMARK    3  A    between atoms: S_4  and  C_5
REMARK    4  A    between atoms: N_16  and  C_17
REMARK                            x       y       z     vdW  Elec       q    Type
REMARK                         _______ _______ _______ _____ _____    ______ ____
ROOT
ATOM      1  O   UNL     1       5.527   6.190  18.869  0.00  0.00    +0.000 OA
ATOM      2  C   UNL     1       5.085   6.186  17.722  0.00  0.00    +0.000 C 
ATOM      3  N   UNL     1       3.854   6.700  17.336  0.00  0.00    +0.000 N 
ATOM      4  H   UNL     1       3.503   6.415  16.428  0.00  0.00    +0.000 HD
ENDROOT
BRANCH   3   5
ATOM      5  C   UNL     1       2.964   7.440  18.155  0.00  0.00    +0.000 A 
ATOM      6  C   UNL     1       2.614   7.024  19.463  0.00  0.00    +0.000 A 
ATOM      7  C   UNL     1       1.745   7.769  20.274  0.00  0.00    +0.000 A 
ATOM      8  C   UNL     1       1.254   8.930  19.742  0.00  0.00    +0.000 A 
ATOM      9  N   UNL     1       0.392   9.867  20.302  0.00  0.00    +0.000 N 
ATOM     10  C   UNL     1       0.181  10.893  19.372  0.00  0.00    +0.000 A 
ATOM     11  O   UNL     1      -0.514  11.881  19.525  0.00  0.00    +0.000 OA
ATOM     12  N   UNL     1       0.929  10.562  18.231  0.00  0.00    +0.000 N 
ATOM     13  C   UNL     1       1.591   9.359  18.461  0.00  0.00    +0.000 A 
ATOM     14  C   UNL     1       2.445   8.644  17.645  0.00  0.00    +0.000 A 
ATOM     15  H   UNL     1      -0.023   9.843  21.217  0.00  0.00    +0.000 HD
ATOM     16  H   UNL     1       0.956  11.133  17.402  0.00  0.00    +0.000 HD
ENDBRANCH   3   5
BRANCH   2  17
ATOM     17  C   UNL     1       5.902   5.595  16.579  0.00  0.00    +0.000 C 
BRANCH  17  18
ATOM     18  S   UNL     1       5.322   3.921  16.170  0.00  0.00    +0.000 S 
BRANCH  18  19
ATOM     19  C   UNL     1       4.397   3.581  17.598  0.00  0.00    +0.000 A 
ATOM     20  N   UNL     1       3.139   3.843  17.672  0.00  0.00    +0.000 NA
ATOM     21  C   UNL     1       2.486   3.484  18.863  0.00  0.00    +0.000 A 
ATOM     22  C   UNL     1       1.113   3.722  18.968  0.00  0.00    +0.000 A 
ATOM     23  C   UNL     1       0.423   3.379  20.133  0.00  0.00    +0.000 A 
ATOM     24  C   UNL     1       1.101   2.794  21.204  0.00  0.00    +0.000 A 
ATOM     25  C   UNL     1       2.470   2.543  21.110  0.00  0.00    +0.000 A 
ATOM     26  C   UNL     1       3.151   2.889  19.940  0.00  0.00    +0.000 A 
ATOM     27  C   UNL     1       4.595   2.627  19.787  0.00  0.00    +0.000 A 
ATOM     28  O   UNL     1       5.259   2.105  20.673  0.00  0.00    +0.000 OA
ATOM     29  N   UNL     1       5.134   3.000  18.584  0.00  0.00    +0.000 N 
ATOM     30  H   UNL     1       6.118   2.837  18.438  0.00  0.00    +0.000 HD
ENDBRANCH  18  19
ENDBRANCH  17  18
ENDBRANCH   2  17
TORSDOF 4
ENDMDL
