MODEL 1
REMARK VINA RESULT:      -8.7      0.000      0.000
REMARK  Name = 
REMARK  4 active torsions:
REMARK  status: ('A' for Active; 'I' for Inactive)
REMARK    1  A    between atoms: C_1  and  S_2
REMARK    2  A    between atoms: S_2  and  C_5
REMARK    3  A    between atoms: C_9  and  C_10
REMARK    4  A    between atoms: C_15  and  C_16
REMARK                            x       y       z     vdW  Elec       q    Type
REMARK                         _______ _______ _______ _____ _____    ______ ____
ROOT
ATOM      1  C   UNL     1       1.473   8.580  20.481  0.00  0.00    +0.000 C 
ATOM      2  O   UNL     1       2.076   9.050  19.523  0.00  0.00    +0.000 OA
ATOM      3  N   UNL     1       1.520   7.295  20.961  0.00  0.00    +0.000 N 
ATOM      4  C   UNL     1       2.280   6.331  20.356  0.00  0.00    +0.000 A 
ATOM      5  N   UNL     1       3.198   6.448  19.434  0.00  0.00    +0.000 NA
ATOM      6  C   UNL     1       3.683   5.196  19.091  0.00  0.00    +0.000 A 
ATOM      7  C   UNL     1       3.068   4.144  19.746  0.00  0.00    +0.000 A 
ATOM      8  S   UNL     1       1.936   4.746  20.889  0.00  0.00    +0.000 S 
ATOM      9  H   UNL     1       0.872   6.976  21.665  0.00  0.00    +0.000 HD
ENDROOT
BRANCH   6  10
ATOM     10  C   UNL     1       4.732   5.037  18.088  0.00  0.00    +0.000 A 
ATOM     11  C   UNL     1       6.097   5.065  18.447  0.00  0.00    +0.000 A 
ATOM     12  C   UNL     1       7.100   4.909  17.483  0.00  0.00    +0.000 A 
ATOM     13  C   UNL     1       6.716   4.717  16.174  0.00  0.00    +0.000 A 
ATOM     14  C   UNL     1       5.386   4.689  15.800  0.00  0.00    +0.000 A 
ATOM     15  C   UNL     1       4.379   4.864  16.739  0.00  0.00    +0.000 A 
ATOM     16  C   UNL     1       5.281   4.460  14.344  0.00  0.00    +0.000 C 
ATOM     17  C   UNL     1       6.761   4.297  13.985  0.00  0.00    +0.000 C 
ATOM     18  O   UNL     1       7.594   4.548  15.141  0.00  0.00    +0.000 OA
ENDBRANCH   6  10
BRANCH   1  23
ATOM     19  C   UNL     1      -0.998  11.355  21.041  0.00  0.00    +0.000 A 
ATOM     20  C   UNL     1      -1.375  11.157  22.373  0.00  0.00    +0.000 A 
ATOM     21  C   UNL     1      -0.798  10.118  23.108  0.00  0.00    +0.000 A 
ATOM     22  C   UNL     1       0.137   9.269  22.510  0.00  0.00    +0.000 A 
ATOM     23  C   UNL     1       0.500   9.465  21.171  0.00  0.00    +0.000 A 
ATOM     24  C   UNL     1      -0.060  10.516  20.436  0.00  0.00    +0.000 A 
BRANCH  19  26
ATOM     25  C   UNL     1      -1.302  12.255  18.394  0.00  0.00    +0.000 C 
ATOM     26  S   UNL     1      -1.783  12.614  20.064  0.00  0.00    +0.000 S 
ATOM     27  O   UNL     1      -1.185  13.884  20.428  0.00  0.00    +0.000 OA
ATOM     28  O   UNL     1      -3.210  12.401  20.187  0.00  0.00    +0.000 OA
ENDBRANCH  19  26
ENDBRANCH   1  23
TORSDOF 3
ENDMDL
MODEL 2
REMARK VINA RESULT:      -8.5      1.668      2.310
REMARK  Name = 
REMARK  4 active torsions:
REMARK  status: ('A' for Active; 'I' for Inactive)
REMARK    1  A    between atoms: C_1  and  S_2
REMARK    2  A    between atoms: S_2  and  C_5
REMARK    3  A    between atoms: C_9  and  C_10
REMARK    4  A    between atoms: C_15  and  C_16
REMARK                            x       y       z     vdW  Elec       q    Type
REMARK                         _______ _______ _______ _____ _____    ______ ____
ROOT
ATOM      1  C   UNL     1       0.982   9.581  18.809  0.00  0.00    +0.000 C 
ATOM      2  O   UNL     1       1.508   9.802  17.724  0.00  0.00    +0.000 OA
ATOM      3  N   UNL     1       1.242   8.550  19.679  0.00  0.00    +0.000 N 
ATOM      4  C   UNL     1       2.160   7.579  19.386  0.00  0.00    +0.000 A 
ATOM      5  N   UNL     1       3.055   7.536  18.436  0.00  0.00    +0.000 NA
ATOM      6  C   UNL     1       3.749   6.338  18.498  0.00  0.00    +0.000 A 
ATOM      7  C   UNL     1       3.314   5.473  19.487  0.00  0.00    +0.000 A 
ATOM      8  S   UNL     1       2.084   6.223  20.421  0.00  0.00    +0.000 S 
ATOM      9  H   UNL     1       0.648   8.379  20.477  0.00  0.00    +0.000 HD
ENDROOT
BRANCH   6  10
ATOM     10  C   UNL     1       4.821   6.032  17.555  0.00  0.00    +0.000 A 
ATOM     11  C   UNL     1       6.151   6.435  17.804  0.00  0.00    +0.000 A 
ATOM     12  C   UNL     1       7.177   6.138  16.899  0.00  0.00    +0.000 A 
ATOM     13  C   UNL     1       6.853   5.431  15.762  0.00  0.00    +0.000 A 
ATOM     14  C   UNL     1       5.558   5.029  15.497  0.00  0.00    +0.000 A 
ATOM     15  C   UNL     1       4.524   5.334  16.371  0.00  0.00    +0.000 A 
ATOM     16  C   UNL     1       5.516   4.288  14.219  0.00  0.00    +0.000 C 
ATOM     17  C   UNL     1       7.004   4.284  13.856  0.00  0.00    +0.000 C 
ATOM     18  O   UNL     1       7.759   5.074  14.804  0.00  0.00    +0.000 OA
ENDBRANCH   6  10
BRANCH   1  23
ATOM     19  C   UNL     1      -1.332  11.561  21.008  0.00  0.00    +0.000 A 
ATOM     20  C   UNL     1      -2.184  12.168  20.079  0.00  0.00    +0.000 A 
ATOM     21  C   UNL     1      -2.016  11.910  18.717  0.00  0.00    +0.000 A 
ATOM     22  C   UNL     1      -0.992  11.065  18.282  0.00  0.00    +0.000 A 
ATOM     23  C   UNL     1      -0.134  10.471  19.217  0.00  0.00    +0.000 A 
ATOM     24  C   UNL     1      -0.310  10.709  20.585  0.00  0.00    +0.000 A 
BRANCH  19  26
ATOM     25  C   UNL     1      -0.837  13.593  22.889  0.00  0.00    +0.000 C 
ATOM     26  S   UNL     1      -1.473  11.943  22.737  0.00  0.00    +0.000 S 
ATOM     27  O   UNL     1      -0.573  11.060  23.454  0.00  0.00    +0.000 OA
ATOM     28  O   UNL     1      -2.890  11.966  23.040  0.00  0.00    +0.000 OA
ENDBRANCH  19  26
ENDBRANCH   1  23
TORSDOF 3
ENDMDL
MODEL 3
REMARK VINA RESULT:      -8.5      2.524      9.926
REMARK  Name = 
REMARK  4 active torsions:
REMARK  status: ('A' for Active; 'I' for Inactive)
REMARK    1  A    between atoms: C_1  and  S_2
REMARK    2  A    between atoms: S_2  and  C_5
REMARK    3  A    between atoms: C_9  and  C_10
REMARK    4  A    between atoms: C_15  and  C_16
REMARK                            x       y       z     vdW  Elec       q    Type
REMARK                         _______ _______ _______ _____ _____    ______ ____
ROOT
ATOM      1  C   UNL     1       2.526   6.839  18.889  0.00  0.00    +0.000 C 
ATOM      2  O   UNL     1       1.794   6.486  19.806  0.00  0.00    +0.000 OA
ATOM      3  N   UNL     1       2.652   8.093  18.343  0.00  0.00    +0.000 N 
ATOM      4  C   UNL     1       1.896   9.145  18.782  0.00  0.00    +0.000 A 
ATOM      5  N   UNL     1       1.138   9.243  19.841  0.00  0.00    +0.000 NA
ATOM      6  C   UNL     1       0.529  10.488  19.870  0.00  0.00    +0.000 A 
ATOM      7  C   UNL     1       0.816  11.292  18.780  0.00  0.00    +0.000 A 
ATOM      8  S   UNL     1       1.953  10.510  17.759  0.00  0.00    +0.000 S 
ATOM      9  H   UNL     1       3.176   8.242  17.494  0.00  0.00    +0.000 HD
ENDROOT
BRANCH   6  10
ATOM     10  C   UNL     1      -0.366  10.871  20.958  0.00  0.00    +0.000 A 
ATOM     11  C   UNL     1      -0.311  10.224  22.212  0.00  0.00    +0.000 A 
ATOM     12  C   UNL     1      -1.168  10.595  23.254  0.00  0.00    +0.000 A 
ATOM     13  C   UNL     1      -2.064  11.617  23.023  0.00  0.00    +0.000 A 
ATOM     14  C   UNL     1      -2.137  12.261  21.803  0.00  0.00    +0.000 A 
ATOM     15  C   UNL     1      -1.310  11.892  20.752  0.00  0.00    +0.000 A 
ATOM     16  C   UNL     1      -3.175  13.311  21.854  0.00  0.00    +0.000 C 
ATOM     17  C   UNL     1      -3.615  13.191  23.316  0.00  0.00    +0.000 C 
ATOM     18  O   UNL     1      -2.950  12.077  23.956  0.00  0.00    +0.000 OA
ENDBRANCH   6  10
BRANCH   1  23
ATOM     19  C   UNL     1       5.447   5.090  17.301  0.00  0.00    +0.000 A 
ATOM     20  C   UNL     1       4.908   3.843  16.969  0.00  0.00    +0.000 A 
ATOM     21  C   UNL     1       3.565   3.576  17.247  0.00  0.00    +0.000 A 
ATOM     22  C   UNL     1       2.769   4.542  17.868  0.00  0.00    +0.000 A 
ATOM     23  C   UNL     1       3.320   5.784  18.209  0.00  0.00    +0.000 A 
ATOM     24  C   UNL     1       4.659   6.065  17.915  0.00  0.00    +0.000 A 
BRANCH  19  26
ATOM     25  C   UNL     1       7.471   6.960  17.866  0.00  0.00    +0.000 C 
ATOM     26  S   UNL     1       7.173   5.420  17.036  0.00  0.00    +0.000 S 
ATOM     27  O   UNL     1       7.361   5.645  15.616  0.00  0.00    +0.000 OA
ATOM     28  O   UNL     1       7.902   4.377  17.728  0.00  0.00    +0.000 OA
ENDBRANCH  19  26
ENDBRANCH   1  23
TORSDOF 3
ENDMDL
MODEL 4
REMARK VINA RESULT:      -8.4      2.406      9.896
REMARK  Name = 
REMARK  4 active torsions:
REMARK  status: ('A' for Active; 'I' for Inactive)
REMARK    1  A    between atoms: C_1  and  S_2
REMARK    2  A    between atoms: S_2  and  C_5
REMARK    3  A    between atoms: C_9  and  C_10
REMARK    4  A    between atoms: C_15  and  C_16
REMARK                            x       y       z     vdW  Elec       q    Type
REMARK                         _______ _______ _______ _____ _____    ______ ____
ROOT
ATOM      1  C   UNL     1       2.476   6.689  18.858  0.00  0.00    +0.000 C 
ATOM      2  O   UNL     1       1.723   6.353  19.765  0.00  0.00    +0.000 OA
ATOM      3  N   UNL     1       2.652   7.943  18.326  0.00  0.00    +0.000 N 
ATOM      4  C   UNL     1       1.928   9.017  18.768  0.00  0.00    +0.000 A 
ATOM      5  N   UNL     1       1.164   9.132  19.820  0.00  0.00    +0.000 NA
ATOM      6  C   UNL     1       0.598  10.397  19.855  0.00  0.00    +0.000 A 
ATOM      7  C   UNL     1       0.924  11.201  18.777  0.00  0.00    +0.000 A 
ATOM      8  S   UNL     1       2.044  10.389  17.759  0.00  0.00    +0.000 S 
ATOM      9  H   UNL     1       3.190   8.082  17.484  0.00  0.00    +0.000 HD
ENDROOT
BRANCH   6  10
ATOM     10  C   UNL     1      -0.294  10.800  20.938  0.00  0.00    +0.000 A 
ATOM     11  C   UNL     1      -0.245  10.168  22.200  0.00  0.00    +0.000 A 
ATOM     12  C   UNL     1      -1.100  10.559  23.236  0.00  0.00    +0.000 A 
ATOM     13  C   UNL     1      -1.987  11.586  22.993  0.00  0.00    +0.000 A 
ATOM     14  C   UNL     1      -2.053  12.216  21.765  0.00  0.00    +0.000 A 
ATOM     15  C   UNL     1      -1.229  11.827  20.719  0.00  0.00    +0.000 A 
ATOM     16  C   UNL     1      -3.083  13.275  21.802  0.00  0.00    +0.000 C 
ATOM     17  C   UNL     1      -3.524  13.177  23.266  0.00  0.00    +0.000 C 
ATOM     18  O   UNL     1      -2.870  12.064  23.919  0.00  0.00    +0.000 OA
ENDBRANCH   6  10
BRANCH   1  23
ATOM     19  C   UNL     1       5.266   4.944  17.045  0.00  0.00    +0.000 A 
ATOM     20  C   UNL     1       4.772   3.643  16.914  0.00  0.00    +0.000 A 
ATOM     21  C   UNL     1       3.500   3.334  17.403  0.00  0.00    +0.000 A 
ATOM     22  C   UNL     1       2.733   4.315  18.036  0.00  0.00    +0.000 A 
ATOM     23  C   UNL     1       3.240   5.614  18.176  0.00  0.00    +0.000 A 
ATOM     24  C   UNL     1       4.505   5.934  17.670  0.00  0.00    +0.000 A 
BRANCH  19  26
ATOM     25  C   UNL     1       6.966   4.836  14.807  0.00  0.00    +0.000 C 
ATOM     26  S   UNL     1       6.914   5.336  16.509  0.00  0.00    +0.000 S 
ATOM     27  O   UNL     1       7.827   4.482  17.244  0.00  0.00    +0.000 OA
ATOM     28  O   UNL     1       7.034   6.779  16.568  0.00  0.00    +0.000 OA
ENDBRANCH  19  26
ENDBRANCH   1  23
TORSDOF 3
ENDMDL
MODEL 5
REMARK VINA RESULT:      -8.4      2.686      9.536
REMARK  Name = 
REMARK  4 active torsions:
REMARK  status: ('A' for Active; 'I' for Inactive)
REMARK    1  A    between atoms: C_1  and  S_2
REMARK    2  A    between atoms: S_2  and  C_5
REMARK    3  A    between atoms: C_9  and  C_10
REMARK    4  A    between atoms: C_15  and  C_16
REMARK                            x       y       z     vdW  Elec       q    Type
REMARK                         _______ _______ _______ _____ _____    ______ ____
ROOT
ATOM      1  C   UNL     1       2.679   7.609  18.156  0.00  0.00    +0.000 C 
ATOM      2  O   UNL     1       2.810   8.568  17.404  0.00  0.00    +0.000 OA
ATOM      3  N   UNL     1       2.053   7.573  19.378  0.00  0.00    +0.000 N 
ATOM      4  C   UNL     1       1.498   8.694  19.933  0.00  0.00    +0.000 A 
ATOM      5  N   UNL     1       1.261   9.860  19.396  0.00  0.00    +0.000 NA
ATOM      6  C   UNL     1       0.716  10.712  20.344  0.00  0.00    +0.000 A 
ATOM      7  C   UNL     1       0.599  10.163  21.609  0.00  0.00    +0.000 A 
ATOM      8  S   UNL     1       1.084   8.516  21.579  0.00  0.00    +0.000 S 
ATOM      9  H   UNL     1       2.132   6.767  19.980  0.00  0.00    +0.000 HD
ENDROOT
BRANCH   6  10
ATOM     10  C   UNL     1       0.343  12.083  20.007  0.00  0.00    +0.000 A 
ATOM     11  C   UNL     1      -0.973  12.554  20.213  0.00  0.00    +0.000 A 
ATOM     12  C   UNL     1      -1.327  13.870  19.893  0.00  0.00    +0.000 A 
ATOM     13  C   UNL     1      -0.351  14.696  19.378  0.00  0.00    +0.000 A 
ATOM     14  C   UNL     1       0.941  14.256  19.167  0.00  0.00    +0.000 A 
ATOM     15  C   UNL     1       1.305  12.948  19.458  0.00  0.00    +0.000 A 
ATOM     16  C   UNL     1       1.761  15.356  18.620  0.00  0.00    +0.000 C 
ATOM     17  C   UNL     1       0.735  16.493  18.629  0.00  0.00    +0.000 C 
ATOM     18  O   UNL     1      -0.565  16.000  19.030  0.00  0.00    +0.000 OA
ENDBRANCH   6  10
BRANCH   1  23
ATOM     19  C   UNL     1       5.317   5.246  16.901  0.00  0.00    +0.000 A 
ATOM     20  C   UNL     1       4.693   4.002  17.032  0.00  0.00    +0.000 A 
ATOM     21  C   UNL     1       3.384   3.933  17.516  0.00  0.00    +0.000 A 
ATOM     22  C   UNL     1       2.707   5.099  17.883  0.00  0.00    +0.000 A 
ATOM     23  C   UNL     1       3.344   6.341  17.762  0.00  0.00    +0.000 A 
ATOM     24  C   UNL     1       4.648   6.418  17.259  0.00  0.00    +0.000 A 
BRANCH  19  26
ATOM     25  C   UNL     1       6.989   4.799  14.684  0.00  0.00    +0.000 C 
ATOM     26  S   UNL     1       7.009   5.350  16.371  0.00  0.00    +0.000 S 
ATOM     27  O   UNL     1       7.767   4.379  17.138  0.00  0.00    +0.000 OA
ATOM     28  O   UNL     1       7.362   6.754  16.392  0.00  0.00    +0.000 OA
ENDBRANCH  19  26
ENDBRANCH   1  23
TORSDOF 3
ENDMDL
MODEL 6
REMARK VINA RESULT:      -8.3      1.398      1.948
REMARK  Name = 
REMARK  4 active torsions:
REMARK  status: ('A' for Active; 'I' for Inactive)
REMARK    1  A    between atoms: C_1  and  S_2
REMARK    2  A    between atoms: S_2  and  C_5
REMARK    3  A    between atoms: C_9  and  C_10
REMARK    4  A    between atoms: C_15  and  C_16
REMARK                            x       y       z     vdW  Elec       q    Type
REMARK                         _______ _______ _______ _____ _____    ______ ____
ROOT
ATOM      1  C   UNL     1       2.183   8.002  19.315  0.00  0.00    +0.000 C 
ATOM      2  O   UNL     1       2.476   8.496  18.232  0.00  0.00    +0.000 OA
ATOM      3  N   UNL     1       2.546   6.773  19.809  0.00  0.00    +0.000 N 
ATOM      4  C   UNL     1       3.301   5.900  19.075  0.00  0.00    +0.000 A 
ATOM      5  N   UNL     1       3.962   6.097  17.966  0.00  0.00    +0.000 NA
ATOM      6  C   UNL     1       4.559   4.915  17.558  0.00  0.00    +0.000 A 
ATOM      7  C   UNL     1       4.285   3.825  18.365  0.00  0.00    +0.000 A 
ATOM      8  S   UNL     1       3.349   4.319  19.717  0.00  0.00    +0.000 S 
ATOM      9  H   UNL     1       2.129   6.405  20.651  0.00  0.00    +0.000 HD
ENDROOT
BRANCH   6  10
ATOM     10  C   UNL     1       5.373   4.854  16.347  0.00  0.00    +0.000 A 
ATOM     11  C   UNL     1       6.648   5.459  16.291  0.00  0.00    +0.000 A 
ATOM     12  C   UNL     1       7.427   5.397  15.131  0.00  0.00    +0.000 A 
ATOM     13  C   UNL     1       6.918   4.717  14.045  0.00  0.00    +0.000 A 
ATOM     14  C   UNL     1       5.673   4.119  14.076  0.00  0.00    +0.000 A 
ATOM     15  C   UNL     1       4.877   4.190  15.211  0.00  0.00    +0.000 A 
ATOM     16  C   UNL     1       5.400   3.463  12.781  0.00  0.00    +0.000 C 
ATOM     17  C   UNL     1       6.721   3.733  12.054  0.00  0.00    +0.000 C 
ATOM     18  O   UNL     1       7.578   4.579  12.857  0.00  0.00    +0.000 OA
ENDBRANCH   6  10
BRANCH   1  23
ATOM     19  C   UNL     1      -0.384  10.534  20.371  0.00  0.00    +0.000 A 
ATOM     20  C   UNL     1      -0.553  10.243  21.729  0.00  0.00    +0.000 A 
ATOM     21  C   UNL     1       0.197   9.221  22.315  0.00  0.00    +0.000 A 
ATOM     22  C   UNL     1       1.100   8.481  21.546  0.00  0.00    +0.000 A 
ATOM     23  C   UNL     1       1.254   8.769  20.183  0.00  0.00    +0.000 A 
ATOM     24  C   UNL     1       0.519   9.806  19.595  0.00  0.00    +0.000 A 
BRANCH  19  26
ATOM     25  C   UNL     1      -2.292  12.528  20.915  0.00  0.00    +0.000 C 
ATOM     26  S   UNL     1      -1.391  11.770  19.587  0.00  0.00    +0.000 S 
ATOM     27  O   UNL     1      -2.350  11.081  18.744  0.00  0.00    +0.000 OA
ATOM     28  O   UNL     1      -0.480  12.750  19.032  0.00  0.00    +0.000 OA
ENDBRANCH  19  26
ENDBRANCH   1  23
TORSDOF 3
ENDMDL
MODEL 7
REMARK VINA RESULT:      -8.2      1.624      2.103
REMARK  Name = 
REMARK  4 active torsions:
REMARK  status: ('A' for Active; 'I' for Inactive)
REMARK    1  A    between atoms: C_1  and  S_2
REMARK    2  A    between atoms: S_2  and  C_5
REMARK    3  A    between atoms: C_9  and  C_10
REMARK    4  A    between atoms: C_15  and  C_16
REMARK                            x       y       z     vdW  Elec       q    Type
REMARK                         _______ _______ _______ _____ _____    ______ ____
ROOT
ATOM      1  C   UNL     1       1.082   9.479  18.972  0.00  0.00    +0.000 C 
ATOM      2  O   UNL     1       1.696   9.649  17.925  0.00  0.00    +0.000 OA
ATOM      3  N   UNL     1       1.212   8.448  19.870  0.00  0.00    +0.000 N 
ATOM      4  C   UNL     1       2.084   7.416  19.655  0.00  0.00    +0.000 A 
ATOM      5  N   UNL     1       3.039   7.301  18.772  0.00  0.00    +0.000 NA
ATOM      6  C   UNL     1       3.648   6.062  18.897  0.00  0.00    +0.000 A 
ATOM      7  C   UNL     1       3.089   5.243  19.862  0.00  0.00    +0.000 A 
ATOM      8  S   UNL     1       1.847   6.085  20.697  0.00  0.00    +0.000 S 
ATOM      9  H   UNL     1       0.554   8.328  20.625  0.00  0.00    +0.000 HD
ENDROOT
BRANCH   6  10
ATOM     10  C   UNL     1       4.762   5.674  18.036  0.00  0.00    +0.000 A 
ATOM     11  C   UNL     1       6.055   5.463  18.564  0.00  0.00    +0.000 A 
ATOM     12  C   UNL     1       7.120   5.087  17.737  0.00  0.00    +0.000 A 
ATOM     13  C   UNL     1       6.868   4.920  16.393  0.00  0.00    +0.000 A 
ATOM     14  C   UNL     1       5.611   5.123  15.855  0.00  0.00    +0.000 A 
ATOM     15  C   UNL     1       4.549   5.517  16.656  0.00  0.00    +0.000 A 
ATOM     16  C   UNL     1       5.642   4.862  14.401  0.00  0.00    +0.000 C 
ATOM     17  C   UNL     1       7.097   4.414  14.234  0.00  0.00    +0.000 C 
ATOM     18  O   UNL     1       7.817   4.551  15.481  0.00  0.00    +0.000 OA
ENDBRANCH   6  10
BRANCH   1  23
ATOM     19  C   UNL     1      -0.863  12.135  20.784  0.00  0.00    +0.000 A 
ATOM     20  C   UNL     1      -1.969  12.320  19.948  0.00  0.00    +0.000 A 
ATOM     21  C   UNL     1      -2.095  11.553  18.788  0.00  0.00    +0.000 A 
ATOM     22  C   UNL     1      -1.113  10.616  18.454  0.00  0.00    +0.000 A 
ATOM     23  C   UNL     1      -0.001  10.445  19.289  0.00  0.00    +0.000 A 
ATOM     24  C   UNL     1       0.120  11.197  20.463  0.00  0.00    +0.000 A 
BRANCH  19  26
ATOM     25  C   UNL     1      -1.826  14.467  22.027  0.00  0.00    +0.000 C 
ATOM     26  S   UNL     1      -0.640  13.160  22.217  0.00  0.00    +0.000 S 
ATOM     27  O   UNL     1       0.681  13.752  22.128  0.00  0.00    +0.000 OA
ATOM     28  O   UNL     1      -1.020  12.357  23.361  0.00  0.00    +0.000 OA
ENDBRANCH  19  26
ENDBRANCH   1  23
TORSDOF 3
ENDMDL
MODEL 8
REMARK VINA RESULT:      -8.1      2.120      2.428
REMARK  Name = 
REMARK  4 active torsions:
REMARK  status: ('A' for Active; 'I' for Inactive)
REMARK    1  A    between atoms: C_1  and  S_2
REMARK    2  A    between atoms: S_2  and  C_5
REMARK    3  A    between atoms: C_9  and  C_10
REMARK    4  A    between atoms: C_15  and  C_16
REMARK                            x       y       z     vdW  Elec       q    Type
REMARK                         _______ _______ _______ _____ _____    ______ ____
ROOT
ATOM      1  C   UNL     1       1.042   9.562  18.721  0.00  0.00    +0.000 C 
ATOM      2  O   UNL     1       1.667   9.674  17.673  0.00  0.00    +0.000 OA
ATOM      3  N   UNL     1       1.169   8.587  19.680  0.00  0.00    +0.000 N 
ATOM      4  C   UNL     1       2.049   7.550  19.537  0.00  0.00    +0.000 A 
ATOM      5  N   UNL     1       3.014   7.389  18.672  0.00  0.00    +0.000 NA
ATOM      6  C   UNL     1       3.629   6.163  18.877  0.00  0.00    +0.000 A 
ATOM      7  C   UNL     1       3.065   5.399  19.883  0.00  0.00    +0.000 A 
ATOM      8  S   UNL     1       1.809   6.281  20.653  0.00  0.00    +0.000 S 
ATOM      9  H   UNL     1       0.503   8.508  20.435  0.00  0.00    +0.000 HD
ENDROOT
BRANCH   6  10
ATOM     10  C   UNL     1       4.755   5.731  18.053  0.00  0.00    +0.000 A 
ATOM     11  C   UNL     1       5.991   5.373  18.634  0.00  0.00    +0.000 A 
ATOM     12  C   UNL     1       7.067   4.956  17.842  0.00  0.00    +0.000 A 
ATOM     13  C   UNL     1       6.882   4.897  16.477  0.00  0.00    +0.000 A 
ATOM     14  C   UNL     1       5.682   5.245  15.888  0.00  0.00    +0.000 A 
ATOM     15  C   UNL     1       4.611   5.682  16.656  0.00  0.00    +0.000 A 
ATOM     16  C   UNL     1       5.776   5.075  14.423  0.00  0.00    +0.000 C 
ATOM     17  C   UNL     1       7.195   4.510  14.304  0.00  0.00    +0.000 C 
ATOM     18  O   UNL     1       7.848   4.503  15.595  0.00  0.00    +0.000 OA
ENDBRANCH   6  10
BRANCH   1  23
ATOM     19  C   UNL     1      -2.296  11.266  18.467  0.00  0.00    +0.000 A 
ATOM     20  C   UNL     1      -2.177  12.302  19.398  0.00  0.00    +0.000 A 
ATOM     21  C   UNL     1      -0.982  12.462  20.104  0.00  0.00    +0.000 A 
ATOM     22  C   UNL     1       0.083  11.582  19.894  0.00  0.00    +0.000 A 
ATOM     23  C   UNL     1      -0.049  10.538  18.969  0.00  0.00    +0.000 A 
ATOM     24  C   UNL     1      -1.237  10.385  18.244  0.00  0.00    +0.000 A 
BRANCH  19  26
ATOM     25  C   UNL     1      -5.022  11.959  18.520  0.00  0.00    +0.000 C 
ATOM     26  S   UNL     1      -3.835  10.991  17.623  0.00  0.00    +0.000 S 
ATOM     27  O   UNL     1      -4.187   9.595  17.800  0.00  0.00    +0.000 OA
ATOM     28  O   UNL     1      -3.686  11.559  16.299  0.00  0.00    +0.000 OA
ENDBRANCH  19  26
ENDBRANCH   1  23
TORSDOF 3
ENDMDL
MODEL 9
REMARK VINA RESULT:      -8.1      1.966      2.282
REMARK  Name = 
REMARK  4 active torsions:
REMARK  status: ('A' for Active; 'I' for Inactive)
REMARK    1  A    between atoms: C_1  and  S_2
REMARK    2  A    between atoms: S_2  and  C_5
REMARK    3  A    between atoms: C_9  and  C_10
REMARK    4  A    between atoms: C_15  and  C_16
REMARK                            x       y       z     vdW  Elec       q    Type
REMARK                         _______ _______ _______ _____ _____    ______ ____
ROOT
ATOM      1  C   UNL     1       1.040   9.565  18.634  0.00  0.00    +0.000 C 
ATOM      2  O   UNL     1       1.571   9.715  17.539  0.00  0.00    +0.000 OA
ATOM      3  N   UNL     1       1.290   8.589  19.568  0.00  0.00    +0.000 N 
ATOM      4  C   UNL     1       2.203   7.595  19.340  0.00  0.00    +0.000 A 
ATOM      5  N   UNL     1       3.101   7.488  18.397  0.00  0.00    +0.000 NA
ATOM      6  C   UNL     1       3.787   6.292  18.536  0.00  0.00    +0.000 A 
ATOM      7  C   UNL     1       3.343   5.493  19.575  0.00  0.00    +0.000 A 
ATOM      8  S   UNL     1       2.115   6.308  20.457  0.00  0.00    +0.000 S 
ATOM      9  H   UNL     1       0.693   8.472  20.373  0.00  0.00    +0.000 HD
ENDROOT
BRANCH   6  10
ATOM     10  C   UNL     1       4.859   5.921  17.617  0.00  0.00    +0.000 A 
ATOM     11  C   UNL     1       6.215   6.130  17.954  0.00  0.00    +0.000 A 
ATOM     12  C   UNL     1       7.241   5.770  17.073  0.00  0.00    +0.000 A 
ATOM     13  C   UNL     1       6.891   5.197  15.869  0.00  0.00    +0.000 A 
ATOM     14  C   UNL     1       5.571   4.985  15.519  0.00  0.00    +0.000 A 
ATOM     15  C   UNL     1       4.539   5.356  16.371  0.00  0.00    +0.000 A 
ATOM     16  C   UNL     1       5.503   4.352  14.186  0.00  0.00    +0.000 C 
ATOM     17  C   UNL     1       6.995   4.183  13.886  0.00  0.00    +0.000 C 
ATOM     18  O   UNL     1       7.794   4.798  14.925  0.00  0.00    +0.000 OA
ENDBRANCH   6  10
BRANCH   1  23
ATOM     19  C   UNL     1      -2.326  11.230  18.541  0.00  0.00    +0.000 A 
ATOM     20  C   UNL     1      -2.236  12.150  19.591  0.00  0.00    +0.000 A 
ATOM     21  C   UNL     1      -1.053  12.244  20.327  0.00  0.00    +0.000 A 
ATOM     22  C   UNL     1       0.031  11.413  20.027  0.00  0.00    +0.000 A 
ATOM     23  C   UNL     1      -0.072  10.486  18.982  0.00  0.00    +0.000 A 
ATOM     24  C   UNL     1      -1.248  10.400  18.229  0.00  0.00    +0.000 A 
BRANCH  19  26
ATOM     25  C   UNL     1      -3.387  11.111  15.939  0.00  0.00    +0.000 C 
ATOM     26  S   UNL     1      -3.850  11.033  17.650  0.00  0.00    +0.000 S 
ATOM     27  O   UNL     1      -4.675  12.193  17.933  0.00  0.00    +0.000 OA
ATOM     28  O   UNL     1      -4.325   9.694  17.937  0.00  0.00    +0.000 OA
ENDBRANCH  19  26
ENDBRANCH   1  23
TORSDOF 3
ENDMDL
