MODEL 1
REMARK VINA RESULT:      -8.4      0.000      0.000
REMARK  Name = 
REMARK  5 active torsions:
REMARK  status: ('A' for Active; 'I' for Inactive)
REMARK    1  A    between atoms: C_4  and  C_5
REMARK    2  A    between atoms: C_7  and  C_8
REMARK    3  A    between atoms: C_8  and  N_9
REMARK    4  A    between atoms: N_21  and  C_22
REMARK    5  A    between atoms: C_22  and  C_23
REMARK                            x       y       z     vdW  Elec       q    Type
REMARK                         _______ _______ _______ _____ _____    ______ ____
ROOT
ATOM      1  C   UNL     1       1.497   9.179  18.431  0.00  0.00    +0.000 A 
ATOM      2  N   UNL     1       2.293   8.751  17.482  0.00  0.00    +0.000 NA
ATOM      3  C   UNL     1       2.928   7.696  18.079  0.00  0.00    +0.000 A 
ATOM      4  N   UNL     1       2.528   7.442  19.334  0.00  0.00    +0.000 NA
ATOM      5  O   UNL     1       1.574   8.438  19.575  0.00  0.00    +0.000 OA
ENDROOT
BRANCH   1   9
ATOM      6  O   UNL     1       1.803  12.347  21.078  0.00  0.00    +0.000 OA
ATOM      7  C   UNL     1       1.139  11.669  20.313  0.00  0.00    +0.000 C 
ATOM      8  C   UNL     1       1.288  11.629  18.812  0.00  0.00    +0.000 C 
ATOM      9  C   UNL     1       0.565  10.338  18.425  0.00  0.00    +0.000 C 
ATOM     10  C   UNL     1      -0.499  10.183  19.515  0.00  0.00    +0.000 C 
ATOM     11  N   UNL     1       0.065  10.869  20.654  0.00  0.00    +0.000 N 
BRANCH  11  12
ATOM     12  C   UNL     1      -0.411  10.682  22.026  0.00  0.00    +0.000 C 
BRANCH  12  13
ATOM     13  C   UNL     1      -0.004   9.380  22.732  0.00  0.00    +0.000 C 
ATOM     14  F   UNL     1      -0.074   9.452  24.078  0.00  0.00    +0.000 F 
ATOM     15  F   UNL     1      -0.782   8.345  22.339  0.00  0.00    +0.000 F 
ATOM     16  F   UNL     1       1.275   9.056  22.417  0.00  0.00    +0.000 F 
ENDBRANCH  12  13
ENDBRANCH  11  12
ENDBRANCH   1   9
BRANCH   3  17
ATOM     17  C   UNL     1       3.971   6.914  17.382  0.00  0.00    +0.000 C 
BRANCH  17  18
ATOM     18  N   UNL     1       4.232   5.679  18.096  0.00  0.00    +0.000 N 
ATOM     19  C   UNL     1       5.377   5.411  18.798  0.00  0.00    +0.000 A 
ATOM     20  N   UNL     1       5.314   4.247  19.399  0.00  0.00    +0.000 NA
ATOM     21  C   UNL     1       4.086   3.732  19.065  0.00  0.00    +0.000 A 
ATOM     22  C   UNL     1       3.497   2.515  19.441  0.00  0.00    +0.000 A 
ATOM     23  C   UNL     1       2.218   2.208  18.961  0.00  0.00    +0.000 A 
ATOM     24  C   UNL     1       1.541   3.091  18.117  0.00  0.00    +0.000 A 
ATOM     25  C   UNL     1       2.111   4.310  17.731  0.00  0.00    +0.000 A 
ATOM     26  C   UNL     1       3.384   4.604  18.233  0.00  0.00    +0.000 A 
ENDBRANCH  17  18
ENDBRANCH   3  17
TORSDOF 5
ENDMDL
MODEL 2
REMARK VINA RESULT:      -8.2      1.411      2.576
REMARK  Name = 
REMARK  5 active torsions:
REMARK  status: ('A' for Active; 'I' for Inactive)
REMARK    1  A    between atoms: C_4  and  C_5
REMARK    2  A    between atoms: C_7  and  C_8
REMARK    3  A    between atoms: C_8  and  N_9
REMARK    4  A    between atoms: N_21  and  C_22
REMARK    5  A    between atoms: C_22  and  C_23
REMARK                            x       y       z     vdW  Elec       q    Type
REMARK                         _______ _______ _______ _____ _____    ______ ____
ROOT
ATOM      1  C   UNL     1       1.426   9.250  18.470  0.00  0.00    +0.000 A 
ATOM      2  N   UNL     1       1.645   8.315  19.362  0.00  0.00    +0.000 NA
ATOM      3  C   UNL     1       2.594   7.540  18.753  0.00  0.00    +0.000 A 
ATOM      4  N   UNL     1       2.987   7.980  17.549  0.00  0.00    +0.000 NA
ATOM      5  O   UNL     1       2.201   9.122  17.353  0.00  0.00    +0.000 OA
ENDROOT
BRANCH   1   9
ATOM      6  O   UNL     1       1.777  12.427  21.101  0.00  0.00    +0.000 OA
ATOM      7  C   UNL     1       1.095  11.730  20.370  0.00  0.00    +0.000 C 
ATOM      8  C   UNL     1       1.168  11.693  18.864  0.00  0.00    +0.000 C 
ATOM      9  C   UNL     1       0.463  10.382  18.512  0.00  0.00    +0.000 C 
ATOM     10  C   UNL     1      -0.539  10.199  19.655  0.00  0.00    +0.000 C 
ATOM     11  N   UNL     1       0.061  10.901  20.764  0.00  0.00    +0.000 N 
BRANCH  11  12
ATOM     12  C   UNL     1      -0.339  10.701  22.158  0.00  0.00    +0.000 C 
BRANCH  12  13
ATOM     13  C   UNL     1       0.030   9.356  22.803  0.00  0.00    +0.000 C 
ATOM     14  F   UNL     1       1.244   8.896  22.432  0.00  0.00    +0.000 F 
ATOM     15  F   UNL     1       0.023   9.441  24.153  0.00  0.00    +0.000 F 
ATOM     16  F   UNL     1      -0.877   8.408  22.460  0.00  0.00    +0.000 F 
ENDBRANCH  12  13
ENDBRANCH  11  12
ENDBRANCH   1   9
BRANCH   3  17
ATOM     17  C   UNL     1       3.128   6.315  19.386  0.00  0.00    +0.000 C 
BRANCH  17  18
ATOM     18  N   UNL     1       3.550   5.369  18.371  0.00  0.00    +0.000 N 
ATOM     19  C   UNL     1       2.736   4.432  17.791  0.00  0.00    +0.000 A 
ATOM     20  N   UNL     1       3.365   3.758  16.857  0.00  0.00    +0.000 NA
ATOM     21  C   UNL     1       4.640   4.267  16.838  0.00  0.00    +0.000 A 
ATOM     22  C   UNL     1       5.728   3.916  16.025  0.00  0.00    +0.000 A 
ATOM     23  C   UNL     1       6.945   4.586  16.199  0.00  0.00    +0.000 A 
ATOM     24  C   UNL     1       7.078   5.582  17.168  0.00  0.00    +0.000 A 
ATOM     25  C   UNL     1       6.004   5.948  17.988  0.00  0.00    +0.000 A 
ATOM     26  C   UNL     1       4.793   5.275  17.789  0.00  0.00    +0.000 A 
ENDBRANCH  17  18
ENDBRANCH   3  17
TORSDOF 5
ENDMDL
MODEL 3
REMARK VINA RESULT:      -8.1      1.504      2.016
REMARK  Name = 
REMARK  5 active torsions:
REMARK  status: ('A' for Active; 'I' for Inactive)
REMARK    1  A    between atoms: C_4  and  C_5
REMARK    2  A    between atoms: C_7  and  C_8
REMARK    3  A    between atoms: C_8  and  N_9
REMARK    4  A    between atoms: N_21  and  C_22
REMARK    5  A    between atoms: C_22  and  C_23
REMARK                            x       y       z     vdW  Elec       q    Type
REMARK                         _______ _______ _______ _____ _____    ______ ____
ROOT
ATOM      1  C   UNL     1       1.134   9.426  18.372  0.00  0.00    +0.000 A 
ATOM      2  N   UNL     1       1.517   8.414  19.111  0.00  0.00    +0.000 NA
ATOM      3  C   UNL     1       2.586   7.924  18.411  0.00  0.00    +0.000 A 
ATOM      4  N   UNL     1       2.890   8.612  17.301  0.00  0.00    +0.000 NA
ATOM      5  O   UNL     1       1.915   9.615  17.268  0.00  0.00    +0.000 OA
ENDROOT
BRANCH   1   9
ATOM      6  O   UNL     1       1.301  12.756  20.825  0.00  0.00    +0.000 OA
ATOM      7  C   UNL     1       0.654  11.900  20.248  0.00  0.00    +0.000 C 
ATOM      8  C   UNL     1       0.465  11.791  18.756  0.00  0.00    +0.000 C 
ATOM      9  C   UNL     1      -0.014  10.351  18.568  0.00  0.00    +0.000 C 
ATOM     10  C   UNL     1      -0.740  10.043  19.880  0.00  0.00    +0.000 C 
ATOM     11  N   UNL     1      -0.105  10.910  20.845  0.00  0.00    +0.000 N 
BRANCH  11  12
ATOM     12  C   UNL     1      -0.203  10.717  22.293  0.00  0.00    +0.000 C 
BRANCH  12  13
ATOM     13  C   UNL     1       0.073   9.303  22.826  0.00  0.00    +0.000 C 
ATOM     14  F   UNL     1       0.244   9.256  24.164  0.00  0.00    +0.000 F 
ATOM     15  F   UNL     1      -0.935   8.456  22.515  0.00  0.00    +0.000 F 
ATOM     16  F   UNL     1       1.200   8.801  22.263  0.00  0.00    +0.000 F 
ENDBRANCH  12  13
ENDBRANCH  11  12
ENDBRANCH   1   9
BRANCH   3  17
ATOM     17  C   UNL     1       3.330   6.726  18.857  0.00  0.00    +0.000 C 
BRANCH  17  18
ATOM     18  N   UNL     1       2.500   5.544  18.731  0.00  0.00    +0.000 N 
ATOM     19  C   UNL     1       1.923   5.116  17.565  0.00  0.00    +0.000 A 
ATOM     20  N   UNL     1       1.282   3.983  17.731  0.00  0.00    +0.000 NA
ATOM     21  C   UNL     1       1.438   3.668  19.059  0.00  0.00    +0.000 A 
ATOM     22  C   UNL     1       0.964   2.558  19.773  0.00  0.00    +0.000 A 
ATOM     23  C   UNL     1       1.254   2.461  21.140  0.00  0.00    +0.000 A 
ATOM     24  C   UNL     1       1.996   3.453  21.784  0.00  0.00    +0.000 A 
ATOM     25  C   UNL     1       2.479   4.568  21.088  0.00  0.00    +0.000 A 
ATOM     26  C   UNL     1       2.190   4.639  19.720  0.00  0.00    +0.000 A 
ENDBRANCH  17  18
ENDBRANCH   3  17
TORSDOF 5
ENDMDL
MODEL 4
REMARK VINA RESULT:      -8.0      4.161      7.908
REMARK  Name = 
REMARK  5 active torsions:
REMARK  status: ('A' for Active; 'I' for Inactive)
REMARK    1  A    between atoms: C_4  and  C_5
REMARK    2  A    between atoms: C_7  and  C_8
REMARK    3  A    between atoms: C_8  and  N_9
REMARK    4  A    between atoms: N_21  and  C_22
REMARK    5  A    between atoms: C_22  and  C_23
REMARK                            x       y       z     vdW  Elec       q    Type
REMARK                         _______ _______ _______ _____ _____    ______ ____
ROOT
ATOM      1  C   UNL     1       2.471   6.796  18.836  0.00  0.00    +0.000 A 
ATOM      2  N   UNL     1       2.509   7.789  17.982  0.00  0.00    +0.000 NA
ATOM      3  C   UNL     1       1.928   8.809  18.686  0.00  0.00    +0.000 A 
ATOM      4  N   UNL     1       1.573   8.490  19.940  0.00  0.00    +0.000 NA
ATOM      5  O   UNL     1       1.930   7.140  20.041  0.00  0.00    +0.000 OA
ENDROOT
BRANCH   1   9
ATOM      6  O   UNL     1       6.321   5.511  19.653  0.00  0.00    +0.000 OA
ATOM      7  C   UNL     1       5.258   5.365  19.074  0.00  0.00    +0.000 C 
ATOM      8  C   UNL     1       3.945   4.996  19.718  0.00  0.00    +0.000 C 
ATOM      9  C   UNL     1       2.915   5.387  18.659  0.00  0.00    +0.000 C 
ATOM     10  C   UNL     1       3.677   5.221  17.341  0.00  0.00    +0.000 C 
ATOM     11  N   UNL     1       5.059   5.422  17.708  0.00  0.00    +0.000 N 
BRANCH  11  12
ATOM     12  C   UNL     1       6.115   5.722  16.740  0.00  0.00    +0.000 C 
BRANCH  12  13
ATOM     13  C   UNL     1       6.939   4.535  16.219  0.00  0.00    +0.000 C 
ATOM     14  F   UNL     1       7.553   4.780  15.042  0.00  0.00    +0.000 F 
ATOM     15  F   UNL     1       7.894   4.173  17.107  0.00  0.00    +0.000 F 
ATOM     16  F   UNL     1       6.140   3.455  16.034  0.00  0.00    +0.000 F 
ENDBRANCH  12  13
ENDBRANCH  11  12
ENDBRANCH   1   9
BRANCH   3  17
ATOM     17  C   UNL     1       1.714  10.146  18.094  0.00  0.00    +0.000 C 
BRANCH  17  18
ATOM     18  N   UNL     1       0.549  10.776  18.686  0.00  0.00    +0.000 N 
ATOM     19  C   UNL     1       0.587  11.662  19.730  0.00  0.00    +0.000 A 
ATOM     20  N   UNL     1      -0.607  12.124  20.015  0.00  0.00    +0.000 NA
ATOM     21  C   UNL     1      -1.456  11.505  19.131  0.00  0.00    +0.000 A 
ATOM     22  C   UNL     1      -2.846  11.639  18.987  0.00  0.00    +0.000 A 
ATOM     23  C   UNL     1      -3.497  10.889  18.000  0.00  0.00    +0.000 A 
ATOM     24  C   UNL     1      -2.781  10.017  17.178  0.00  0.00    +0.000 A 
ATOM     25  C   UNL     1      -1.395   9.871  17.305  0.00  0.00    +0.000 A 
ATOM     26  C   UNL     1      -0.760  10.639  18.288  0.00  0.00    +0.000 A 
ENDBRANCH  17  18
ENDBRANCH   3  17
TORSDOF 5
ENDMDL
MODEL 5
REMARK VINA RESULT:      -8.0      2.658      7.207
REMARK  Name = 
REMARK  5 active torsions:
REMARK  status: ('A' for Active; 'I' for Inactive)
REMARK    1  A    between atoms: C_4  and  C_5
REMARK    2  A    between atoms: C_7  and  C_8
REMARK    3  A    between atoms: C_8  and  N_9
REMARK    4  A    between atoms: N_21  and  C_22
REMARK    5  A    between atoms: C_22  and  C_23
REMARK                            x       y       z     vdW  Elec       q    Type
REMARK                         _______ _______ _______ _____ _____    ______ ____
ROOT
ATOM      1  C   UNL     1       3.193   6.909  18.596  0.00  0.00    +0.000 A 
ATOM      2  N   UNL     1       2.747   7.811  17.757  0.00  0.00    +0.000 NA
ATOM      3  C   UNL     1       1.832   8.494  18.512  0.00  0.00    +0.000 A 
ATOM      4  N   UNL     1       1.729   8.071  19.781  0.00  0.00    +0.000 NA
ATOM      5  O   UNL     1       2.634   7.005  19.839  0.00  0.00    +0.000 OA
ENDROOT
BRANCH   1   9
ATOM      6  O   UNL     1       2.170   3.175  17.133  0.00  0.00    +0.000 OA
ATOM      7  C   UNL     1       2.935   3.895  17.751  0.00  0.00    +0.000 C 
ATOM      8  C   UNL     1       3.805   4.975  17.157  0.00  0.00    +0.000 C 
ATOM      9  C   UNL     1       4.184   5.824  18.371  0.00  0.00    +0.000 C 
ATOM     10  C   UNL     1       4.163   4.822  19.528  0.00  0.00    +0.000 C 
ATOM     11  N   UNL     1       3.225   3.811  19.100  0.00  0.00    +0.000 N 
BRANCH  11  12
ATOM     12  C   UNL     1       2.600   2.851  20.012  0.00  0.00    +0.000 C 
BRANCH  12  13
ATOM     13  C   UNL     1       1.172   3.165  20.482  0.00  0.00    +0.000 C 
ATOM     14  F   UNL     1       0.931   4.484  20.631  0.00  0.00    +0.000 F 
ATOM     15  F   UNL     1       0.253   2.680  19.617  0.00  0.00    +0.000 F 
ATOM     16  F   UNL     1       0.935   2.579  21.682  0.00  0.00    +0.000 F 
ENDBRANCH  12  13
ENDBRANCH  11  12
ENDBRANCH   1   9
BRANCH   3  17
ATOM     17  C   UNL     1       1.029   9.603  17.955  0.00  0.00    +0.000 C 
BRANCH  17  18
ATOM     18  N   UNL     1       1.264  10.820  18.709  0.00  0.00    +0.000 N 
ATOM     19  C   UNL     1       2.207  11.762  18.396  0.00  0.00    +0.000 A 
ATOM     20  N   UNL     1       2.152  12.790  19.209  0.00  0.00    +0.000 NA
ATOM     21  C   UNL     1       1.142  12.500  20.093  0.00  0.00    +0.000 A 
ATOM     22  C   UNL     1       0.652  13.258  21.167  0.00  0.00    +0.000 A 
ATOM     23  C   UNL     1      -0.397  12.740  21.936  0.00  0.00    +0.000 A 
ATOM     24  C   UNL     1      -0.943  11.488  21.646  0.00  0.00    +0.000 A 
ATOM     25  C   UNL     1      -0.469  10.717  20.578  0.00  0.00    +0.000 A 
ATOM     26  C   UNL     1       0.570  11.259  19.813  0.00  0.00    +0.000 A 
ENDBRANCH  17  18
ENDBRANCH   3  17
TORSDOF 5
ENDMDL
MODEL 6
REMARK VINA RESULT:      -8.0      4.340      7.758
REMARK  Name = 
REMARK  5 active torsions:
REMARK  status: ('A' for Active; 'I' for Inactive)
REMARK    1  A    between atoms: C_4  and  C_5
REMARK    2  A    between atoms: C_7  and  C_8
REMARK    3  A    between atoms: C_8  and  N_9
REMARK    4  A    between atoms: N_21  and  C_22
REMARK    5  A    between atoms: C_22  and  C_23
REMARK                            x       y       z     vdW  Elec       q    Type
REMARK                         _______ _______ _______ _____ _____    ______ ____
ROOT
ATOM      1  C   UNL     1       5.793   4.790  19.291  0.00  0.00    +0.000 A 
ATOM      2  N   UNL     1       4.897   5.685  19.629  0.00  0.00    +0.000 NA
ATOM      3  C   UNL     1       3.774   4.926  19.814  0.00  0.00    +0.000 A 
ATOM      4  N   UNL     1       3.954   3.609  19.638  0.00  0.00    +0.000 NA
ATOM      5  O   UNL     1       5.305   3.515  19.282  0.00  0.00    +0.000 OA
ENDROOT
BRANCH   1   9
ATOM      6  O   UNL     1       7.070   7.740  16.683  0.00  0.00    +0.000 OA
ATOM      7  C   UNL     1       7.246   6.667  17.233  0.00  0.00    +0.000 C 
ATOM      8  C   UNL     1       7.537   6.463  18.699  0.00  0.00    +0.000 C 
ATOM      9  C   UNL     1       7.219   4.983  18.915  0.00  0.00    +0.000 C 
ATOM     10  C   UNL     1       7.509   4.353  17.551  0.00  0.00    +0.000 C 
ATOM     11  N   UNL     1       7.301   5.432  16.614  0.00  0.00    +0.000 N 
BRANCH  11  12
ATOM     12  C   UNL     1       7.102   5.228  15.178  0.00  0.00    +0.000 C 
BRANCH  12  13
ATOM     13  C   UNL     1       5.911   4.356  14.757  0.00  0.00    +0.000 C 
ATOM     14  F   UNL     1       5.629   4.428  13.439  0.00  0.00    +0.000 F 
ATOM     15  F   UNL     1       6.126   3.054  15.056  0.00  0.00    +0.000 F 
ATOM     16  F   UNL     1       4.793   4.736  15.424  0.00  0.00    +0.000 F 
ENDBRANCH  12  13
ENDBRANCH  11  12
ENDBRANCH   1   9
BRANCH   3  17
ATOM     17  C   UNL     1       2.472   5.529  20.173  0.00  0.00    +0.000 C 
BRANCH  17  18
ATOM     18  N   UNL     1       2.288   6.782  19.466  0.00  0.00    +0.000 N 
ATOM     19  C   UNL     1       2.594   6.986  18.147  0.00  0.00    +0.000 A 
ATOM     20  N   UNL     1       2.261   8.193  17.755  0.00  0.00    +0.000 NA
ATOM     21  C   UNL     1       1.728   8.801  18.865  0.00  0.00    +0.000 A 
ATOM     22  C   UNL     1       1.205  10.095  19.008  0.00  0.00    +0.000 A 
ATOM     23  C   UNL     1       0.717  10.492  20.259  0.00  0.00    +0.000 A 
ATOM     24  C   UNL     1       0.756   9.620  21.349  0.00  0.00    +0.000 A 
ATOM     25  C   UNL     1       1.273   8.324  21.226  0.00  0.00    +0.000 A 
ATOM     26  C   UNL     1       1.743   7.943  19.964  0.00  0.00    +0.000 A 
ENDBRANCH  17  18
ENDBRANCH   3  17
TORSDOF 5
ENDMDL
MODEL 7
REMARK VINA RESULT:      -8.0      2.766      7.163
REMARK  Name = 
REMARK  5 active torsions:
REMARK  status: ('A' for Active; 'I' for Inactive)
REMARK    1  A    between atoms: C_4  and  C_5
REMARK    2  A    between atoms: C_7  and  C_8
REMARK    3  A    between atoms: C_8  and  N_9
REMARK    4  A    between atoms: N_21  and  C_22
REMARK    5  A    between atoms: C_22  and  C_23
REMARK                            x       y       z     vdW  Elec       q    Type
REMARK                         _______ _______ _______ _____ _____    ______ ____
ROOT
ATOM      1  C   UNL     1       3.206   6.857  18.713  0.00  0.00    +0.000 A 
ATOM      2  N   UNL     1       2.504   7.073  19.798  0.00  0.00    +0.000 NA
ATOM      3  C   UNL     1       1.841   8.233  19.498  0.00  0.00    +0.000 A 
ATOM      4  N   UNL     1       2.081   8.710  18.268  0.00  0.00    +0.000 NA
ATOM      5  O   UNL     1       3.000   7.795  17.742  0.00  0.00    +0.000 OA
ENDROOT
BRANCH   1   9
ATOM      6  O   UNL     1       2.101   3.218  17.078  0.00  0.00    +0.000 OA
ATOM      7  C   UNL     1       2.886   3.894  17.721  0.00  0.00    +0.000 C 
ATOM      8  C   UNL     1       3.767   4.987  17.172  0.00  0.00    +0.000 C 
ATOM      9  C   UNL     1       4.175   5.768  18.422  0.00  0.00    +0.000 C 
ATOM     10  C   UNL     1       4.149   4.710  19.528  0.00  0.00    +0.000 C 
ATOM     11  N   UNL     1       3.188   3.738  19.061  0.00  0.00    +0.000 N 
BRANCH  11  12
ATOM     12  C   UNL     1       2.557   2.744  19.931  0.00  0.00    +0.000 C 
BRANCH  12  13
ATOM     13  C   UNL     1       1.161   3.081  20.475  0.00  0.00    +0.000 C 
ATOM     14  F   UNL     1       0.923   2.575  21.703  0.00  0.00    +0.000 F 
ATOM     15  F   UNL     1       0.971   4.419  20.543  0.00  0.00    +0.000 F 
ATOM     16  F   UNL     1       0.204   2.587  19.649  0.00  0.00    +0.000 F 
ENDBRANCH  12  13
ENDBRANCH  11  12
ENDBRANCH   1   9
BRANCH   3  17
ATOM     17  C   UNL     1       0.941   8.893  20.467  0.00  0.00    +0.000 C 
BRANCH  17  18
ATOM     18  N   UNL     1       0.533  10.192  19.968  0.00  0.00    +0.000 N 
ATOM     19  C   UNL     1       1.151  11.375  20.276  0.00  0.00    +0.000 A 
ATOM     20  N   UNL     1       0.613  12.383  19.630  0.00  0.00    +0.000 NA
ATOM     21  C   UNL     1      -0.400  11.836  18.883  0.00  0.00    +0.000 A 
ATOM     22  C   UNL     1      -1.295  12.461  18.000  0.00  0.00    +0.000 A 
ATOM     23  C   UNL     1      -2.257  11.680  17.349  0.00  0.00    +0.000 A 
ATOM     24  C   UNL     1      -2.333  10.305  17.577  0.00  0.00    +0.000 A 
ATOM     25  C   UNL     1      -1.449   9.662  18.453  0.00  0.00    +0.000 A 
ATOM     26  C   UNL     1      -0.486  10.459  19.083  0.00  0.00    +0.000 A 
ENDBRANCH  17  18
ENDBRANCH   3  17
TORSDOF 5
ENDMDL
MODEL 8
REMARK VINA RESULT:      -8.0      3.596      7.661
REMARK  Name = 
REMARK  5 active torsions:
REMARK  status: ('A' for Active; 'I' for Inactive)
REMARK    1  A    between atoms: C_4  and  C_5
REMARK    2  A    between atoms: C_7  and  C_8
REMARK    3  A    between atoms: C_8  and  N_9
REMARK    4  A    between atoms: N_21  and  C_22
REMARK    5  A    between atoms: C_22  and  C_23
REMARK                            x       y       z     vdW  Elec       q    Type
REMARK                         _______ _______ _______ _____ _____    ______ ____
ROOT
ATOM      1  C   UNL     1       2.266   6.193  18.994  0.00  0.00    +0.000 A 
ATOM      2  N   UNL     1       2.304   7.061  18.013  0.00  0.00    +0.000 NA
ATOM      3  C   UNL     1       2.030   8.241  18.650  0.00  0.00    +0.000 A 
ATOM      4  N   UNL     1       1.863   8.134  19.977  0.00  0.00    +0.000 NA
ATOM      5  O   UNL     1       2.014   6.762  20.209  0.00  0.00    +0.000 OA
ENDROOT
BRANCH   1   9
ATOM      6  O   UNL     1       5.964   4.341  19.180  0.00  0.00    +0.000 OA
ATOM      7  C   UNL     1       4.786   4.322  18.866  0.00  0.00    +0.000 C 
ATOM      8  C   UNL     1       3.618   4.274  19.818  0.00  0.00    +0.000 C 
ATOM      9  C   UNL     1       2.441   4.717  18.949  0.00  0.00    +0.000 C 
ATOM     10  C   UNL     1       2.844   4.261  17.544  0.00  0.00    +0.000 C 
ATOM     11  N   UNL     1       4.287   4.253  17.579  0.00  0.00    +0.000 N 
BRANCH  11  12
ATOM     12  C   UNL     1       5.124   4.241  16.377  0.00  0.00    +0.000 C 
BRANCH  12  13
ATOM     13  C   UNL     1       5.664   5.594  15.892  0.00  0.00    +0.000 C 
ATOM     14  F   UNL     1       6.760   6.009  16.561  0.00  0.00    +0.000 F 
ATOM     15  F   UNL     1       5.983   5.552  14.578  0.00  0.00    +0.000 F 
ATOM     16  F   UNL     1       4.719   6.556  16.039  0.00  0.00    +0.000 F 
ENDBRANCH  12  13
ENDBRANCH  11  12
ENDBRANCH   1   9
BRANCH   3  17
ATOM     17  C   UNL     1       1.926   9.521  17.917  0.00  0.00    +0.000 C 
BRANCH  17  18
ATOM     18  N   UNL     1       0.932  10.375  18.538  0.00  0.00    +0.000 N 
ATOM     19  C   UNL     1       1.202  11.323  19.488  0.00  0.00    +0.000 A 
ATOM     20  N   UNL     1       0.124  11.993  19.822  0.00  0.00    +0.000 NA
ATOM     21  C   UNL     1      -0.888  11.451  19.069  0.00  0.00    +0.000 A 
ATOM     22  C   UNL     1      -2.247  11.795  19.023  0.00  0.00    +0.000 A 
ATOM     23  C   UNL     1      -3.095  11.084  18.165  0.00  0.00    +0.000 A 
ATOM     24  C   UNL     1      -2.601  10.045  17.373  0.00  0.00    +0.000 A 
ATOM     25  C   UNL     1      -1.247   9.688  17.404  0.00  0.00    +0.000 A 
ATOM     26  C   UNL     1      -0.414  10.420  18.258  0.00  0.00    +0.000 A 
ENDBRANCH  17  18
ENDBRANCH   3  17
TORSDOF 5
ENDMDL
MODEL 9
REMARK VINA RESULT:      -7.9      2.708      7.489
REMARK  Name = 
REMARK  5 active torsions:
REMARK  status: ('A' for Active; 'I' for Inactive)
REMARK    1  A    between atoms: C_4  and  C_5
REMARK    2  A    between atoms: C_7  and  C_8
REMARK    3  A    between atoms: C_8  and  N_9
REMARK    4  A    between atoms: N_21  and  C_22
REMARK    5  A    between atoms: C_22  and  C_23
REMARK                            x       y       z     vdW  Elec       q    Type
REMARK                         _______ _______ _______ _____ _____    ______ ____
ROOT
ATOM      1  C   UNL     1       3.162   7.027  18.537  0.00  0.00    +0.000 A 
ATOM      2  N   UNL     1       2.444   7.317  19.594  0.00  0.00    +0.000 NA
ATOM      3  C   UNL     1       1.758   8.431  19.191  0.00  0.00    +0.000 A 
ATOM      4  N   UNL     1       2.000   8.808  17.927  0.00  0.00    +0.000 NA
ATOM      5  O   UNL     1       2.945   7.873  17.488  0.00  0.00    +0.000 OA
ENDROOT
BRANCH   1   9
ATOM      6  O   UNL     1       2.175   3.271  17.103  0.00  0.00    +0.000 OA
ATOM      7  C   UNL     1       2.926   4.001  17.727  0.00  0.00    +0.000 C 
ATOM      8  C   UNL     1       3.807   5.074  17.138  0.00  0.00    +0.000 C 
ATOM      9  C   UNL     1       4.159   5.940  18.348  0.00  0.00    +0.000 C 
ATOM     10  C   UNL     1       4.114   4.953  19.518  0.00  0.00    +0.000 C 
ATOM     11  N   UNL     1       3.186   3.936  19.083  0.00  0.00    +0.000 N 
BRANCH  11  12
ATOM     12  C   UNL     1       2.543   2.987  19.994  0.00  0.00    +0.000 C 
BRANCH  12  13
ATOM     13  C   UNL     1       1.107   3.309  20.434  0.00  0.00    +0.000 C 
ATOM     14  F   UNL     1       0.850   4.631  20.513  0.00  0.00    +0.000 F 
ATOM     15  F   UNL     1       0.201   2.769  19.586  0.00  0.00    +0.000 F 
ATOM     16  F   UNL     1       0.864   2.783  21.661  0.00  0.00    +0.000 F 
ENDBRANCH  12  13
ENDBRANCH  11  12
ENDBRANCH   1   9
BRANCH   3  17
ATOM     17  C   UNL     1       0.833   9.149  20.093  0.00  0.00    +0.000 C 
BRANCH  17  18
ATOM     18  N   UNL     1       0.185  10.236  19.384  0.00  0.00    +0.000 N 
ATOM     19  C   UNL     1      -0.944  10.105  18.620  0.00  0.00    +0.000 A 
ATOM     20  N   UNL     1      -1.348  11.263  18.152  0.00  0.00    +0.000 NA
ATOM     21  C   UNL     1      -0.440  12.180  18.622  0.00  0.00    +0.000 A 
ATOM     22  C   UNL     1      -0.398  13.569  18.432  0.00  0.00    +0.000 A 
ATOM     23  C   UNL     1       0.644  14.299  19.017  0.00  0.00    +0.000 A 
ATOM     24  C   UNL     1       1.629  13.657  19.770  0.00  0.00    +0.000 A 
ATOM     25  C   UNL     1       1.603  12.272  19.973  0.00  0.00    +0.000 A 
ATOM     26  C   UNL     1       0.546  11.563  19.391  0.00  0.00    +0.000 A 
ENDBRANCH  17  18
ENDBRANCH   3  17
TORSDOF 5
ENDMDL
