MODEL 1
REMARK VINA RESULT:      -8.3      0.000      0.000
REMARK  Name = 
REMARK  4 active torsions:
REMARK  status: ('A' for Active; 'I' for Inactive)
REMARK    1  A    between atoms: C_1  and  C_2
REMARK    2  A    between atoms: C_2  and  N_3
REMARK    3  A    between atoms: C_2  and  C_12
REMARK    4  A    between atoms: C_4  and  C_6
REMARK                            x       y       z     vdW  Elec       q    Type
REMARK                         _______ _______ _______ _____ _____    ______ ____
ROOT
ATOM      1  C   UNL     1       5.131   5.463  17.235  0.00  0.00    +0.000 A 
ATOM      2  N   UNL     1       4.359   6.582  16.994  0.00  0.00    +0.000 NA
ATOM      3  C   UNL     1       3.526   6.592  18.009  0.00  0.00    +0.000 A 
ATOM      4  C   UNL     1       2.580   7.578  18.488  0.00  0.00    +0.000 A 
ATOM      5  C   UNL     1       2.238   8.717  17.756  0.00  0.00    +0.000 A 
ATOM      6  C   UNL     1       1.418   9.682  18.339  0.00  0.00    +0.000 A 
ATOM      7  C   UNL     1       0.968   9.520  19.652  0.00  0.00    +0.000 A 
ATOM      8  C   UNL     1       1.283   8.362  20.369  0.00  0.00    +0.000 A 
ATOM      9  C   UNL     1       2.063   7.363  19.786  0.00  0.00    +0.000 A 
ATOM     10  N   UNL     1       2.315   6.169  20.515  0.00  0.00    +0.000 NA
ATOM     11  C   UNL     1       3.121   5.279  20.008  0.00  0.00    +0.000 A 
ATOM     12  N   UNL     1       3.752   5.493  18.790  0.00  0.00    +0.000 N 
ATOM     13  N   UNL     1       4.746   4.723  18.297  0.00  0.00    +0.000 NA
ENDROOT
BRANCH   1  15
ATOM     14  C   UNL     1       7.444   4.543  17.369  0.00  0.00    +0.000 C 
ATOM     15  C   UNL     1       6.406   5.210  16.459  0.00  0.00    +0.000 C 
BRANCH  15  16
ATOM     16  N   UNL     1       6.120   4.393  15.281  0.00  0.00    +0.000 N 
ATOM     17  C   UNL     1       6.752   4.623  14.081  0.00  0.00    +0.000 C 
ATOM     18  O   UNL     1       7.607   5.490  13.928  0.00  0.00    +0.000 OA
ATOM     19  H   UNL     1       5.490   3.611  15.414  0.00  0.00    +0.000 HD
BRANCH  17  20
ATOM     20  C   UNL     1       6.372   3.763  12.931  0.00  0.00    +0.000 A 
ATOM     21  C   UNL     1       7.311   2.984  12.246  0.00  0.00    +0.000 A 
ATOM     22  C   UNL     1       6.889   2.114  11.236  0.00  0.00    +0.000 A 
ATOM     23  C   UNL     1       5.535   2.023  10.907  0.00  0.00    +0.000 A 
ATOM     24  C   UNL     1       4.599   2.805  11.580  0.00  0.00    +0.000 A 
ATOM     25  C   UNL     1       5.015   3.671  12.592  0.00  0.00    +0.000 A 
ENDBRANCH  17  20
ENDBRANCH  15  16
ENDBRANCH   1  15
TORSDOF 3
ENDMDL
MODEL 2
REMARK VINA RESULT:      -8.2      2.424      4.569
REMARK  Name = 
REMARK  4 active torsions:
REMARK  status: ('A' for Active; 'I' for Inactive)
REMARK    1  A    between atoms: C_1  and  C_2
REMARK    2  A    between atoms: C_2  and  N_3
REMARK    3  A    between atoms: C_2  and  C_12
REMARK    4  A    between atoms: C_4  and  C_6
REMARK                            x       y       z     vdW  Elec       q    Type
REMARK                         _______ _______ _______ _____ _____    ______ ____
ROOT
ATOM      1  C   UNL     1       2.401   6.727  19.633  0.00  0.00    +0.000 A 
ATOM      2  N   UNL     1       1.906   7.187  20.838  0.00  0.00    +0.000 NA
ATOM      3  C   UNL     1       1.442   8.376  20.533  0.00  0.00    +0.000 A 
ATOM      4  C   UNL     1       0.626   9.324  21.264  0.00  0.00    +0.000 A 
ATOM      5  C   UNL     1       0.333   9.181  22.621  0.00  0.00    +0.000 A 
ATOM      6  C   UNL     1      -0.562  10.065  23.223  0.00  0.00    +0.000 A 
ATOM      7  C   UNL     1      -1.178  11.064  22.464  0.00  0.00    +0.000 A 
ATOM      8  C   UNL     1      -0.855  11.226  21.114  0.00  0.00    +0.000 A 
ATOM      9  C   UNL     1       0.074  10.382  20.506  0.00  0.00    +0.000 A 
ATOM     10  N   UNL     1       0.430  10.608  19.148  0.00  0.00    +0.000 NA
ATOM     11  C   UNL     1       1.225   9.762  18.555  0.00  0.00    +0.000 A 
ATOM     12  N   UNL     1       1.701   8.639  19.217  0.00  0.00    +0.000 N 
ATOM     13  N   UNL     1       2.355   7.620  18.620  0.00  0.00    +0.000 NA
ENDROOT
BRANCH   1  15
ATOM     14  C   UNL     1       1.535   4.396  19.453  0.00  0.00    +0.000 C 
ATOM     15  C   UNL     1       2.791   5.276  19.450  0.00  0.00    +0.000 C 
BRANCH  15  16
ATOM     16  N   UNL     1       3.557   5.116  18.215  0.00  0.00    +0.000 N 
ATOM     17  C   UNL     1       4.820   4.571  18.222  0.00  0.00    +0.000 C 
ATOM     18  O   UNL     1       5.367   4.159  19.240  0.00  0.00    +0.000 OA
ATOM     19  H   UNL     1       3.083   5.360  17.354  0.00  0.00    +0.000 HD
BRANCH  17  20
ATOM     20  C   UNL     1       5.534   4.480  16.923  0.00  0.00    +0.000 A 
ATOM     21  C   UNL     1       4.892   4.061  15.753  0.00  0.00    +0.000 A 
ATOM     22  C   UNL     1       5.579   4.088  14.535  0.00  0.00    +0.000 A 
ATOM     23  C   UNL     1       6.903   4.529  14.484  0.00  0.00    +0.000 A 
ATOM     24  C   UNL     1       7.548   4.938  15.649  0.00  0.00    +0.000 A 
ATOM     25  C   UNL     1       6.865   4.916  16.866  0.00  0.00    +0.000 A 
ENDBRANCH  17  20
ENDBRANCH  15  16
ENDBRANCH   1  15
TORSDOF 3
ENDMDL
MODEL 3
REMARK VINA RESULT:      -8.2      2.477      4.686
REMARK  Name = 
REMARK  4 active torsions:
REMARK  status: ('A' for Active; 'I' for Inactive)
REMARK    1  A    between atoms: C_1  and  C_2
REMARK    2  A    between atoms: C_2  and  N_3
REMARK    3  A    between atoms: C_2  and  C_12
REMARK    4  A    between atoms: C_4  and  C_6
REMARK                            x       y       z     vdW  Elec       q    Type
REMARK                         _______ _______ _______ _____ _____    ______ ____
ROOT
ATOM      1  C   UNL     1       2.290   6.848  19.839  0.00  0.00    +0.000 A 
ATOM      2  N   UNL     1       1.747   7.351  21.005  0.00  0.00    +0.000 NA
ATOM      3  C   UNL     1       1.307   8.533  20.640  0.00  0.00    +0.000 A 
ATOM      4  C   UNL     1       0.468   9.510  21.301  0.00  0.00    +0.000 A 
ATOM      5  C   UNL     1       0.114   9.416  22.649  0.00  0.00    +0.000 A 
ATOM      6  C   UNL     1      -0.799  10.326  23.180  0.00  0.00    +0.000 A 
ATOM      7  C   UNL     1      -1.372  11.303  22.362  0.00  0.00    +0.000 A 
ATOM      8  C   UNL     1      -0.989  11.417  21.023  0.00  0.00    +0.000 A 
ATOM      9  C   UNL     1      -0.041  10.546  20.485  0.00  0.00    +0.000 A 
ATOM     10  N   UNL     1       0.376  10.724  19.137  0.00  0.00    +0.000 NA
ATOM     11  C   UNL     1       1.189   9.853  18.609  0.00  0.00    +0.000 A 
ATOM     12  N   UNL     1       1.626   8.749  19.328  0.00  0.00    +0.000 N 
ATOM     13  N   UNL     1       2.297   7.706  18.796  0.00  0.00    +0.000 NA
ENDROOT
BRANCH   1  15
ATOM     14  C   UNL     1       1.419   4.512  19.783  0.00  0.00    +0.000 C 
ATOM     15  C   UNL     1       2.676   5.388  19.722  0.00  0.00    +0.000 C 
BRANCH  15  16
ATOM     16  N   UNL     1       3.426   5.167  18.487  0.00  0.00    +0.000 N 
ATOM     17  C   UNL     1       4.802   5.161  18.477  0.00  0.00    +0.000 C 
ATOM     18  O   UNL     1       5.480   5.304  19.489  0.00  0.00    +0.000 OA
ATOM     19  H   UNL     1       2.883   4.949  17.660  0.00  0.00    +0.000 HD
BRANCH  17  20
ATOM     20  C   UNL     1       5.476   4.961  17.169  0.00  0.00    +0.000 A 
ATOM     21  C   UNL     1       6.852   5.153  17.008  0.00  0.00    +0.000 A 
ATOM     22  C   UNL     1       7.458   4.855  15.783  0.00  0.00    +0.000 A 
ATOM     23  C   UNL     1       6.693   4.370  14.721  0.00  0.00    +0.000 A 
ATOM     24  C   UNL     1       5.321   4.187  14.874  0.00  0.00    +0.000 A 
ATOM     25  C   UNL     1       4.713   4.479  16.096  0.00  0.00    +0.000 A 
ENDBRANCH  17  20
ENDBRANCH  15  16
ENDBRANCH   1  15
TORSDOF 3
ENDMDL
MODEL 4
REMARK VINA RESULT:      -8.1      1.437      2.944
REMARK  Name = 
REMARK  4 active torsions:
REMARK  status: ('A' for Active; 'I' for Inactive)
REMARK    1  A    between atoms: C_1  and  C_2
REMARK    2  A    between atoms: C_2  and  N_3
REMARK    3  A    between atoms: C_2  and  C_12
REMARK    4  A    between atoms: C_4  and  C_6
REMARK                            x       y       z     vdW  Elec       q    Type
REMARK                         _______ _______ _______ _____ _____    ______ ____
ROOT
ATOM      1  C   UNL     1       5.674   5.410  17.511  0.00  0.00    +0.000 A 
ATOM      2  N   UNL     1       5.387   4.508  18.517  0.00  0.00    +0.000 NA
ATOM      3  C   UNL     1       4.198   4.887  18.925  0.00  0.00    +0.000 A 
ATOM      4  C   UNL     1       3.228   4.278  19.811  0.00  0.00    +0.000 A 
ATOM      5  C   UNL     1       3.519   3.163  20.599  0.00  0.00    +0.000 A 
ATOM      6  C   UNL     1       2.497   2.558  21.330  0.00  0.00    +0.000 A 
ATOM      7  C   UNL     1       1.191   3.050  21.249  0.00  0.00    +0.000 A 
ATOM      8  C   UNL     1       0.911   4.188  20.487  0.00  0.00    +0.000 A 
ATOM      9  C   UNL     1       1.929   4.835  19.786  0.00  0.00    +0.000 A 
ATOM     10  N   UNL     1       1.627   6.025  19.070  0.00  0.00    +0.000 NA
ATOM     11  C   UNL     1       2.557   6.575  18.340  0.00  0.00    +0.000 A 
ATOM     12  N   UNL     1       3.818   6.003  18.232  0.00  0.00    +0.000 N 
ATOM     13  N   UNL     1       4.761   6.392  17.348  0.00  0.00    +0.000 NA
ENDROOT
BRANCH   1  15
ATOM     14  C   UNL     1       7.976   4.472  17.308  0.00  0.00    +0.000 C 
ATOM     15  C   UNL     1       6.837   5.186  16.568  0.00  0.00    +0.000 C 
BRANCH  15  16
ATOM     16  N   UNL     1       6.394   4.425  15.401  0.00  0.00    +0.000 N 
ATOM     17  C   UNL     1       6.914   4.666  14.150  0.00  0.00    +0.000 C 
ATOM     18  O   UNL     1       7.791   5.497  13.938  0.00  0.00    +0.000 OA
ATOM     19  H   UNL     1       5.742   3.669  15.574  0.00  0.00    +0.000 HD
BRANCH  17  20
ATOM     20  C   UNL     1       6.378   3.866  13.020  0.00  0.00    +0.000 A 
ATOM     21  C   UNL     1       7.172   2.957  12.313  0.00  0.00    +0.000 A 
ATOM     22  C   UNL     1       6.597   2.153  11.324  0.00  0.00    +0.000 A 
ATOM     23  C   UNL     1       5.235   2.257  11.037  0.00  0.00    +0.000 A 
ATOM     24  C   UNL     1       4.443   3.168  11.732  0.00  0.00    +0.000 A 
ATOM     25  C   UNL     1       5.011   3.969  12.723  0.00  0.00    +0.000 A 
ENDBRANCH  17  20
ENDBRANCH  15  16
ENDBRANCH   1  15
TORSDOF 3
ENDMDL
MODEL 5
REMARK VINA RESULT:      -8.0      1.702      2.896
REMARK  Name = 
REMARK  4 active torsions:
REMARK  status: ('A' for Active; 'I' for Inactive)
REMARK    1  A    between atoms: C_1  and  C_2
REMARK    2  A    between atoms: C_2  and  N_3
REMARK    3  A    between atoms: C_2  and  C_12
REMARK    4  A    between atoms: C_4  and  C_6
REMARK                            x       y       z     vdW  Elec       q    Type
REMARK                         _______ _______ _______ _____ _____    ______ ____
ROOT
ATOM      1  C   UNL     1       3.628   5.828  18.179  0.00  0.00    +0.000 A 
ATOM      2  N   UNL     1       2.969   6.084  19.366  0.00  0.00    +0.000 NA
ATOM      3  C   UNL     1       2.541   7.316  19.207  0.00  0.00    +0.000 A 
ATOM      4  C   UNL     1       1.625   8.138  19.969  0.00  0.00    +0.000 A 
ATOM      5  C   UNL     1       1.148   7.771  21.229  0.00  0.00    +0.000 A 
ATOM      6  C   UNL     1       0.171   8.554  21.844  0.00  0.00    +0.000 A 
ATOM      7  C   UNL     1      -0.341   9.677  21.190  0.00  0.00    +0.000 A 
ATOM      8  C   UNL     1       0.164  10.061  19.944  0.00  0.00    +0.000 A 
ATOM      9  C   UNL     1       1.174   9.318  19.335  0.00  0.00    +0.000 A 
ATOM     10  N   UNL     1       1.712   9.766  18.097  0.00  0.00    +0.000 NA
ATOM     11  C   UNL     1       2.588   9.021  17.484  0.00  0.00    +0.000 A 
ATOM     12  N   UNL     1       2.978   7.794  18.003  0.00  0.00    +0.000 N 
ATOM     13  N   UNL     1       3.716   6.881  17.337  0.00  0.00    +0.000 NA
ENDROOT
BRANCH   1  15
ATOM     14  C   UNL     1       2.880   3.455  18.016  0.00  0.00    +0.000 C 
ATOM     15  C   UNL     1       4.052   4.423  17.807  0.00  0.00    +0.000 C 
BRANCH  15  16
ATOM     16  N   UNL     1       4.533   4.395  16.427  0.00  0.00    +0.000 N 
ATOM     17  C   UNL     1       5.877   4.425  16.138  0.00  0.00    +0.000 C 
ATOM     18  O   UNL     1       6.749   4.442  17.001  0.00  0.00    +0.000 OA
ATOM     19  H   UNL     1       3.831   4.282  15.705  0.00  0.00    +0.000 HD
BRANCH  17  20
ATOM     20  C   UNL     1       6.270   4.427  14.705  0.00  0.00    +0.000 A 
ATOM     21  C   UNL     1       7.361   5.166  14.236  0.00  0.00    +0.000 A 
ATOM     22  C   UNL     1       7.752   5.057  12.898  0.00  0.00    +0.000 A 
ATOM     23  C   UNL     1       7.056   4.215  12.029  0.00  0.00    +0.000 A 
ATOM     24  C   UNL     1       5.963   3.485  12.490  0.00  0.00    +0.000 A 
ATOM     25  C   UNL     1       5.571   3.588  13.825  0.00  0.00    +0.000 A 
ENDBRANCH  17  20
ENDBRANCH  15  16
ENDBRANCH   1  15
TORSDOF 3
ENDMDL
MODEL 6
REMARK VINA RESULT:      -7.9      2.925      5.235
REMARK  Name = 
REMARK  4 active torsions:
REMARK  status: ('A' for Active; 'I' for Inactive)
REMARK    1  A    between atoms: C_1  and  C_2
REMARK    2  A    between atoms: C_2  and  N_3
REMARK    3  A    between atoms: C_2  and  C_12
REMARK    4  A    between atoms: C_4  and  C_6
REMARK                            x       y       z     vdW  Elec       q    Type
REMARK                         _______ _______ _______ _____ _____    ______ ____
ROOT
ATOM      1  C   UNL     1       1.975   7.734  20.032  0.00  0.00    +0.000 A 
ATOM      2  N   UNL     1       1.368   8.244  21.163  0.00  0.00    +0.000 NA
ATOM      3  C   UNL     1       0.842   9.369  20.736  0.00  0.00    +0.000 A 
ATOM      4  C   UNL     1      -0.087  10.303  21.335  0.00  0.00    +0.000 A 
ATOM      5  C   UNL     1      -0.461  10.242  22.678  0.00  0.00    +0.000 A 
ATOM      6  C   UNL     1      -1.456  11.098  23.150  0.00  0.00    +0.000 A 
ATOM      7  C   UNL     1      -2.087  11.988  22.276  0.00  0.00    +0.000 A 
ATOM      8  C   UNL     1      -1.685  12.071  20.940  0.00  0.00    +0.000 A 
ATOM      9  C   UNL     1      -0.659  11.256  20.461  0.00  0.00    +0.000 A 
ATOM     10  N   UNL     1      -0.229  11.406  19.114  0.00  0.00    +0.000 NA
ATOM     11  C   UNL     1       0.663  10.581  18.643  0.00  0.00    +0.000 A 
ATOM     12  N   UNL     1       1.171   9.549  19.421  0.00  0.00    +0.000 N 
ATOM     13  N   UNL     1       1.935   8.541  18.951  0.00  0.00    +0.000 NA
ENDROOT
BRANCH   1  15
ATOM     14  C   UNL     1       1.339   5.343  20.346  0.00  0.00    +0.000 C 
ATOM     15  C   UNL     1       2.479   6.306  19.992  0.00  0.00    +0.000 C 
BRANCH  15  16
ATOM     16  N   UNL     1       3.041   6.012  18.675  0.00  0.00    +0.000 N 
ATOM     17  C   UNL     1       4.293   5.458  18.540  0.00  0.00    +0.000 C 
ATOM     18  O   UNL     1       4.995   5.146  19.496  0.00  0.00    +0.000 OA
ATOM     19  H   UNL     1       2.436   6.172  17.878  0.00  0.00    +0.000 HD
BRANCH  17  20
ATOM     20  C   UNL     1       4.794   5.226  17.160  0.00  0.00    +0.000 A 
ATOM     21  C   UNL     1       5.002   6.277  16.262  0.00  0.00    +0.000 A 
ATOM     22  C   UNL     1       5.570   6.020  15.010  0.00  0.00    +0.000 A 
ATOM     23  C   UNL     1       5.927   4.718  14.654  0.00  0.00    +0.000 A 
ATOM     24  C   UNL     1       5.711   3.667  15.543  0.00  0.00    +0.000 A 
ATOM     25  C   UNL     1       5.149   3.920  16.795  0.00  0.00    +0.000 A 
ENDBRANCH  17  20
ENDBRANCH  15  16
ENDBRANCH   1  15
TORSDOF 3
ENDMDL
MODEL 7
REMARK VINA RESULT:      -7.8      1.759      3.124
REMARK  Name = 
REMARK  4 active torsions:
REMARK  status: ('A' for Active; 'I' for Inactive)
REMARK    1  A    between atoms: C_1  and  C_2
REMARK    2  A    between atoms: C_2  and  N_3
REMARK    3  A    between atoms: C_2  and  C_12
REMARK    4  A    between atoms: C_4  and  C_6
REMARK                            x       y       z     vdW  Elec       q    Type
REMARK                         _______ _______ _______ _____ _____    ______ ____
ROOT
ATOM      1  C   UNL     1       3.447   5.797  18.328  0.00  0.00    +0.000 A 
ATOM      2  N   UNL     1       2.801   6.115  19.507  0.00  0.00    +0.000 NA
ATOM      3  C   UNL     1       2.421   7.357  19.312  0.00  0.00    +0.000 A 
ATOM      4  C   UNL     1       1.539   8.236  20.049  0.00  0.00    +0.000 A 
ATOM      5  C   UNL     1       1.052   7.928  21.320  0.00  0.00    +0.000 A 
ATOM      6  C   UNL     1       0.108   8.766  21.912  0.00  0.00    +0.000 A 
ATOM      7  C   UNL     1      -0.362   9.888  21.225  0.00  0.00    +0.000 A 
ATOM      8  C   UNL     1       0.154  10.214  19.967  0.00  0.00    +0.000 A 
ATOM      9  C   UNL     1       1.134   9.413  19.379  0.00  0.00    +0.000 A 
ATOM     10  N   UNL     1       1.685   9.802  18.128  0.00  0.00    +0.000 NA
ATOM     11  C   UNL     1       2.530   9.005  17.536  0.00  0.00    +0.000 A 
ATOM     12  N   UNL     1       2.873   7.780  18.092  0.00  0.00    +0.000 N 
ATOM     13  N   UNL     1       3.573   6.819  17.454  0.00  0.00    +0.000 NA
ENDROOT
BRANCH   1  15
ATOM     14  C   UNL     1       2.585   3.464  18.159  0.00  0.00    +0.000 C 
ATOM     15  C   UNL     1       3.815   4.366  17.999  0.00  0.00    +0.000 C 
BRANCH  15  16
ATOM     16  N   UNL     1       4.365   4.290  16.646  0.00  0.00    +0.000 N 
ATOM     17  C   UNL     1       5.722   4.306  16.425  0.00  0.00    +0.000 C 
ATOM     18  O   UNL     1       6.549   4.349  17.330  0.00  0.00    +0.000 OA
ATOM     19  H   UNL     1       3.700   4.154  15.894  0.00  0.00    +0.000 HD
BRANCH  17  20
ATOM     20  C   UNL     1       6.186   4.258  15.014  0.00  0.00    +0.000 A 
ATOM     21  C   UNL     1       5.510   3.521  14.036  0.00  0.00    +0.000 A 
ATOM     22  C   UNL     1       5.927   3.588  12.703  0.00  0.00    +0.000 A 
ATOM     23  C   UNL     1       7.015   4.385  12.346  0.00  0.00    +0.000 A 
ATOM     24  C   UNL     1       7.697   5.113  13.319  0.00  0.00    +0.000 A 
ATOM     25  C   UNL     1       7.283   5.052  14.650  0.00  0.00    +0.000 A 
ENDBRANCH  17  20
ENDBRANCH  15  16
ENDBRANCH   1  15
TORSDOF 3
ENDMDL
MODEL 8
REMARK VINA RESULT:      -7.8      1.418      3.125
REMARK  Name = 
REMARK  4 active torsions:
REMARK  status: ('A' for Active; 'I' for Inactive)
REMARK    1  A    between atoms: C_1  and  C_2
REMARK    2  A    between atoms: C_2  and  N_3
REMARK    3  A    between atoms: C_2  and  C_12
REMARK    4  A    between atoms: C_4  and  C_6
REMARK                            x       y       z     vdW  Elec       q    Type
REMARK                         _______ _______ _______ _____ _____    ______ ____
ROOT
ATOM      1  C   UNL     1       5.597   5.369  17.477  0.00  0.00    +0.000 A 
ATOM      2  N   UNL     1       5.341   4.454  18.479  0.00  0.00    +0.000 NA
ATOM      3  C   UNL     1       4.176   4.842  18.944  0.00  0.00    +0.000 A 
ATOM      4  C   UNL     1       3.237   4.231  19.861  0.00  0.00    +0.000 A 
ATOM      5  C   UNL     1       3.545   3.100  20.618  0.00  0.00    +0.000 A 
ATOM      6  C   UNL     1       2.548   2.496  21.383  0.00  0.00    +0.000 A 
ATOM      7  C   UNL     1       1.247   3.007  21.366  0.00  0.00    +0.000 A 
ATOM      8  C   UNL     1       0.950   4.160  20.635  0.00  0.00    +0.000 A 
ATOM      9  C   UNL     1       1.946   4.806  19.902  0.00  0.00    +0.000 A 
ATOM     10  N   UNL     1       1.630   6.012  19.218  0.00  0.00    +0.000 NA
ATOM     11  C   UNL     1       2.535   6.561  18.458  0.00  0.00    +0.000 A 
ATOM     12  N   UNL     1       3.782   5.974  18.286  0.00  0.00    +0.000 N 
ATOM     13  N   UNL     1       4.691   6.365  17.369  0.00  0.00    +0.000 NA
ENDROOT
BRANCH   1  15
ATOM     14  C   UNL     1       7.909   4.482  17.180  0.00  0.00    +0.000 C 
ATOM     15  C   UNL     1       6.715   5.145  16.480  0.00  0.00    +0.000 C 
BRANCH  15  16
ATOM     16  N   UNL     1       6.232   4.338  15.361  0.00  0.00    +0.000 N 
ATOM     17  C   UNL     1       6.684   4.551  14.079  0.00  0.00    +0.000 C 
ATOM     18  O   UNL     1       7.531   5.393  13.798  0.00  0.00    +0.000 OA
ATOM     19  H   UNL     1       5.607   3.575  15.589  0.00  0.00    +0.000 HD
BRANCH  17  20
ATOM     20  C   UNL     1       6.111   3.704  13.001  0.00  0.00    +0.000 A 
ATOM     21  C   UNL     1       4.771   3.805  12.614  0.00  0.00    +0.000 A 
ATOM     22  C   UNL     1       4.303   3.059  11.527  0.00  0.00    +0.000 A 
ATOM     23  C   UNL     1       5.168   2.214  10.831  0.00  0.00    +0.000 A 
ATOM     24  C   UNL     1       6.501   2.103  11.220  0.00  0.00    +0.000 A 
ATOM     25  C   UNL     1       6.973   2.849  12.301  0.00  0.00    +0.000 A 
ENDBRANCH  17  20
ENDBRANCH  15  16
ENDBRANCH   1  15
TORSDOF 3
ENDMDL
MODEL 9
REMARK VINA RESULT:      -7.8      2.014      3.378
REMARK  Name = 
REMARK  4 active torsions:
REMARK  status: ('A' for Active; 'I' for Inactive)
REMARK    1  A    between atoms: C_1  and  C_2
REMARK    2  A    between atoms: C_2  and  N_3
REMARK    3  A    between atoms: C_2  and  C_12
REMARK    4  A    between atoms: C_4  and  C_6
REMARK                            x       y       z     vdW  Elec       q    Type
REMARK                         _______ _______ _______ _____ _____    ______ ____
ROOT
ATOM      1  C   UNL     1       5.784   6.007  18.267  0.00  0.00    +0.000 A 
ATOM      2  N   UNL     1       5.437   5.164  19.304  0.00  0.00    +0.000 NA
ATOM      3  C   UNL     1       4.125   5.197  19.286  0.00  0.00    +0.000 A 
ATOM      4  C   UNL     1       3.118   4.408  19.964  0.00  0.00    +0.000 A 
ATOM      5  C   UNL     1       3.421   3.520  20.997  0.00  0.00    +0.000 A 
ATOM      6  C   UNL     1       2.416   2.704  21.515  0.00  0.00    +0.000 A 
ATOM      7  C   UNL     1       1.125   2.760  20.983  0.00  0.00    +0.000 A 
ATOM      8  C   UNL     1       0.815   3.676  19.973  0.00  0.00    +0.000 A 
ATOM      9  C   UNL     1       1.797   4.533  19.476  0.00  0.00    +0.000 A 
ATOM     10  N   UNL     1       1.440   5.497  18.493  0.00  0.00    +0.000 NA
ATOM     11  C   UNL     1       2.376   6.232  17.961  0.00  0.00    +0.000 A 
ATOM     12  N   UNL     1       3.708   6.068  18.317  0.00  0.00    +0.000 N 
ATOM     13  N   UNL     1       4.748   6.639  17.675  0.00  0.00    +0.000 NA
ENDROOT
BRANCH   1  15
ATOM     14  C   UNL     1       8.064   5.016  18.468  0.00  0.00    +0.000 C 
ATOM     15  C   UNL     1       7.204   6.060  17.744  0.00  0.00    +0.000 C 
BRANCH  15  16
ATOM     16  N   UNL     1       7.212   5.853  16.297  0.00  0.00    +0.000 N 
ATOM     17  C   UNL     1       6.692   4.710  15.735  0.00  0.00    +0.000 C 
ATOM     18  O   UNL     1       6.166   3.819  16.394  0.00  0.00    +0.000 OA
ATOM     19  H   UNL     1       7.553   6.621  15.731  0.00  0.00    +0.000 HD
BRANCH  17  20
ATOM     20  C   UNL     1       6.774   4.574  14.258  0.00  0.00    +0.000 A 
ATOM     21  C   UNL     1       7.686   5.312  13.496  0.00  0.00    +0.000 A 
ATOM     22  C   UNL     1       7.796   5.076  12.122  0.00  0.00    +0.000 A 
ATOM     23  C   UNL     1       6.997   4.109  11.509  0.00  0.00    +0.000 A 
ATOM     24  C   UNL     1       6.081   3.379  12.263  0.00  0.00    +0.000 A 
ATOM     25  C   UNL     1       5.971   3.608  13.635  0.00  0.00    +0.000 A 
ENDBRANCH  17  20
ENDBRANCH  15  16
ENDBRANCH   1  15
TORSDOF 3
ENDMDL
