MODEL 1
REMARK VINA RESULT:      -9.6      0.000      0.000
REMARK  Name = 
REMARK  4 active torsions:
REMARK  status: ('A' for Active; 'I' for Inactive)
REMARK    1  A    between atoms: C_1  and  O_2
REMARK    2  A    between atoms: O_2  and  C_3
REMARK    3  A    between atoms: C_8  and  N_9
REMARK    4  A    between atoms: C_21  and  C_22
REMARK                            x       y       z     vdW  Elec       q    Type
REMARK                         _______ _______ _______ _____ _____    ______ ____
ROOT
ATOM      1  N   UNL     1       2.012   8.282  19.514  0.00  0.00    +0.000 N 
ATOM      2  C   UNL     1       2.637   8.234  18.283  0.00  0.00    +0.000 C 
ATOM      3  O   UNL     1       2.402   9.025  17.370  0.00  0.00    +0.000 OA
ATOM      4  N   UNL     1       3.600   7.242  18.115  0.00  0.00    +0.000 N 
ATOM      5  C   UNL     1       4.291   7.250  16.815  0.00  0.00    +0.000 C 
ATOM      6  C   UNL     1       4.949   5.947  16.432  0.00  0.00    +0.000 A 
ATOM      7  C   UNL     1       5.002   5.532  15.095  0.00  0.00    +0.000 A 
ATOM      8  C   UNL     1       5.588   4.310  14.765  0.00  0.00    +0.000 A 
ATOM      9  C   UNL     1       6.159   3.515  15.758  0.00  0.00    +0.000 A 
ATOM     10  C   UNL     1       6.128   3.928  17.089  0.00  0.00    +0.000 A 
ATOM     11  C   UNL     1       5.501   5.128  17.429  0.00  0.00    +0.000 A 
ATOM     12  C   UNL     1       5.318   5.561  18.857  0.00  0.00    +0.000 C 
ATOM     13  C   UNL     1       3.899   6.142  19.058  0.00  0.00    +0.000 C 
ATOM     14  H   UNL     1       2.479   7.842  20.286  0.00  0.00    +0.000 HD
ENDROOT
BRANCH   1  20
ATOM     15  C   UNL     1      -1.516  11.943  22.700  0.00  0.00    +0.000 C 
ATOM     16  C   UNL     1      -1.995  11.911  21.235  0.00  0.00    +0.000 C 
ATOM     17  C   UNL     1      -1.000  10.985  20.617  0.00  0.00    +0.000 A 
ATOM     18  C   UNL     1      -0.721  10.835  19.274  0.00  0.00    +0.000 A 
ATOM     19  C   UNL     1       0.270   9.926  18.904  0.00  0.00    +0.000 A 
ATOM     20  C   UNL     1       0.964   9.169  19.864  0.00  0.00    +0.000 A 
ATOM     21  C   UNL     1       0.616   9.286  21.220  0.00  0.00    +0.000 A 
ATOM     22  C   UNL     1      -0.350  10.217  21.583  0.00  0.00    +0.000 A 
ATOM     23  C   UNL     1      -0.861  10.562  22.951  0.00  0.00    +0.000 C 
BRANCH  15  25
ATOM     24  C   UNL     1      -3.772  12.618  22.982  0.00  0.00    +0.000 C 
ATOM     25  O   UNL     1      -2.580  12.172  23.623  0.00  0.00    +0.000 OA
ENDBRANCH  15  25
ENDBRANCH   1  20
BRANCH  13  26
ATOM     26  C   UNL     1       2.810   5.064  19.035  0.00  0.00    +0.000 A 
ATOM     27  C   UNL     1       2.244   4.607  20.236  0.00  0.00    +0.000 A 
ATOM     28  C   UNL     1       1.226   3.647  20.225  0.00  0.00    +0.000 A 
ATOM     29  C   UNL     1       0.772   3.116  19.021  0.00  0.00    +0.000 A 
ATOM     30  C   UNL     1       1.339   3.534  17.823  0.00  0.00    +0.000 A 
ATOM     31  C   UNL     1       2.345   4.500  17.834  0.00  0.00    +0.000 A 
ENDBRANCH  13  26
TORSDOF 3
ENDMDL
MODEL 2
REMARK VINA RESULT:      -9.0      2.036      9.134
REMARK  Name = 
REMARK  4 active torsions:
REMARK  status: ('A' for Active; 'I' for Inactive)
REMARK    1  A    between atoms: C_1  and  O_2
REMARK    2  A    between atoms: O_2  and  C_3
REMARK    3  A    between atoms: C_8  and  N_9
REMARK    4  A    between atoms: C_21  and  C_22
REMARK                            x       y       z     vdW  Elec       q    Type
REMARK                         _______ _______ _______ _____ _____    ______ ____
ROOT
ATOM      1  N   UNL     1       1.922   8.506  19.006  0.00  0.00    +0.000 N 
ATOM      2  C   UNL     1       1.435   8.634  20.293  0.00  0.00    +0.000 C 
ATOM      3  O   UNL     1       1.476   7.731  21.129  0.00  0.00    +0.000 OA
ATOM      4  N   UNL     1       0.908   9.877  20.636  0.00  0.00    +0.000 N 
ATOM      5  C   UNL     1       0.450  10.003  22.029  0.00  0.00    +0.000 C 
ATOM      6  C   UNL     1      -0.537  11.117  22.281  0.00  0.00    +0.000 A 
ATOM      7  C   UNL     1      -1.558  10.975  23.229  0.00  0.00    +0.000 A 
ATOM      8  C   UNL     1      -2.479  12.003  23.426  0.00  0.00    +0.000 A 
ATOM      9  C   UNL     1      -2.365  13.192  22.707  0.00  0.00    +0.000 A 
ATOM     10  C   UNL     1      -1.342  13.351  21.773  0.00  0.00    +0.000 A 
ATOM     11  C   UNL     1      -0.446  12.306  21.540  0.00  0.00    +0.000 A 
ATOM     12  C   UNL     1       0.593  12.366  20.456  0.00  0.00    +0.000 C 
ATOM     13  C   UNL     1       0.666  11.010  19.715  0.00  0.00    +0.000 C 
ATOM     14  H   UNL     1       2.155   9.349  18.515  0.00  0.00    +0.000 HD
ENDROOT
BRANCH   1  20
ATOM     15  C   UNL     1       5.729   4.503  16.666  0.00  0.00    +0.000 C 
ATOM     16  C   UNL     1       4.336   3.861  16.821  0.00  0.00    +0.000 C 
ATOM     17  C   UNL     1       3.557   4.983  17.423  0.00  0.00    +0.000 A 
ATOM     18  C   UNL     1       2.349   4.899  18.085  0.00  0.00    +0.000 A 
ATOM     19  C   UNL     1       1.796   6.071  18.599  0.00  0.00    +0.000 A 
ATOM     20  C   UNL     1       2.437   7.312  18.443  0.00  0.00    +0.000 A 
ATOM     21  C   UNL     1       3.630   7.386  17.706  0.00  0.00    +0.000 A 
ATOM     22  C   UNL     1       4.191   6.209  17.225  0.00  0.00    +0.000 A 
ATOM     23  C   UNL     1       5.466   6.016  16.458  0.00  0.00    +0.000 C 
BRANCH  15  25
ATOM     24  C   UNL     1       5.849   4.230  14.313  0.00  0.00    +0.000 C 
ATOM     25  O   UNL     1       6.466   3.963  15.569  0.00  0.00    +0.000 OA
ENDBRANCH  15  25
ENDBRANCH   1  20
BRANCH  13  26
ATOM     26  C   UNL     1      -0.549  10.761  18.815  0.00  0.00    +0.000 A 
ATOM     27  C   UNL     1      -0.461   9.857  17.745  0.00  0.00    +0.000 A 
ATOM     28  C   UNL     1      -1.574   9.596  16.937  0.00  0.00    +0.000 A 
ATOM     29  C   UNL     1      -2.781  10.247  17.172  0.00  0.00    +0.000 A 
ATOM     30  C   UNL     1      -2.882  11.167  18.209  0.00  0.00    +0.000 A 
ATOM     31  C   UNL     1      -1.775  11.417  19.021  0.00  0.00    +0.000 A 
ENDBRANCH  13  26
TORSDOF 3
ENDMDL
MODEL 3
REMARK VINA RESULT:      -8.9      1.666      2.428
REMARK  Name = 
REMARK  4 active torsions:
REMARK  status: ('A' for Active; 'I' for Inactive)
REMARK    1  A    between atoms: C_1  and  O_2
REMARK    2  A    between atoms: O_2  and  C_3
REMARK    3  A    between atoms: C_8  and  N_9
REMARK    4  A    between atoms: C_21  and  C_22
REMARK                            x       y       z     vdW  Elec       q    Type
REMARK                         _______ _______ _______ _____ _____    ______ ____
ROOT
ATOM      1  N   UNL     1       1.829   8.594  19.203  0.00  0.00    +0.000 N 
ATOM      2  C   UNL     1       2.547   8.453  18.031  0.00  0.00    +0.000 C 
ATOM      3  O   UNL     1       2.390   9.174  17.046  0.00  0.00    +0.000 OA
ATOM      4  N   UNL     1       3.514   7.451  18.014  0.00  0.00    +0.000 N 
ATOM      5  C   UNL     1       4.304   7.360  16.776  0.00  0.00    +0.000 C 
ATOM      6  C   UNL     1       4.982   6.032  16.544  0.00  0.00    +0.000 A 
ATOM      7  C   UNL     1       5.137   5.517  15.251  0.00  0.00    +0.000 A 
ATOM      8  C   UNL     1       5.738   4.273  15.060  0.00  0.00    +0.000 A 
ATOM      9  C   UNL     1       6.225   3.556  16.151  0.00  0.00    +0.000 A 
ATOM     10  C   UNL     1       6.093   4.067  17.441  0.00  0.00    +0.000 A 
ATOM     11  C   UNL     1       5.449   5.290  17.640  0.00  0.00    +0.000 A 
ATOM     12  C   UNL     1       5.158   5.830  19.013  0.00  0.00    +0.000 C 
ATOM     13  C   UNL     1       3.731   6.424  19.058  0.00  0.00    +0.000 C 
ATOM     14  H   UNL     1       2.230   8.213  20.040  0.00  0.00    +0.000 HD
ENDROOT
BRANCH   1  20
ATOM     15  C   UNL     1      -3.457  11.374  18.630  0.00  0.00    +0.000 C 
ATOM     16  C   UNL     1      -2.663  12.010  19.788  0.00  0.00    +0.000 C 
ATOM     17  C   UNL     1      -1.418  11.186  19.782  0.00  0.00    +0.000 A 
ATOM     18  C   UNL     1      -0.489  11.071  20.796  0.00  0.00    +0.000 A 
ATOM     19  C   UNL     1       0.599  10.222  20.600  0.00  0.00    +0.000 A 
ATOM     20  C   UNL     1       0.762   9.505  19.401  0.00  0.00    +0.000 A 
ATOM     21  C   UNL     1      -0.158   9.690  18.356  0.00  0.00    +0.000 A 
ATOM     22  C   UNL     1      -1.257  10.513  18.572  0.00  0.00    +0.000 A 
ATOM     23  C   UNL     1      -2.391  10.836  17.644  0.00  0.00    +0.000 C 
BRANCH  15  25
ATOM     24  C   UNL     1      -5.276  11.663  17.135  0.00  0.00    +0.000 C 
ATOM     25  O   UNL     1      -4.323  12.304  17.979  0.00  0.00    +0.000 OA
ENDBRANCH  15  25
ENDBRANCH   1  20
BRANCH  13  26
ATOM     26  C   UNL     1       2.640   5.348  19.030  0.00  0.00    +0.000 A 
ATOM     27  C   UNL     1       2.264   4.756  17.815  0.00  0.00    +0.000 A 
ATOM     28  C   UNL     1       1.293   3.749  17.782  0.00  0.00    +0.000 A 
ATOM     29  C   UNL     1       0.671   3.333  18.956  0.00  0.00    +0.000 A 
ATOM     30  C   UNL     1       1.008   3.927  20.166  0.00  0.00    +0.000 A 
ATOM     31  C   UNL     1       1.985   4.922  20.199  0.00  0.00    +0.000 A 
ENDBRANCH  13  26
TORSDOF 3
ENDMDL
MODEL 4
REMARK VINA RESULT:      -8.8      2.217      8.962
REMARK  Name = 
REMARK  4 active torsions:
REMARK  status: ('A' for Active; 'I' for Inactive)
REMARK    1  A    between atoms: C_1  and  O_2
REMARK    2  A    between atoms: O_2  and  C_3
REMARK    3  A    between atoms: C_8  and  N_9
REMARK    4  A    between atoms: C_21  and  C_22
REMARK                            x       y       z     vdW  Elec       q    Type
REMARK                         _______ _______ _______ _____ _____    ______ ____
ROOT
ATOM      1  N   UNL     1       1.744   8.918  19.103  0.00  0.00    +0.000 N 
ATOM      2  C   UNL     1       1.259   9.099  20.384  0.00  0.00    +0.000 C 
ATOM      3  O   UNL     1       1.372   8.262  21.279  0.00  0.00    +0.000 OA
ATOM      4  N   UNL     1       0.643  10.321  20.647  0.00  0.00    +0.000 N 
ATOM      5  C   UNL     1       0.187  10.510  22.033  0.00  0.00    +0.000 C 
ATOM      6  C   UNL     1      -0.878  11.563  22.219  0.00  0.00    +0.000 A 
ATOM      7  C   UNL     1      -1.879  11.413  23.187  0.00  0.00    +0.000 A 
ATOM      8  C   UNL     1      -2.873  12.382  23.323  0.00  0.00    +0.000 A 
ATOM      9  C   UNL     1      -2.851  13.523  22.523  0.00  0.00    +0.000 A 
ATOM     10  C   UNL     1      -1.850  13.692  21.569  0.00  0.00    +0.000 A 
ATOM     11  C   UNL     1      -0.880  12.701  21.398  0.00  0.00    +0.000 A 
ATOM     12  C   UNL     1       0.144  12.762  20.299  0.00  0.00    +0.000 C 
ATOM     13  C   UNL     1       0.312  11.366  19.653  0.00  0.00    +0.000 C 
ATOM     14  H   UNL     1       1.911   9.740  18.552  0.00  0.00    +0.000 HD
ENDROOT
BRANCH   1  20
ATOM     15  C   UNL     1       2.471   3.238  17.314  0.00  0.00    +0.000 C 
ATOM     16  C   UNL     1       3.788   4.014  17.114  0.00  0.00    +0.000 C 
ATOM     17  C   UNL     1       3.404   5.377  17.587  0.00  0.00    +0.000 A 
ATOM     18  C   UNL     1       4.064   6.563  17.336  0.00  0.00    +0.000 A 
ATOM     19  C   UNL     1       3.522   7.740  17.852  0.00  0.00    +0.000 A 
ATOM     20  C   UNL     1       2.343   7.729  18.618  0.00  0.00    +0.000 A 
ATOM     21  C   UNL     1       1.725   6.503  18.919  0.00  0.00    +0.000 A 
ATOM     22  C   UNL     1       2.254   5.339  18.374  0.00  0.00    +0.000 A 
ATOM     23  C   UNL     1       1.761   3.928  18.505  0.00  0.00    +0.000 C 
BRANCH  15  25
ATOM     24  C   UNL     1       3.598   1.641  18.658  0.00  0.00    +0.000 C 
ATOM     25  O   UNL     1       2.683   1.853  17.586  0.00  0.00    +0.000 OA
ENDBRANCH  15  25
ENDBRANCH   1  20
BRANCH  13  26
ATOM     26  C   UNL     1      -0.888  10.967  18.787  0.00  0.00    +0.000 A 
ATOM     27  C   UNL     1      -2.149  11.535  19.023  0.00  0.00    +0.000 A 
ATOM     28  C   UNL     1      -3.244  11.203  18.217  0.00  0.00    +0.000 A 
ATOM     29  C   UNL     1      -3.101  10.288  17.179  0.00  0.00    +0.000 A 
ATOM     30  C   UNL     1      -1.867   9.692  16.946  0.00  0.00    +0.000 A 
ATOM     31  C   UNL     1      -0.774  10.033  17.743  0.00  0.00    +0.000 A 
ENDBRANCH  13  26
TORSDOF 3
ENDMDL
MODEL 5
REMARK VINA RESULT:      -8.7      2.042      9.200
REMARK  Name = 
REMARK  4 active torsions:
REMARK  status: ('A' for Active; 'I' for Inactive)
REMARK    1  A    between atoms: C_1  and  O_2
REMARK    2  A    between atoms: O_2  and  C_3
REMARK    3  A    between atoms: C_8  and  N_9
REMARK    4  A    between atoms: C_21  and  C_22
REMARK                            x       y       z     vdW  Elec       q    Type
REMARK                         _______ _______ _______ _____ _____    ______ ____
ROOT
ATOM      1  N   UNL     1       1.766   8.718  19.337  0.00  0.00    +0.000 N 
ATOM      2  C   UNL     1       1.232   8.921  20.595  0.00  0.00    +0.000 C 
ATOM      3  O   UNL     1       1.255   8.075  21.488  0.00  0.00    +0.000 OA
ATOM      4  N   UNL     1       0.675  10.175  20.837  0.00  0.00    +0.000 N 
ATOM      5  C   UNL     1       0.165  10.384  22.201  0.00  0.00    +0.000 C 
ATOM      6  C   UNL     1      -0.846  11.495  22.344  0.00  0.00    +0.000 A 
ATOM      7  C   UNL     1      -1.898  11.398  23.264  0.00  0.00    +0.000 A 
ATOM      8  C   UNL     1      -2.841  12.422  23.360  0.00  0.00    +0.000 A 
ATOM      9  C   UNL     1      -2.717  13.564  22.569  0.00  0.00    +0.000 A 
ATOM     10  C   UNL     1      -1.663  13.679  21.664  0.00  0.00    +0.000 A 
ATOM     11  C   UNL     1      -0.745  12.635  21.532  0.00  0.00    +0.000 A 
ATOM     12  C   UNL     1       0.332  12.642  20.483  0.00  0.00    +0.000 C 
ATOM     13  C   UNL     1       0.450  11.242  19.836  0.00  0.00    +0.000 C 
ATOM     14  H   UNL     1       2.005   9.531  18.800  0.00  0.00    +0.000 HD
ENDROOT
BRANCH   1  20
ATOM     15  C   UNL     1       5.478   4.775  16.755  0.00  0.00    +0.000 C 
ATOM     16  C   UNL     1       4.305   4.023  17.414  0.00  0.00    +0.000 C 
ATOM     17  C   UNL     1       3.525   5.150  18.005  0.00  0.00    +0.000 A 
ATOM     18  C   UNL     1       2.560   5.072  18.990  0.00  0.00    +0.000 A 
ATOM     19  C   UNL     1       1.963   6.255  19.423  0.00  0.00    +0.000 A 
ATOM     20  C   UNL     1       2.318   7.499  18.872  0.00  0.00    +0.000 A 
ATOM     21  C   UNL     1       3.251   7.549  17.823  0.00  0.00    +0.000 A 
ATOM     22  C   UNL     1       3.865   6.369  17.419  0.00  0.00    +0.000 A 
ATOM     23  C   UNL     1       4.913   6.163  16.365  0.00  0.00    +0.000 C 
BRANCH  15  25
ATOM     24  C   UNL     1       6.991   4.855  14.929  0.00  0.00    +0.000 C 
ATOM     25  O   UNL     1       5.991   4.098  15.608  0.00  0.00    +0.000 OA
ENDBRANCH  15  25
ENDBRANCH   1  20
BRANCH  13  26
ATOM     26  C   UNL     1      -0.728  10.915  18.911  0.00  0.00    +0.000 A 
ATOM     27  C   UNL     1      -1.977  11.521  19.120  0.00  0.00    +0.000 A 
ATOM     28  C   UNL     1      -3.050  11.256  18.262  0.00  0.00    +0.000 A 
ATOM     29  C   UNL     1      -2.899  10.370  17.199  0.00  0.00    +0.000 A 
ATOM     30  C   UNL     1      -1.679   9.737  16.993  0.00  0.00    +0.000 A 
ATOM     31  C   UNL     1      -0.606  10.012  17.841  0.00  0.00    +0.000 A 
ENDBRANCH  13  26
TORSDOF 3
ENDMDL
MODEL 6
REMARK VINA RESULT:      -8.6      2.102      9.299
REMARK  Name = 
REMARK  4 active torsions:
REMARK  status: ('A' for Active; 'I' for Inactive)
REMARK    1  A    between atoms: C_1  and  O_2
REMARK    2  A    between atoms: O_2  and  C_3
REMARK    3  A    between atoms: C_8  and  N_9
REMARK    4  A    between atoms: C_21  and  C_22
REMARK                            x       y       z     vdW  Elec       q    Type
REMARK                         _______ _______ _______ _____ _____    ______ ____
ROOT
ATOM      1  N   UNL     1       1.487   9.031  19.591  0.00  0.00    +0.000 N 
ATOM      2  C   UNL     1       0.901   9.307  20.811  0.00  0.00    +0.000 C 
ATOM      3  O   UNL     1       0.918   8.530  21.765  0.00  0.00    +0.000 OA
ATOM      4  N   UNL     1       0.295  10.555  20.940  0.00  0.00    +0.000 N 
ATOM      5  C   UNL     1      -0.270  10.846  22.267  0.00  0.00    +0.000 C 
ATOM      6  C   UNL     1      -1.321  11.929  22.292  0.00  0.00    +0.000 A 
ATOM      7  C   UNL     1      -2.403  11.863  23.180  0.00  0.00    +0.000 A 
ATOM      8  C   UNL     1      -3.381  12.858  23.166  0.00  0.00    +0.000 A 
ATOM      9  C   UNL     1      -3.264  13.943  22.298  0.00  0.00    +0.000 A 
ATOM     10  C   UNL     1      -2.181  14.028  21.424  0.00  0.00    +0.000 A 
ATOM     11  C   UNL     1      -1.226  13.009  21.402  0.00  0.00    +0.000 A 
ATOM     12  C   UNL     1      -0.112  12.977  20.393  0.00  0.00    +0.000 C 
ATOM     13  C   UNL     1       0.075  11.538  19.856  0.00  0.00    +0.000 C 
ATOM     14  H   UNL     1       1.720   9.811  19.004  0.00  0.00    +0.000 HD
ENDROOT
BRANCH   1  20
ATOM     15  C   UNL     1       5.274   5.039  17.199  0.00  0.00    +0.000 C 
ATOM     16  C   UNL     1       4.225   4.305  18.058  0.00  0.00    +0.000 C 
ATOM     17  C   UNL     1       3.409   5.445  18.570  0.00  0.00    +0.000 A 
ATOM     18  C   UNL     1       2.542   5.436  19.644  0.00  0.00    +0.000 A 
ATOM     19  C   UNL     1       1.890   6.623  19.976  0.00  0.00    +0.000 A 
ATOM     20  C   UNL     1       2.095   7.801  19.237  0.00  0.00    +0.000 A 
ATOM     21  C   UNL     1       2.928   7.773  18.106  0.00  0.00    +0.000 A 
ATOM     22  C   UNL     1       3.598   6.593  17.802  0.00  0.00    +0.000 A 
ATOM     23  C   UNL     1       4.566   6.319  16.689  0.00  0.00    +0.000 C 
BRANCH  15  25
ATOM     24  C   UNL     1       6.940   4.764  15.533  0.00  0.00    +0.000 C 
ATOM     25  O   UNL     1       5.740   4.250  16.105  0.00  0.00    +0.000 OA
ENDBRANCH  15  25
ENDBRANCH   1  20
BRANCH  13  26
ATOM     26  C   UNL     1      -1.057  11.105  18.918  0.00  0.00    +0.000 A 
ATOM     27  C   UNL     1      -0.803  10.196  17.878  0.00  0.00    +0.000 A 
ATOM     28  C   UNL     1      -1.836   9.768  17.037  0.00  0.00    +0.000 A 
ATOM     29  C   UNL     1      -3.129  10.253  17.207  0.00  0.00    +0.000 A 
ATOM     30  C   UNL     1      -3.396  11.175  18.212  0.00  0.00    +0.000 A 
ATOM     31  C   UNL     1      -2.368  11.592  19.058  0.00  0.00    +0.000 A 
ENDBRANCH  13  26
TORSDOF 3
ENDMDL
MODEL 7
REMARK VINA RESULT:      -8.5      2.375      9.149
REMARK  Name = 
REMARK  4 active torsions:
REMARK  status: ('A' for Active; 'I' for Inactive)
REMARK    1  A    between atoms: C_1  and  O_2
REMARK    2  A    between atoms: O_2  and  C_3
REMARK    3  A    between atoms: C_8  and  N_9
REMARK    4  A    between atoms: C_21  and  C_22
REMARK                            x       y       z     vdW  Elec       q    Type
REMARK                         _______ _______ _______ _____ _____    ______ ____
ROOT
ATOM      1  N   UNL     1       1.265   9.250  19.815  0.00  0.00    +0.000 N 
ATOM      2  C   UNL     1       0.641   9.488  21.025  0.00  0.00    +0.000 C 
ATOM      3  O   UNL     1       0.629   8.681  21.954  0.00  0.00    +0.000 OA
ATOM      4  N   UNL     1       0.034  10.733  21.176  0.00  0.00    +0.000 N 
ATOM      5  C   UNL     1      -0.572  10.982  22.494  0.00  0.00    +0.000 C 
ATOM      6  C   UNL     1      -1.622  12.066  22.522  0.00  0.00    +0.000 A 
ATOM      7  C   UNL     1      -2.730  11.974  23.373  0.00  0.00    +0.000 A 
ATOM      8  C   UNL     1      -3.706  12.971  23.362  0.00  0.00    +0.000 A 
ATOM      9  C   UNL     1      -3.562  14.082  22.533  0.00  0.00    +0.000 A 
ATOM     10  C   UNL     1      -2.453  14.193  21.696  0.00  0.00    +0.000 A 
ATOM     11  C   UNL     1      -1.499  13.174  21.669  0.00  0.00    +0.000 A 
ATOM     12  C   UNL     1      -0.355  13.171  20.695  0.00  0.00    +0.000 C 
ATOM     13  C   UNL     1      -0.153  11.750  20.117  0.00  0.00    +0.000 C 
ATOM     14  H   UNL     1       1.516  10.048  19.261  0.00  0.00    +0.000 HD
ENDROOT
BRANCH   1  20
ATOM     15  C   UNL     1       2.482   3.392  19.381  0.00  0.00    +0.000 C 
ATOM     16  C   UNL     1       3.430   4.185  18.459  0.00  0.00    +0.000 C 
ATOM     17  C   UNL     1       2.965   5.585  18.689  0.00  0.00    +0.000 A 
ATOM     18  C   UNL     1       3.211   6.687  17.896  0.00  0.00    +0.000 A 
ATOM     19  C   UNL     1       2.660   7.910  18.277  0.00  0.00    +0.000 A 
ATOM     20  C   UNL     1       1.881   8.031  19.441  0.00  0.00    +0.000 A 
ATOM     21  C   UNL     1       1.700   6.912  20.271  0.00  0.00    +0.000 A 
ATOM     22  C   UNL     1       2.226   5.690  19.867  0.00  0.00    +0.000 A 
ATOM     23  C   UNL     1       2.134   4.354  20.543  0.00  0.00    +0.000 C 
BRANCH  15  25
ATOM     24  C   UNL     1       4.474   2.326  20.103  0.00  0.00    +0.000 C 
ATOM     25  O   UNL     1       3.073   2.192  19.878  0.00  0.00    +0.000 OA
ENDBRANCH  15  25
ENDBRANCH   1  20
BRANCH  13  26
ATOM     26  C   UNL     1      -1.256  11.349  19.132  0.00  0.00    +0.000 A 
ATOM     27  C   UNL     1      -0.998  10.398  18.133  0.00  0.00    +0.000 A 
ATOM     28  C   UNL     1      -2.007   9.999  17.249  0.00  0.00    +0.000 A 
ATOM     29  C   UNL     1      -3.280  10.557  17.337  0.00  0.00    +0.000 A 
ATOM     30  C   UNL     1      -3.548  11.521  18.301  0.00  0.00    +0.000 A 
ATOM     31  C   UNL     1      -2.545  11.909  19.189  0.00  0.00    +0.000 A 
ENDBRANCH  13  26
TORSDOF 3
ENDMDL
MODEL 8
REMARK VINA RESULT:      -8.4      2.348      9.220
REMARK  Name = 
REMARK  4 active torsions:
REMARK  status: ('A' for Active; 'I' for Inactive)
REMARK    1  A    between atoms: C_1  and  O_2
REMARK    2  A    between atoms: O_2  and  C_3
REMARK    3  A    between atoms: C_8  and  N_9
REMARK    4  A    between atoms: C_21  and  C_22
REMARK                            x       y       z     vdW  Elec       q    Type
REMARK                         _______ _______ _______ _____ _____    ______ ____
ROOT
ATOM      1  N   UNL     1       1.161   9.663  19.547  0.00  0.00    +0.000 N 
ATOM      2  C   UNL     1       0.609   9.865  20.798  0.00  0.00    +0.000 C 
ATOM      3  O   UNL     1       0.762   9.091  21.742  0.00  0.00    +0.000 OA
ATOM      4  N   UNL     1      -0.127  11.036  20.969  0.00  0.00    +0.000 N 
ATOM      5  C   UNL     1      -0.654  11.255  22.325  0.00  0.00    +0.000 C 
ATOM      6  C   UNL     1      -1.819  12.211  22.413  0.00  0.00    +0.000 A 
ATOM      7  C   UNL     1      -2.840  12.019  23.352  0.00  0.00    +0.000 A 
ATOM      8  C   UNL     1      -3.923  12.896  23.398  0.00  0.00    +0.000 A 
ATOM      9  C   UNL     1      -3.975  13.991  22.535  0.00  0.00    +0.000 A 
ATOM     10  C   UNL     1      -2.954  14.202  21.609  0.00  0.00    +0.000 A 
ATOM     11  C   UNL     1      -1.892  13.298  21.529  0.00  0.00    +0.000 A 
ATOM     12  C   UNL     1      -0.834  13.397  20.466  0.00  0.00    +0.000 C 
ATOM     13  C   UNL     1      -0.512  11.991  19.906  0.00  0.00    +0.000 C 
ATOM     14  H   UNL     1       1.274  10.466  18.957  0.00  0.00    +0.000 HD
ENDROOT
BRANCH   1  20
ATOM     15  C   UNL     1       2.985   3.965  19.109  0.00  0.00    +0.000 C 
ATOM     16  C   UNL     1       3.788   4.840  18.126  0.00  0.00    +0.000 C 
ATOM     17  C   UNL     1       3.186   6.185  18.366  0.00  0.00    +0.000 A 
ATOM     18  C   UNL     1       3.266   7.293  17.548  0.00  0.00    +0.000 A 
ATOM     19  C   UNL     1       2.606   8.456  17.946  0.00  0.00    +0.000 A 
ATOM     20  C   UNL     1       1.885   8.511  19.152  0.00  0.00    +0.000 A 
ATOM     21  C   UNL     1       1.874   7.394  20.003  0.00  0.00    +0.000 A 
ATOM     22  C   UNL     1       2.507   6.230  19.584  0.00  0.00    +0.000 A 
ATOM     23  C   UNL     1       2.600   4.904  20.279  0.00  0.00    +0.000 C 
BRANCH  15  25
ATOM     24  C   UNL     1       3.592   1.700  18.748  0.00  0.00    +0.000 C 
ATOM     25  O   UNL     1       3.732   2.845  19.585  0.00  0.00    +0.000 OA
ENDBRANCH  15  25
ENDBRANCH   1  20
BRANCH  13  26
ATOM     26  C   UNL     1      -1.634  11.435  19.022  0.00  0.00    +0.000 A 
ATOM     27  C   UNL     1      -2.937  11.946  19.131  0.00  0.00    +0.000 A 
ATOM     28  C   UNL     1      -3.961  11.470  18.305  0.00  0.00    +0.000 A 
ATOM     29  C   UNL     1      -3.706  10.466  17.375  0.00  0.00    +0.000 A 
ATOM     30  C   UNL     1      -2.429   9.927  17.271  0.00  0.00    +0.000 A 
ATOM     31  C   UNL     1      -1.406  10.411  18.087  0.00  0.00    +0.000 A 
ENDBRANCH  13  26
TORSDOF 3
ENDMDL
MODEL 9
REMARK VINA RESULT:      -8.3      2.092      9.333
REMARK  Name = 
REMARK  4 active torsions:
REMARK  status: ('A' for Active; 'I' for Inactive)
REMARK    1  A    between atoms: C_1  and  O_2
REMARK    2  A    between atoms: O_2  and  C_3
REMARK    3  A    between atoms: C_8  and  N_9
REMARK    4  A    between atoms: C_21  and  C_22
REMARK                            x       y       z     vdW  Elec       q    Type
REMARK                         _______ _______ _______ _____ _____    ______ ____
ROOT
ATOM      1  N   UNL     1       1.513   8.774  20.274  0.00  0.00    +0.000 N 
ATOM      2  C   UNL     1       0.717   9.007  21.379  0.00  0.00    +0.000 C 
ATOM      3  O   UNL     1       0.395   8.132  22.183  0.00  0.00    +0.000 OA
ATOM      4  N   UNL     1       0.302  10.322  21.578  0.00  0.00    +0.000 N 
ATOM      5  C   UNL     1      -0.495  10.553  22.793  0.00  0.00    +0.000 C 
ATOM      6  C   UNL     1      -1.340  11.804  22.777  0.00  0.00    +0.000 A 
ATOM      7  C   UNL     1      -2.591  11.837  23.406  0.00  0.00    +0.000 A 
ATOM      8  C   UNL     1      -3.371  12.992  23.354  0.00  0.00    +0.000 A 
ATOM      9  C   UNL     1      -2.891  14.131  22.709  0.00  0.00    +0.000 A 
ATOM     10  C   UNL     1      -1.640  14.115  22.095  0.00  0.00    +0.000 A 
ATOM     11  C   UNL     1      -0.877  12.945  22.105  0.00  0.00    +0.000 A 
ATOM     12  C   UNL     1       0.416  12.825  21.349  0.00  0.00    +0.000 C 
ATOM     13  C   UNL     1       0.490  11.451  20.640  0.00  0.00    +0.000 C 
ATOM     14  H   UNL     1       1.992   9.560  19.876  0.00  0.00    +0.000 HD
ENDROOT
BRANCH   1  20
ATOM     15  C   UNL     1       4.793   4.513  17.613  0.00  0.00    +0.000 C 
ATOM     16  C   UNL     1       3.713   3.856  18.495  0.00  0.00    +0.000 C 
ATOM     17  C   UNL     1       3.033   5.053  19.073  0.00  0.00    +0.000 A 
ATOM     18  C   UNL     1       2.212   5.093  20.182  0.00  0.00    +0.000 A 
ATOM     19  C   UNL     1       1.693   6.327  20.574  0.00  0.00    +0.000 A 
ATOM     20  C   UNL     1       1.982   7.503  19.861  0.00  0.00    +0.000 A 
ATOM     21  C   UNL     1       2.764   7.430  18.695  0.00  0.00    +0.000 A 
ATOM     22  C   UNL     1       3.303   6.202  18.329  0.00  0.00    +0.000 A 
ATOM     23  C   UNL     1       4.195   5.871  17.169  0.00  0.00    +0.000 C 
BRANCH  15  25
ATOM     24  C   UNL     1       6.305   4.191  15.814  0.00  0.00    +0.000 C 
ATOM     25  O   UNL     1       5.137   3.718  16.479  0.00  0.00    +0.000 OA
ENDBRANCH  15  25
ENDBRANCH   1  20
BRANCH  13  26
ATOM     26  C   UNL     1      -0.455  11.354  19.438  0.00  0.00    +0.000 A 
ATOM     27  C   UNL     1      -0.546  12.416  18.525  0.00  0.00    +0.000 A 
ATOM     28  C   UNL     1      -1.380  12.324  17.405  0.00  0.00    +0.000 A 
ATOM     29  C   UNL     1      -2.148  11.183  17.191  0.00  0.00    +0.000 A 
ATOM     30  C   UNL     1      -2.093  10.132  18.098  0.00  0.00    +0.000 A 
ATOM     31  C   UNL     1      -1.252  10.219  19.208  0.00  0.00    +0.000 A 
ENDBRANCH  13  26
TORSDOF 3
ENDMDL
