MODEL 1
REMARK VINA RESULT:      -8.2      0.000      0.000
REMARK  Name = 
REMARK  2 active torsions:
REMARK  status: ('A' for Active; 'I' for Inactive)
REMARK    1  A    between atoms: C_1  and  N_2
REMARK    2  A    between atoms: C_8  and  C_9
REMARK                            x       y       z     vdW  Elec       q    Type
REMARK                         _______ _______ _______ _____ _____    ______ ____
ROOT
ATOM      1  C   UNL     1       4.299   3.648  18.636  0.00  0.00    +0.000 C 
ATOM      2  O   UNL     1       4.305   2.474  19.021  0.00  0.00    +0.000 OA
ATOM      3  N   UNL     1       3.513   4.589  19.273  0.00  0.00    +0.000 N 
ATOM      4  C   UNL     1       2.848   4.285  20.552  0.00  0.00    +0.000 C 
ATOM      5  C   UNL     1       1.842   5.425  20.759  0.00  0.00    +0.000 C 
ATOM      6  N   UNL     1       2.256   6.366  19.741  0.00  0.00    +0.000 N 
ATOM      7  C   UNL     1       3.173   5.855  18.872  0.00  0.00    +0.000 A 
ATOM      8  N   UNL     1       3.442   6.698  17.916  0.00  0.00    +0.000 NA
ATOM      9  C   UNL     1       2.707   7.838  18.251  0.00  0.00    +0.000 A 
ATOM     10  C   UNL     1       2.644   9.092  17.622  0.00  0.00    +0.000 A 
ATOM     11  C   UNL     1       1.792  10.074  18.153  0.00  0.00    +0.000 A 
ATOM     12  C   UNL     1       1.016   9.818  19.287  0.00  0.00    +0.000 A 
ATOM     13  C   UNL     1       1.069   8.584  19.940  0.00  0.00    +0.000 A 
ATOM     14  C   UNL     1       1.930   7.628  19.396  0.00  0.00    +0.000 A 
ENDROOT
BRANCH   1  22
ATOM     15  C   UNL     1       7.042   4.552  11.820  0.00  0.00    +0.000 C 
ATOM     16  N   UNL     1       6.754   4.547  13.231  0.00  0.00    +0.000 N 
ATOM     17  C   UNL     1       7.518   5.144  14.195  0.00  0.00    +0.000 C 
ATOM     18  O   UNL     1       8.535   5.802  14.080  0.00  0.00    +0.000 OA
ATOM     19  C   UNL     1       6.870   4.852  15.475  0.00  0.00    +0.000 A 
ATOM     20  C   UNL     1       7.210   5.206  16.764  0.00  0.00    +0.000 A 
ATOM     21  C   UNL     1       6.365   4.758  17.789  0.00  0.00    +0.000 A 
ATOM     22  C   UNL     1       5.206   3.980  17.509  0.00  0.00    +0.000 A 
ATOM     23  C   UNL     1       4.866   3.690  16.186  0.00  0.00    +0.000 A 
ATOM     24  C   UNL     1       5.732   4.115  15.201  0.00  0.00    +0.000 A 
ATOM     25  C   UNL     1       5.655   3.928  13.757  0.00  0.00    +0.000 C 
ATOM     26  O   UNL     1       4.761   3.336  13.183  0.00  0.00    +0.000 OA
ENDBRANCH   1  22
TORSDOF 1
ENDMDL
MODEL 2
REMARK VINA RESULT:      -8.1      4.050      6.828
REMARK  Name = 
REMARK  2 active torsions:
REMARK  status: ('A' for Active; 'I' for Inactive)
REMARK    1  A    between atoms: C_1  and  N_2
REMARK    2  A    between atoms: C_8  and  C_9
REMARK                            x       y       z     vdW  Elec       q    Type
REMARK                         _______ _______ _______ _____ _____    ______ ____
ROOT
ATOM      1  C   UNL     1       0.544  10.110  20.780  0.00  0.00    +0.000 C 
ATOM      2  O   UNL     1       0.861  10.362  21.947  0.00  0.00    +0.000 OA
ATOM      3  N   UNL     1      -0.495  10.788  20.174  0.00  0.00    +0.000 N 
ATOM      4  C   UNL     1      -1.099  11.976  20.805  0.00  0.00    +0.000 C 
ATOM      5  C   UNL     1      -2.389  12.234  20.015  0.00  0.00    +0.000 C 
ATOM      6  N   UNL     1      -2.213  11.359  18.877  0.00  0.00    +0.000 N 
ATOM      7  C   UNL     1      -1.157  10.506  19.008  0.00  0.00    +0.000 A 
ATOM      8  N   UNL     1      -1.096   9.671  18.010  0.00  0.00    +0.000 NA
ATOM      9  C   UNL     1      -2.130  10.076  17.163  0.00  0.00    +0.000 A 
ATOM     10  C   UNL     1      -2.514   9.586  15.904  0.00  0.00    +0.000 A 
ATOM     11  C   UNL     1      -3.624  10.160  15.263  0.00  0.00    +0.000 A 
ATOM     12  C   UNL     1      -4.342  11.201  15.860  0.00  0.00    +0.000 A 
ATOM     13  C   UNL     1      -3.974  11.716  17.106  0.00  0.00    +0.000 A 
ATOM     14  C   UNL     1      -2.862  11.133  17.718  0.00  0.00    +0.000 A 
ENDROOT
BRANCH   1  22
ATOM     15  C   UNL     1       3.795   3.726  18.916  0.00  0.00    +0.000 C 
ATOM     16  N   UNL     1       3.263   5.061  18.999  0.00  0.00    +0.000 N 
ATOM     17  C   UNL     1       3.394   6.025  18.037  0.00  0.00    +0.000 C 
ATOM     18  O   UNL     1       3.929   5.964  16.947  0.00  0.00    +0.000 OA
ATOM     19  C   UNL     1       2.734   7.222  18.561  0.00  0.00    +0.000 A 
ATOM     20  C   UNL     1       2.567   8.478  18.014  0.00  0.00    +0.000 A 
ATOM     21  C   UNL     1       1.877   9.421  18.789  0.00  0.00    +0.000 A 
ATOM     22  C   UNL     1       1.367   9.094  20.076  0.00  0.00    +0.000 A 
ATOM     23  C   UNL     1       1.508   7.796  20.572  0.00  0.00    +0.000 A 
ATOM     24  C   UNL     1       2.219   6.898  19.804  0.00  0.00    +0.000 A 
ATOM     25  C   UNL     1       2.553   5.505  20.079  0.00  0.00    +0.000 C 
ATOM     26  O   UNL     1       2.230   4.903  21.084  0.00  0.00    +0.000 OA
ENDBRANCH   1  22
TORSDOF 1
ENDMDL
MODEL 3
REMARK VINA RESULT:      -7.5      3.776      6.596
REMARK  Name = 
REMARK  2 active torsions:
REMARK  status: ('A' for Active; 'I' for Inactive)
REMARK    1  A    between atoms: C_1  and  N_2
REMARK    2  A    between atoms: C_8  and  C_9
REMARK                            x       y       z     vdW  Elec       q    Type
REMARK                         _______ _______ _______ _____ _____    ______ ____
ROOT
ATOM      1  C   UNL     1       1.024   9.452  21.271  0.00  0.00    +0.000 C 
ATOM      2  O   UNL     1       1.470   9.615  22.411  0.00  0.00    +0.000 OA
ATOM      3  N   UNL     1       0.078  10.318  20.758  0.00  0.00    +0.000 N 
ATOM      4  C   UNL     1      -0.255  11.577  21.448  0.00  0.00    +0.000 C 
ATOM      5  C   UNL     1      -1.535  12.078  20.767  0.00  0.00    +0.000 C 
ATOM      6  N   UNL     1      -1.606  11.214  19.610  0.00  0.00    +0.000 N 
ATOM      7  C   UNL     1      -0.711  10.186  19.645  0.00  0.00    +0.000 A 
ATOM      8  N   UNL     1      -0.876   9.378  18.636  0.00  0.00    +0.000 NA
ATOM      9  C   UNL     1      -1.885   9.980  17.880  0.00  0.00    +0.000 A 
ATOM     10  C   UNL     1      -2.445   9.598  16.650  0.00  0.00    +0.000 A 
ATOM     11  C   UNL     1      -3.482  10.374  16.108  0.00  0.00    +0.000 A 
ATOM     12  C   UNL     1      -3.956  11.509  16.771  0.00  0.00    +0.000 A 
ATOM     13  C   UNL     1      -3.407  11.920  17.990  0.00  0.00    +0.000 A 
ATOM     14  C   UNL     1      -2.373  11.135  18.503  0.00  0.00    +0.000 A 
ENDROOT
BRANCH   1  22
ATOM     15  C   UNL     1       2.866   2.640  19.035  0.00  0.00    +0.000 C 
ATOM     16  N   UNL     1       2.611   4.048  19.188  0.00  0.00    +0.000 N 
ATOM     17  C   UNL     1       2.882   5.007  18.251  0.00  0.00    +0.000 C 
ATOM     18  O   UNL     1       3.341   4.887  17.132  0.00  0.00    +0.000 OA
ATOM     19  C   UNL     1       2.496   6.287  18.847  0.00  0.00    +0.000 A 
ATOM     20  C   UNL     1       2.552   7.572  18.349  0.00  0.00    +0.000 A 
ATOM     21  C   UNL     1       2.099   8.599  19.188  0.00  0.00    +0.000 A 
ATOM     22  C   UNL     1       1.597   8.326  20.491  0.00  0.00    +0.000 A 
ATOM     23  C   UNL     1       1.504   7.006  20.939  0.00  0.00    +0.000 A 
ATOM     24  C   UNL     1       1.988   6.019  20.105  0.00  0.00    +0.000 A 
ATOM     25  C   UNL     1       2.054   4.578  20.319  0.00  0.00    +0.000 C 
ATOM     26  O   UNL     1       1.668   4.009  21.321  0.00  0.00    +0.000 OA
ENDBRANCH   1  22
TORSDOF 1
ENDMDL
MODEL 4
REMARK VINA RESULT:      -7.5      8.354     13.008
REMARK  Name = 
REMARK  2 active torsions:
REMARK  status: ('A' for Active; 'I' for Inactive)
REMARK    1  A    between atoms: C_1  and  N_2
REMARK    2  A    between atoms: C_8  and  C_9
REMARK                            x       y       z     vdW  Elec       q    Type
REMARK                         _______ _______ _______ _____ _____    ______ ____
ROOT
ATOM      1  C   UNL     1      -1.194  12.442  21.902  0.00  0.00    +0.000 C 
ATOM      2  O   UNL     1      -0.268  12.557  22.711  0.00  0.00    +0.000 OA
ATOM      3  N   UNL     1      -1.063  11.619  20.801  0.00  0.00    +0.000 N 
ATOM      4  C   UNL     1       0.072  10.687  20.677  0.00  0.00    +0.000 C 
ATOM      5  C   UNL     1       0.039  10.210  19.220  0.00  0.00    +0.000 C 
ATOM      6  N   UNL     1      -1.253  10.692  18.785  0.00  0.00    +0.000 N 
ATOM      7  C   UNL     1      -1.845  11.535  19.678  0.00  0.00    +0.000 A 
ATOM      8  N   UNL     1      -2.957  12.023  19.205  0.00  0.00    +0.000 NA
ATOM      9  C   UNL     1      -3.110  11.386  17.971  0.00  0.00    +0.000 A 
ATOM     10  C   UNL     1      -4.151  11.469  17.032  0.00  0.00    +0.000 A 
ATOM     11  C   UNL     1      -4.048  10.736  15.839  0.00  0.00    +0.000 A 
ATOM     12  C   UNL     1      -2.932   9.935  15.580  0.00  0.00    +0.000 A 
ATOM     13  C   UNL     1      -1.888   9.824  16.502  0.00  0.00    +0.000 A 
ATOM     14  C   UNL     1      -2.019  10.557  17.683  0.00  0.00    +0.000 A 
ENDROOT
BRANCH   1  22
ATOM     15  C   UNL     1      -7.916  14.176  24.472  0.00  0.00    +0.000 C 
ATOM     16  N   UNL     1      -6.588  14.145  23.917  0.00  0.00    +0.000 N 
ATOM     17  C   UNL     1      -5.903  15.230  23.445  0.00  0.00    +0.000 C 
ATOM     18  O   UNL     1      -6.230  16.401  23.419  0.00  0.00    +0.000 OA
ATOM     19  C   UNL     1      -4.621  14.725  22.950  0.00  0.00    +0.000 A 
ATOM     20  C   UNL     1      -3.552  15.378  22.371  0.00  0.00    +0.000 A 
ATOM     21  C   UNL     1      -2.454  14.591  21.998  0.00  0.00    +0.000 A 
ATOM     22  C   UNL     1      -2.441  13.185  22.213  0.00  0.00    +0.000 A 
ATOM     23  C   UNL     1      -3.519  12.568  22.852  0.00  0.00    +0.000 A 
ATOM     24  C   UNL     1      -4.600  13.361  23.178  0.00  0.00    +0.000 A 
ATOM     25  C   UNL     1      -5.862  12.992  23.809  0.00  0.00    +0.000 C 
ATOM     26  O   UNL     1      -6.156  11.865  24.159  0.00  0.00    +0.000 OA
ENDBRANCH   1  22
TORSDOF 1
ENDMDL
MODEL 5
REMARK VINA RESULT:      -7.1      3.587      8.240
REMARK  Name = 
REMARK  2 active torsions:
REMARK  status: ('A' for Active; 'I' for Inactive)
REMARK    1  A    between atoms: C_1  and  N_2
REMARK    2  A    between atoms: C_8  and  C_9
REMARK                            x       y       z     vdW  Elec       q    Type
REMARK                         _______ _______ _______ _____ _____    ______ ____
ROOT
ATOM      1  C   UNL     1       2.938   8.014  17.713  0.00  0.00    +0.000 C 
ATOM      2  O   UNL     1       3.396   8.611  16.734  0.00  0.00    +0.000 OA
ATOM      3  N   UNL     1       3.471   6.803  18.109  0.00  0.00    +0.000 N 
ATOM      4  C   UNL     1       4.731   6.301  17.530  0.00  0.00    +0.000 C 
ATOM      5  C   UNL     1       4.811   4.832  17.965  0.00  0.00    +0.000 C 
ATOM      6  N   UNL     1       3.759   4.764  18.955  0.00  0.00    +0.000 N 
ATOM      7  C   UNL     1       2.973   5.877  18.988  0.00  0.00    +0.000 A 
ATOM      8  N   UNL     1       1.981   5.734  19.821  0.00  0.00    +0.000 NA
ATOM      9  C   UNL     1       2.204   4.483  20.403  0.00  0.00    +0.000 A 
ATOM     10  C   UNL     1       1.494   3.816  21.414  0.00  0.00    +0.000 A 
ATOM     11  C   UNL     1       1.916   2.535  21.806  0.00  0.00    +0.000 A 
ATOM     12  C   UNL     1       3.022   1.926  21.206  0.00  0.00    +0.000 A 
ATOM     13  C   UNL     1       3.754   2.573  20.206  0.00  0.00    +0.000 A 
ATOM     14  C   UNL     1       3.318   3.848  19.841  0.00  0.00    +0.000 A 
ENDROOT
BRANCH   1  22
ATOM     15  C   UNL     1      -1.114  11.035  23.122  0.00  0.00    +0.000 C 
ATOM     16  N   UNL     1      -0.533  10.587  21.884  0.00  0.00    +0.000 N 
ATOM     17  C   UNL     1      -1.019  10.865  20.636  0.00  0.00    +0.000 C 
ATOM     18  O   UNL     1      -1.977  11.540  20.312  0.00  0.00    +0.000 OA
ATOM     19  C   UNL     1      -0.139  10.180  19.688  0.00  0.00    +0.000 A 
ATOM     20  C   UNL     1      -0.163  10.119  18.310  0.00  0.00    +0.000 A 
ATOM     21  C   UNL     1       0.840   9.362  17.690  0.00  0.00    +0.000 A 
ATOM     22  C   UNL     1       1.842   8.694  18.448  0.00  0.00    +0.000 A 
ATOM     23  C   UNL     1       1.865   8.825  19.839  0.00  0.00    +0.000 A 
ATOM     24  C   UNL     1       0.847   9.548  20.424  0.00  0.00    +0.000 A 
ATOM     25  C   UNL     1       0.597   9.819  21.835  0.00  0.00    +0.000 C 
ATOM     26  O   UNL     1       1.294   9.423  22.749  0.00  0.00    +0.000 OA
ENDBRANCH   1  22
TORSDOF 1
ENDMDL
MODEL 6
REMARK VINA RESULT:      -7.0      7.118     10.673
REMARK  Name = 
REMARK  2 active torsions:
REMARK  status: ('A' for Active; 'I' for Inactive)
REMARK    1  A    between atoms: C_1  and  N_2
REMARK    2  A    between atoms: C_8  and  C_9
REMARK                            x       y       z     vdW  Elec       q    Type
REMARK                         _______ _______ _______ _____ _____    ______ ____
ROOT
ATOM      1  C   UNL     1      -1.513  13.387  22.998  0.00  0.00    +0.000 C 
ATOM      2  O   UNL     1      -0.818  13.909  23.874  0.00  0.00    +0.000 OA
ATOM      3  N   UNL     1      -2.702  13.971  22.606  0.00  0.00    +0.000 N 
ATOM      4  C   UNL     1      -3.062  15.332  23.043  0.00  0.00    +0.000 C 
ATOM      5  C   UNL     1      -4.546  15.486  22.686  0.00  0.00    +0.000 C 
ATOM      6  N   UNL     1      -4.764  14.329  21.846  0.00  0.00    +0.000 N 
ATOM      7  C   UNL     1      -3.722  13.451  21.852  0.00  0.00    +0.000 A 
ATOM      8  N   UNL     1      -4.000  12.379  21.165  0.00  0.00    +0.000 NA
ATOM      9  C   UNL     1      -5.265  12.636  20.631  0.00  0.00    +0.000 A 
ATOM     10  C   UNL     1      -6.053  11.867  19.759  0.00  0.00    +0.000 A 
ATOM     11  C   UNL     1      -7.320  12.348  19.389  0.00  0.00    +0.000 A 
ATOM     12  C   UNL     1      -7.797  13.569  19.874  0.00  0.00    +0.000 A 
ATOM     13  C   UNL     1      -7.028  14.360  20.732  0.00  0.00    +0.000 A 
ATOM     14  C   UNL     1      -5.770  13.863  21.079  0.00  0.00    +0.000 A 
ENDROOT
BRANCH   1  22
ATOM     15  C   UNL     1       1.933   8.749  18.370  0.00  0.00    +0.000 C 
ATOM     16  N   UNL     1       1.253   9.403  19.458  0.00  0.00    +0.000 N 
ATOM     17  C   UNL     1       0.882   8.806  20.631  0.00  0.00    +0.000 C 
ATOM     18  O   UNL     1       1.063   7.664  21.009  0.00  0.00    +0.000 OA
ATOM     19  C   UNL     1       0.193   9.832  21.416  0.00  0.00    +0.000 A 
ATOM     20  C   UNL     1      -0.383   9.779  22.668  0.00  0.00    +0.000 A 
ATOM     21  C   UNL     1      -0.975  10.957  23.145  0.00  0.00    +0.000 A 
ATOM     22  C   UNL     1      -0.974  12.153  22.374  0.00  0.00    +0.000 A 
ATOM     23  C   UNL     1      -0.332  12.181  21.134  0.00  0.00    +0.000 A 
ATOM     24  C   UNL     1       0.213  11.000  20.676  0.00  0.00    +0.000 A 
ATOM     25  C   UNL     1       0.903  10.724  19.421  0.00  0.00    +0.000 C 
ATOM     26  O   UNL     1       1.109  11.547  18.550  0.00  0.00    +0.000 OA
ENDBRANCH   1  22
TORSDOF 1
ENDMDL
MODEL 7
REMARK VINA RESULT:      -7.0      3.175      7.376
REMARK  Name = 
REMARK  2 active torsions:
REMARK  status: ('A' for Active; 'I' for Inactive)
REMARK    1  A    between atoms: C_1  and  N_2
REMARK    2  A    between atoms: C_8  and  C_9
REMARK                            x       y       z     vdW  Elec       q    Type
REMARK                         _______ _______ _______ _____ _____    ______ ____
ROOT
ATOM      1  C   UNL     1       2.241   5.308  20.268  0.00  0.00    +0.000 C 
ATOM      2  O   UNL     1       1.835   4.836  21.334  0.00  0.00    +0.000 OA
ATOM      3  N   UNL     1       2.953   4.524  19.381  0.00  0.00    +0.000 N 
ATOM      4  C   UNL     1       3.050   3.065  19.563  0.00  0.00    +0.000 C 
ATOM      5  C   UNL     1       4.155   2.615  18.599  0.00  0.00    +0.000 C 
ATOM      6  N   UNL     1       4.343   3.804  17.797  0.00  0.00    +0.000 N 
ATOM      7  C   UNL     1       3.689   4.896  18.286  0.00  0.00    +0.000 A 
ATOM      8  N   UNL     1       3.965   5.964  17.593  0.00  0.00    +0.000 NA
ATOM      9  C   UNL     1       4.780   5.497  16.558  0.00  0.00    +0.000 A 
ATOM     10  C   UNL     1       5.340   6.182  15.468  0.00  0.00    +0.000 A 
ATOM     11  C   UNL     1       6.157   5.474  14.571  0.00  0.00    +0.000 A 
ATOM     12  C   UNL     1       6.416   4.113  14.752  0.00  0.00    +0.000 A 
ATOM     13  C   UNL     1       5.861   3.404  15.822  0.00  0.00    +0.000 A 
ATOM     14  C   UNL     1       5.046   4.129  16.694  0.00  0.00    +0.000 A 
ENDROOT
BRANCH   1  22
ATOM     15  C   UNL     1       0.326  12.405  21.146  0.00  0.00    +0.000 C 
ATOM     16  N   UNL     1       0.753  11.111  20.681  0.00  0.00    +0.000 N 
ATOM     17  C   UNL     1       1.130  10.816  19.400  0.00  0.00    +0.000 C 
ATOM     18  O   UNL     1       1.215  11.546  18.431  0.00  0.00    +0.000 OA
ATOM     19  C   UNL     1       1.445   9.387  19.381  0.00  0.00    +0.000 A 
ATOM     20  C   UNL     1       1.873   8.567  18.357  0.00  0.00    +0.000 A 
ATOM     21  C   UNL     1       2.086   7.217  18.672  0.00  0.00    +0.000 A 
ATOM     22  C   UNL     1       1.877   6.720  19.988  0.00  0.00    +0.000 A 
ATOM     23  C   UNL     1       1.498   7.593  21.010  0.00  0.00    +0.000 A 
ATOM     24  C   UNL     1       1.263   8.908  20.665  0.00  0.00    +0.000 A 
ATOM     25  C   UNL     1       0.827  10.020  21.502  0.00  0.00    +0.000 C 
ATOM     26  O   UNL     1       0.597   9.941  22.693  0.00  0.00    +0.000 OA
ENDBRANCH   1  22
TORSDOF 1
ENDMDL
MODEL 8
REMARK VINA RESULT:      -7.0      3.710      6.317
REMARK  Name = 
REMARK  2 active torsions:
REMARK  status: ('A' for Active; 'I' for Inactive)
REMARK    1  A    between atoms: C_1  and  N_2
REMARK    2  A    between atoms: C_8  and  C_9
REMARK                            x       y       z     vdW  Elec       q    Type
REMARK                         _______ _______ _______ _____ _____    ______ ____
ROOT
ATOM      1  C   UNL     1       1.001   9.395  21.277  0.00  0.00    +0.000 C 
ATOM      2  O   UNL     1       1.507   9.607  22.383  0.00  0.00    +0.000 OA
ATOM      3  N   UNL     1       0.120  10.304  20.724  0.00  0.00    +0.000 N 
ATOM      4  C   UNL     1      -0.065  11.642  21.315  0.00  0.00    +0.000 C 
ATOM      5  C   UNL     1      -1.319  12.207  20.637  0.00  0.00    +0.000 C 
ATOM      6  N   UNL     1      -1.519  11.262  19.561  0.00  0.00    +0.000 N 
ATOM      7  C   UNL     1      -0.725  10.158  19.655  0.00  0.00    +0.000 A 
ATOM      8  N   UNL     1      -1.007   9.290  18.725  0.00  0.00    +0.000 NA
ATOM      9  C   UNL     1      -1.986   9.923  17.954  0.00  0.00    +0.000 A 
ATOM     10  C   UNL     1      -2.631   9.497  16.782  0.00  0.00    +0.000 A 
ATOM     11  C   UNL     1      -3.612  10.323  16.210  0.00  0.00    +0.000 A 
ATOM     12  C   UNL     1      -3.948  11.550  16.789  0.00  0.00    +0.000 A 
ATOM     13  C   UNL     1      -3.312  12.004  17.948  0.00  0.00    +0.000 A 
ATOM     14  C   UNL     1      -2.336  11.167  18.492  0.00  0.00    +0.000 A 
ENDROOT
BRANCH   1  22
ATOM     15  C   UNL     1       4.408   4.734  16.644  0.00  0.00    +0.000 C 
ATOM     16  N   UNL     1       3.660   5.379  17.692  0.00  0.00    +0.000 N 
ATOM     17  C   UNL     1       2.991   4.736  18.697  0.00  0.00    +0.000 C 
ATOM     18  O   UNL     1       2.910   3.547  18.935  0.00  0.00    +0.000 OA
ATOM     19  C   UNL     1       2.352   5.780  19.500  0.00  0.00    +0.000 A 
ATOM     20  C   UNL     1       1.559   5.698  20.626  0.00  0.00    +0.000 A 
ATOM     21  C   UNL     1       1.094   6.906  21.164  0.00  0.00    +0.000 A 
ATOM     22  C   UNL     1       1.431   8.158  20.579  0.00  0.00    +0.000 A 
ATOM     23  C   UNL     1       2.282   8.202  19.472  0.00  0.00    +0.000 A 
ATOM     24  C   UNL     1       2.698   6.998  18.944  0.00  0.00    +0.000 A 
ATOM     25  C   UNL     1       3.547   6.738  17.787  0.00  0.00    +0.000 C 
ATOM     26  O   UNL     1       4.039   7.599  17.083  0.00  0.00    +0.000 OA
ENDBRANCH   1  22
TORSDOF 1
ENDMDL
MODEL 9
REMARK VINA RESULT:      -6.9      7.230     11.759
REMARK  Name = 
REMARK  2 active torsions:
REMARK  status: ('A' for Active; 'I' for Inactive)
REMARK    1  A    between atoms: C_1  and  N_2
REMARK    2  A    between atoms: C_8  and  C_9
REMARK                            x       y       z     vdW  Elec       q    Type
REMARK                         _______ _______ _______ _____ _____    ______ ____
ROOT
ATOM      1  C   UNL     1       0.457  11.248  21.142  0.00  0.00    +0.000 C 
ATOM      2  O   UNL     1       1.600  11.085  21.580  0.00  0.00    +0.000 OA
ATOM      3  N   UNL     1       0.078  10.673  19.944  0.00  0.00    +0.000 N 
ATOM      4  C   UNL     1       0.931   9.674  19.275  0.00  0.00    +0.000 C 
ATOM      5  C   UNL     1       0.345   9.530  17.865  0.00  0.00    +0.000 C 
ATOM      6  N   UNL     1      -0.913  10.231  18.000  0.00  0.00    +0.000 N 
ATOM      7  C   UNL     1      -1.027  10.919  19.171  0.00  0.00    +0.000 A 
ATOM      8  N   UNL     1      -2.129  11.614  19.209  0.00  0.00    +0.000 NA
ATOM      9  C   UNL     1      -2.782  11.280  18.020  0.00  0.00    +0.000 A 
ATOM     10  C   UNL     1      -4.040  11.675  17.536  0.00  0.00    +0.000 A 
ATOM     11  C   UNL     1      -4.458  11.210  16.278  0.00  0.00    +0.000 A 
ATOM     12  C   UNL     1      -3.645  10.369  15.513  0.00  0.00    +0.000 A 
ATOM     13  C   UNL     1      -2.394   9.950  15.977  0.00  0.00    +0.000 A 
ATOM     14  C   UNL     1      -2.006  10.420  17.233  0.00  0.00    +0.000 A 
ENDROOT
BRANCH   1  22
ATOM     15  C   UNL     1      -3.216  16.887  24.223  0.00  0.00    +0.000 C 
ATOM     16  N   UNL     1      -2.716  15.617  23.768  0.00  0.00    +0.000 N 
ATOM     17  C   UNL     1      -3.245  14.397  24.091  0.00  0.00    +0.000 C 
ATOM     18  O   UNL     1      -4.219  14.131  24.769  0.00  0.00    +0.000 OA
ATOM     19  C   UNL     1      -2.400  13.395  23.439  0.00  0.00    +0.000 A 
ATOM     20  C   UNL     1      -2.473  12.018  23.428  0.00  0.00    +0.000 A 
ATOM     21  C   UNL     1      -1.491  11.336  22.696  0.00  0.00    +0.000 A 
ATOM     22  C   UNL     1      -0.472  12.035  21.991  0.00  0.00    +0.000 A 
ATOM     23  C   UNL     1      -0.464  13.432  21.981  0.00  0.00    +0.000 A 
ATOM     24  C   UNL     1      -1.422  14.076  22.736  0.00  0.00    +0.000 A 
ATOM     25  C   UNL     1      -1.633  15.504  22.942  0.00  0.00    +0.000 C 
ATOM     26  O   UNL     1      -0.954  16.382  22.445  0.00  0.00    +0.000 OA
ENDBRANCH   1  22
TORSDOF 1
ENDMDL
