MODEL 1
REMARK VINA RESULT:      -7.8      0.000      0.000
REMARK  Name = 
REMARK  8 active torsions:
REMARK  status: ('A' for Active; 'I' for Inactive)
REMARK    1  A    between atoms: C_1  and  N_2
REMARK    2  A    between atoms: C_6  and  C_7
REMARK    3  A    between atoms: C_7  and  C_8
REMARK    4  A    between atoms: C_8  and  C_9
REMARK    5  A    between atoms: C_13  and  N_14
REMARK    6  A    between atoms: C_18  and  C_19
REMARK    7  A    between atoms: C_19  and  N_20
REMARK    8  A    between atoms: C_22  and  C_23
REMARK                            x       y       z     vdW  Elec       q    Type
REMARK                         _______ _______ _______ _____ _____    ______ ____
ROOT
ATOM      1  C   UNL     1       1.042   9.241  19.791  0.00  0.00    +0.000 A 
ATOM      2  C   UNL     1       1.364  10.254  18.862  0.00  0.00    +0.000 A 
ATOM      3  C   UNL     1       2.112   9.988  17.739  0.00  0.00    +0.000 A 
ATOM      4  C   UNL     1       2.578   8.700  17.543  0.00  0.00    +0.000 A 
ATOM      5  C   UNL     1       2.368   7.629  18.443  0.00  0.00    +0.000 A 
ATOM      6  C   UNL     1       1.549   7.928  19.539  0.00  0.00    +0.000 A 
ENDROOT
BRANCH   5   7
ATOM      7  N   UNL     1       2.986   6.416  18.249  0.00  0.00    +0.000 N 
ATOM      8  C   UNL     1       4.413   5.952  18.403  0.00  0.00    +0.000 C 
ATOM      9  C   UNL     1       4.223   4.471  18.781  0.00  0.00    +0.000 A 
ATOM     10  C   UNL     1       5.068   3.464  19.242  0.00  0.00    +0.000 A 
ATOM     11  C   UNL     1       4.488   2.358  19.918  0.00  0.00    +0.000 A 
ATOM     12  C   UNL     1       3.159   2.487  20.353  0.00  0.00    +0.000 A 
ATOM     13  C   UNL     1       2.367   3.529  19.891  0.00  0.00    +0.000 A 
ATOM     14  C   UNL     1       2.856   4.256  18.831  0.00  0.00    +0.000 A 
ATOM     15  C   UNL     1       2.175   5.249  17.970  0.00  0.00    +0.000 C 
BRANCH  13  16
ATOM     16  C   UNL     1       1.223   4.085  20.699  0.00  0.00    +0.000 C 
ATOM     17  F   UNL     1       0.052   4.132  20.004  0.00  0.00    +0.000 F 
ATOM     18  F   UNL     1       0.950   3.314  21.793  0.00  0.00    +0.000 F 
ATOM     19  F   UNL     1       1.444   5.337  21.175  0.00  0.00    +0.000 F 
ENDBRANCH  13  16
BRANCH  11  20
ATOM     20  C   UNL     1       5.235   1.137  20.398  0.00  0.00    +0.000 C 
BRANCH  20  21
ATOM     21  N   UNL     1       5.615   1.163  21.804  0.00  0.00    +0.000 NA
ATOM     22  H   UNL     1       5.297   0.300  22.244  0.00  0.00    +0.000 HD
ATOM     23  H   UNL     1       5.096   1.912  22.267  0.00  0.00    +0.000 HD
ENDBRANCH  20  21
ENDBRANCH  11  20
ENDBRANCH   5   7
BRANCH   1  24
ATOM     24  C   UNL     1       0.148   9.629  21.070  0.00  0.00    +0.000 C 
ATOM     25  C   UNL     1      -0.524   8.498  21.888  0.00  0.00    +0.000 C 
ATOM     26  O   UNL     1       0.184   8.856  23.095  0.00  0.00    +0.000 OA
ATOM     27  C   UNL     1       0.949   9.853  22.393  0.00  0.00    +0.000 C 
BRANCH  24  28
ATOM     28  C   UNL     1      -0.729  10.854  20.759  0.00  0.00    +0.000 C 
BRANCH  28  34
ATOM     29  C   UNL     1      -2.429  11.883  23.244  0.00  0.00    +0.000 C 
ATOM     30  N   UNL     1      -1.257  12.482  22.667  0.00  0.00    +0.000 N 
ATOM     31  C   UNL     1      -0.718  13.672  23.056  0.00  0.00    +0.000 A 
ATOM     32  N   UNL     1       0.355  13.923  22.347  0.00  0.00    +0.000 NA
ATOM     33  N   UNL     1       0.511  12.893  21.455  0.00  0.00    +0.000 NA
ATOM     34  C   UNL     1      -0.476  12.036  21.632  0.00  0.00    +0.000 A 
ENDBRANCH  28  34
ENDBRANCH  24  28
ENDBRANCH   1  24
TORSDOF 7
ENDMDL
MODEL 2
REMARK VINA RESULT:      -7.6      3.182      8.693
REMARK  Name = 
REMARK  8 active torsions:
REMARK  status: ('A' for Active; 'I' for Inactive)
REMARK    1  A    between atoms: C_1  and  N_2
REMARK    2  A    between atoms: C_6  and  C_7
REMARK    3  A    between atoms: C_7  and  C_8
REMARK    4  A    between atoms: C_8  and  C_9
REMARK    5  A    between atoms: C_13  and  N_14
REMARK    6  A    between atoms: C_18  and  C_19
REMARK    7  A    between atoms: C_19  and  N_20
REMARK    8  A    between atoms: C_22  and  C_23
REMARK                            x       y       z     vdW  Elec       q    Type
REMARK                         _______ _______ _______ _____ _____    ______ ____
ROOT
ATOM      1  C   UNL     1       3.416   6.120  18.458  0.00  0.00    +0.000 A 
ATOM      2  C   UNL     1       3.255   5.494  19.712  0.00  0.00    +0.000 A 
ATOM      3  C   UNL     1       2.420   6.013  20.674  0.00  0.00    +0.000 A 
ATOM      4  C   UNL     1       1.751   7.194  20.403  0.00  0.00    +0.000 A 
ATOM      5  C   UNL     1       1.891   7.934  19.206  0.00  0.00    +0.000 A 
ATOM      6  C   UNL     1       2.700   7.338  18.231  0.00  0.00    +0.000 A 
ENDROOT
BRANCH   5   7
ATOM      7  N   UNL     1       1.305   9.171  19.072  0.00  0.00    +0.000 N 
ATOM      8  C   UNL     1       0.244   9.712  18.145  0.00  0.00    +0.000 C 
ATOM      9  C   UNL     1      -0.418  10.792  19.021  0.00  0.00    +0.000 A 
ATOM     10  C   UNL     1      -1.565  11.574  18.909  0.00  0.00    +0.000 A 
ATOM     11  C   UNL     1      -2.119  12.129  20.092  0.00  0.00    +0.000 A 
ATOM     12  C   UNL     1      -1.672  11.615  21.321  0.00  0.00    +0.000 A 
ATOM     13  C   UNL     1      -0.542  10.811  21.376  0.00  0.00    +0.000 A 
ATOM     14  C   UNL     1       0.234  10.753  20.243  0.00  0.00    +0.000 A 
ATOM     15  C   UNL     1       1.592  10.197  20.053  0.00  0.00    +0.000 C 
BRANCH  13  16
ATOM     16  C   UNL     1      -0.347   9.777  22.455  0.00  0.00    +0.000 C 
ATOM     17  F   UNL     1       0.943   9.691  22.886  0.00  0.00    +0.000 F 
ATOM     18  F   UNL     1      -1.071  10.067  23.576  0.00  0.00    +0.000 F 
ATOM     19  F   UNL     1      -0.719   8.524  22.089  0.00  0.00    +0.000 F 
ENDBRANCH  13  16
BRANCH  11  20
ATOM     20  C   UNL     1      -3.295  13.073  20.148  0.00  0.00    +0.000 C 
BRANCH  20  21
ATOM     21  N   UNL     1      -4.365  12.778  19.205  0.00  0.00    +0.000 NA
ATOM     22  H   UNL     1      -4.609  13.635  18.709  0.00  0.00    +0.000 HD
ATOM     23  H   UNL     1      -5.201  12.521  19.732  0.00  0.00    +0.000 HD
ENDBRANCH  20  21
ENDBRANCH  11  20
ENDBRANCH   5   7
BRANCH   1  24
ATOM     24  C   UNL     1       4.397   5.441  17.381  0.00  0.00    +0.000 C 
ATOM     25  C   UNL     1       5.243   6.351  16.456  0.00  0.00    +0.000 C 
ATOM     26  O   UNL     1       6.488   5.816  16.953  0.00  0.00    +0.000 OA
ATOM     27  C   UNL     1       5.796   5.021  17.933  0.00  0.00    +0.000 C 
BRANCH  24  28
ATOM     28  C   UNL     1       3.704   4.245  16.705  0.00  0.00    +0.000 C 
BRANCH  28  34
ATOM     29  C   UNL     1       3.934   1.888  18.831  0.00  0.00    +0.000 C 
ATOM     30  N   UNL     1       2.746   2.566  18.389  0.00  0.00    +0.000 N 
ATOM     31  C   UNL     1       1.477   2.240  18.765  0.00  0.00    +0.000 A 
ATOM     32  N   UNL     1       0.625   3.063  18.203  0.00  0.00    +0.000 NA
ATOM     33  N   UNL     1       1.345   3.932  17.423  0.00  0.00    +0.000 NA
ATOM     34  C   UNL     1       2.622   3.617  17.516  0.00  0.00    +0.000 A 
ENDBRANCH  28  34
ENDBRANCH  24  28
ENDBRANCH   1  24
TORSDOF 7
ENDMDL
MODEL 3
REMARK VINA RESULT:      -7.6      3.492      8.961
REMARK  Name = 
REMARK  8 active torsions:
REMARK  status: ('A' for Active; 'I' for Inactive)
REMARK    1  A    between atoms: C_1  and  N_2
REMARK    2  A    between atoms: C_6  and  C_7
REMARK    3  A    between atoms: C_7  and  C_8
REMARK    4  A    between atoms: C_8  and  C_9
REMARK    5  A    between atoms: C_13  and  N_14
REMARK    6  A    between atoms: C_18  and  C_19
REMARK    7  A    between atoms: C_19  and  N_20
REMARK    8  A    between atoms: C_22  and  C_23
REMARK                            x       y       z     vdW  Elec       q    Type
REMARK                         _______ _______ _______ _____ _____    ______ ____
ROOT
ATOM      1  C   UNL     1       2.510   7.295  18.571  0.00  0.00    +0.000 A 
ATOM      2  C   UNL     1       2.884   8.133  17.499  0.00  0.00    +0.000 A 
ATOM      3  C   UNL     1       2.465   9.442  17.428  0.00  0.00    +0.000 A 
ATOM      4  C   UNL     1       1.634   9.925  18.423  0.00  0.00    +0.000 A 
ATOM      5  C   UNL     1       1.149   9.152  19.504  0.00  0.00    +0.000 A 
ATOM      6  C   UNL     1       1.650   7.847  19.571  0.00  0.00    +0.000 A 
ENDROOT
BRANCH   5   7
ATOM      7  N   UNL     1       0.211   9.665  20.371  0.00  0.00    +0.000 N 
ATOM      8  C   UNL     1       0.201   9.885  21.863  0.00  0.00    +0.000 C 
ATOM      9  C   UNL     1      -0.721  11.112  21.994  0.00  0.00    +0.000 A 
ATOM     10  C   UNL     1      -1.052  11.979  23.032  0.00  0.00    +0.000 A 
ATOM     11  C   UNL     1      -1.569  13.260  22.700  0.00  0.00    +0.000 A 
ATOM     12  C   UNL     1      -1.427  13.692  21.371  0.00  0.00    +0.000 A 
ATOM     13  C   UNL     1      -1.059  12.795  20.377  0.00  0.00    +0.000 A 
ATOM     14  C   UNL     1      -1.088  11.460  20.704  0.00  0.00    +0.000 A 
ATOM     15  C   UNL     1      -0.990  10.269  19.832  0.00  0.00    +0.000 C 
BRANCH  13  16
ATOM     16  C   UNL     1      -0.327  13.233  19.135  0.00  0.00    +0.000 C 
ATOM     17  F   UNL     1      -0.858  12.714  17.991  0.00  0.00    +0.000 F 
ATOM     18  F   UNL     1      -0.380  14.586  18.961  0.00  0.00    +0.000 F 
ATOM     19  F   UNL     1       0.991  12.911  19.132  0.00  0.00    +0.000 F 
ENDBRANCH  13  16
BRANCH  11  20
ATOM     20  C   UNL     1      -2.067  14.285  23.689  0.00  0.00    +0.000 C 
BRANCH  20  21
ATOM     21  N   UNL     1      -1.040  14.862  24.546  0.00  0.00    +0.000 NA
ATOM     22  H   UNL     1      -0.549  15.587  24.024  0.00  0.00    +0.000 HD
ATOM     23  H   UNL     1      -0.339  14.144  24.740  0.00  0.00    +0.000 HD
ENDBRANCH  20  21
ENDBRANCH  11  20
ENDBRANCH   5   7
BRANCH   1  24
ATOM     24  C   UNL     1       3.055   5.783  18.589  0.00  0.00    +0.000 C 
ATOM     25  C   UNL     1       3.972   5.301  17.437  0.00  0.00    +0.000 C 
ATOM     26  O   UNL     1       5.064   5.011  18.337  0.00  0.00    +0.000 OA
ATOM     27  C   UNL     1       4.335   5.551  19.454  0.00  0.00    +0.000 C 
BRANCH  24  28
ATOM     28  C   UNL     1       1.936   4.816  19.015  0.00  0.00    +0.000 C 
BRANCH  28  34
ATOM     29  C   UNL     1       3.307   1.944  18.996  0.00  0.00    +0.000 C 
ATOM     30  N   UNL     1       2.826   2.686  20.129  0.00  0.00    +0.000 N 
ATOM     31  C   UNL     1       2.807   2.224  21.412  0.00  0.00    +0.000 A 
ATOM     32  N   UNL     1       2.330   3.150  22.207  0.00  0.00    +0.000 NA
ATOM     33  N   UNL     1       2.003   4.233  21.430  0.00  0.00    +0.000 NA
ATOM     34  C   UNL     1       2.280   3.943  20.174  0.00  0.00    +0.000 A 
ENDBRANCH  28  34
ENDBRANCH  24  28
ENDBRANCH   1  24
TORSDOF 7
ENDMDL
MODEL 4
REMARK VINA RESULT:      -7.6      3.599      5.278
REMARK  Name = 
REMARK  8 active torsions:
REMARK  status: ('A' for Active; 'I' for Inactive)
REMARK    1  A    between atoms: C_1  and  N_2
REMARK    2  A    between atoms: C_6  and  C_7
REMARK    3  A    between atoms: C_7  and  C_8
REMARK    4  A    between atoms: C_8  and  C_9
REMARK    5  A    between atoms: C_13  and  N_14
REMARK    6  A    between atoms: C_18  and  C_19
REMARK    7  A    between atoms: C_19  and  N_20
REMARK    8  A    between atoms: C_22  and  C_23
REMARK                            x       y       z     vdW  Elec       q    Type
REMARK                         _______ _______ _______ _____ _____    ______ ____
ROOT
ATOM      1  C   UNL     1       1.945   6.659  20.126  0.00  0.00    +0.000 A 
ATOM      2  C   UNL     1       1.436   5.737  21.065  0.00  0.00    +0.000 A 
ATOM      3  C   UNL     1       1.820   4.416  21.058  0.00  0.00    +0.000 A 
ATOM      4  C   UNL     1       2.703   3.989  20.082  0.00  0.00    +0.000 A 
ATOM      5  C   UNL     1       3.221   4.815  19.057  0.00  0.00    +0.000 A 
ATOM      6  C   UNL     1       2.855   6.164  19.141  0.00  0.00    +0.000 A 
ENDROOT
BRANCH   5   7
ATOM      7  N   UNL     1       3.979   4.282  18.040  0.00  0.00    +0.000 N 
ATOM      8  C   UNL     1       3.696   3.999  16.585  0.00  0.00    +0.000 C 
ATOM      9  C   UNL     1       5.090   4.171  15.954  0.00  0.00    +0.000 A 
ATOM     10  C   UNL     1       5.570   4.240  14.649  0.00  0.00    +0.000 A 
ATOM     11  C   UNL     1       6.832   4.854  14.428  0.00  0.00    +0.000 A 
ATOM     12  C   UNL     1       7.372   5.621  15.474  0.00  0.00    +0.000 A 
ATOM     13  C   UNL     1       6.835   5.544  16.751  0.00  0.00    +0.000 A 
ATOM     14  C   UNL     1       5.942   4.526  16.988  0.00  0.00    +0.000 A 
ATOM     15  C   UNL     1       5.387   4.031  18.267  0.00  0.00    +0.000 C 
BRANCH  13  16
ATOM     16  C   UNL     1       6.920   6.690  17.726  0.00  0.00    +0.000 C 
ATOM     17  F   UNL     1       7.800   7.656  17.339  0.00  0.00    +0.000 F 
ATOM     18  F   UNL     1       5.725   7.338  17.857  0.00  0.00    +0.000 F 
ATOM     19  F   UNL     1       7.278   6.318  18.981  0.00  0.00    +0.000 F 
ENDBRANCH  13  16
BRANCH  11  20
ATOM     20  C   UNL     1       7.546   4.932  13.101  0.00  0.00    +0.000 C 
BRANCH  20  21
ATOM     21  N   UNL     1       8.585   5.950  13.021  0.00  0.00    +0.000 NA
ATOM     22  H   UNL     1       8.302   6.749  13.588  0.00  0.00    +0.000 HD
ATOM     23  H   UNL     1       8.625   6.298  12.061  0.00  0.00    +0.000 HD
ENDBRANCH  20  21
ENDBRANCH  11  20
ENDBRANCH   5   7
BRANCH   1  24
ATOM     24  C   UNL     1       1.461   8.190  20.213  0.00  0.00    +0.000 C 
ATOM     25  C   UNL     1       0.120   8.515  20.916  0.00  0.00    +0.000 C 
ATOM     26  O   UNL     1       0.762   9.348  21.906  0.00  0.00    +0.000 OA
ATOM     27  C   UNL     1       2.065   9.009  21.398  0.00  0.00    +0.000 C 
BRANCH  24  28
ATOM     28  C   UNL     1       1.717   8.909  18.877  0.00  0.00    +0.000 C 
BRANCH  28  34
ATOM     29  C   UNL     1       1.506  12.004  19.583  0.00  0.00    +0.000 C 
ATOM     30  N   UNL     1       0.570  11.201  18.847  0.00  0.00    +0.000 N 
ATOM     31  C   UNL     1      -0.638  11.635  18.388  0.00  0.00    +0.000 A 
ATOM     32  N   UNL     1      -1.238  10.667  17.740  0.00  0.00    +0.000 NA
ATOM     33  N   UNL     1      -0.422   9.566  17.795  0.00  0.00    +0.000 NA
ATOM     34  C   UNL     1       0.658   9.881  18.483  0.00  0.00    +0.000 A 
ENDBRANCH  28  34
ENDBRANCH  24  28
ENDBRANCH   1  24
TORSDOF 7
ENDMDL
MODEL 5
REMARK VINA RESULT:      -7.6      3.504      9.075
REMARK  Name = 
REMARK  8 active torsions:
REMARK  status: ('A' for Active; 'I' for Inactive)
REMARK    1  A    between atoms: C_1  and  N_2
REMARK    2  A    between atoms: C_6  and  C_7
REMARK    3  A    between atoms: C_7  and  C_8
REMARK    4  A    between atoms: C_8  and  C_9
REMARK    5  A    between atoms: C_13  and  N_14
REMARK    6  A    between atoms: C_18  and  C_19
REMARK    7  A    between atoms: C_19  and  N_20
REMARK    8  A    between atoms: C_22  and  C_23
REMARK                            x       y       z     vdW  Elec       q    Type
REMARK                         _______ _______ _______ _____ _____    ______ ____
ROOT
ATOM      1  C   UNL     1       2.660   7.333  18.780  0.00  0.00    +0.000 A 
ATOM      2  C   UNL     1       2.957   8.093  17.629  0.00  0.00    +0.000 A 
ATOM      3  C   UNL     1       2.432   9.351  17.441  0.00  0.00    +0.000 A 
ATOM      4  C   UNL     1       1.570   9.858  18.397  0.00  0.00    +0.000 A 
ATOM      5  C   UNL     1       1.157   9.155  19.553  0.00  0.00    +0.000 A 
ATOM      6  C   UNL     1       1.764   7.906  19.736  0.00  0.00    +0.000 A 
ENDROOT
BRANCH   5   7
ATOM      7  N   UNL     1       0.186   9.670  20.380  0.00  0.00    +0.000 N 
ATOM      8  C   UNL     1       0.069   9.789  21.880  0.00  0.00    +0.000 C 
ATOM      9  C   UNL     1      -0.782  11.064  22.028  0.00  0.00    +0.000 A 
ATOM     10  C   UNL     1      -1.142  11.880  23.098  0.00  0.00    +0.000 A 
ATOM     11  C   UNL     1      -1.550  13.212  22.821  0.00  0.00    +0.000 A 
ATOM     12  C   UNL     1      -1.275  13.721  21.541  0.00  0.00    +0.000 A 
ATOM     13  C   UNL     1      -0.885  12.871  20.516  0.00  0.00    +0.000 A 
ATOM     14  C   UNL     1      -1.022  11.522  20.743  0.00  0.00    +0.000 A 
ATOM     15  C   UNL     1      -0.928  10.388  19.797  0.00  0.00    +0.000 C 
BRANCH  13  16
ATOM     16  C   UNL     1      -0.029  13.341  19.367  0.00  0.00    +0.000 C 
ATOM     17  F   UNL     1      -0.547  13.018  18.149  0.00  0.00    +0.000 F 
ATOM     18  F   UNL     1       0.094  14.700  19.346  0.00  0.00    +0.000 F 
ATOM     19  F   UNL     1       1.238  12.854  19.392  0.00  0.00    +0.000 F 
ENDBRANCH  13  16
BRANCH  11  20
ATOM     20  C   UNL     1      -2.062  14.200  23.840  0.00  0.00    +0.000 C 
BRANCH  20  21
ATOM     21  N   UNL     1      -1.027  14.911  24.580  0.00  0.00    +0.000 NA
ATOM     22  H   UNL     1      -0.225  14.292  24.695  0.00  0.00    +0.000 HD
ATOM     23  H   UNL     1      -1.371  15.090  25.526  0.00  0.00    +0.000 HD
ENDBRANCH  20  21
ENDBRANCH  11  20
ENDBRANCH   5   7
BRANCH   1  24
ATOM     24  C   UNL     1       3.327   5.878  18.933  0.00  0.00    +0.000 C 
ATOM     25  C   UNL     1       3.597   5.037  17.661  0.00  0.00    +0.000 C 
ATOM     26  O   UNL     1       5.019   4.994  17.907  0.00  0.00    +0.000 OA
ATOM     27  C   UNL     1       4.885   5.873  19.039  0.00  0.00    +0.000 C 
BRANCH  24  28
ATOM     28  C   UNL     1       2.704   5.127  20.123  0.00  0.00    +0.000 C 
BRANCH  28  34
ATOM     29  C   UNL     1       4.121   2.277  20.085  0.00  0.00    +0.000 C 
ATOM     30  N   UNL     1       2.767   2.595  19.724  0.00  0.00    +0.000 N 
ATOM     31  C   UNL     1       1.868   1.708  19.212  0.00  0.00    +0.000 A 
ATOM     32  N   UNL     1       0.721   2.308  19.010  0.00  0.00    +0.000 NA
ATOM     33  N   UNL     1       0.874   3.622  19.372  0.00  0.00    +0.000 NA
ATOM     34  C   UNL     1       2.115   3.801  19.779  0.00  0.00    +0.000 A 
ENDBRANCH  28  34
ENDBRANCH  24  28
ENDBRANCH   1  24
TORSDOF 7
ENDMDL
MODEL 6
REMARK VINA RESULT:      -7.6      3.086      8.784
REMARK  Name = 
REMARK  8 active torsions:
REMARK  status: ('A' for Active; 'I' for Inactive)
REMARK    1  A    between atoms: C_1  and  N_2
REMARK    2  A    between atoms: C_6  and  C_7
REMARK    3  A    between atoms: C_7  and  C_8
REMARK    4  A    between atoms: C_8  and  C_9
REMARK    5  A    between atoms: C_13  and  N_14
REMARK    6  A    between atoms: C_18  and  C_19
REMARK    7  A    between atoms: C_19  and  N_20
REMARK    8  A    between atoms: C_22  and  C_23
REMARK                            x       y       z     vdW  Elec       q    Type
REMARK                         _______ _______ _______ _____ _____    ______ ____
ROOT
ATOM      1  C   UNL     1       2.648   4.864  19.017  0.00  0.00    +0.000 A 
ATOM      2  C   UNL     1       2.249   4.321  20.257  0.00  0.00    +0.000 A 
ATOM      3  C   UNL     1       1.624   5.090  21.212  0.00  0.00    +0.000 A 
ATOM      4  C   UNL     1       1.416   6.432  20.949  0.00  0.00    +0.000 A 
ATOM      5  C   UNL     1       1.834   7.088  19.767  0.00  0.00    +0.000 A 
ATOM      6  C   UNL     1       2.407   6.256  18.798  0.00  0.00    +0.000 A 
ENDROOT
BRANCH   5   7
ATOM      7  N   UNL     1       1.719   8.454  19.644  0.00  0.00    +0.000 N 
ATOM      8  C   UNL     1       1.152   9.345  18.566  0.00  0.00    +0.000 C 
ATOM      9  C   UNL     1       0.664  10.555  19.385  0.00  0.00    +0.000 A 
ATOM     10  C   UNL     1      -0.113  11.676  19.103  0.00  0.00    +0.000 A 
ATOM     11  C   UNL     1      -0.744  12.346  20.184  0.00  0.00    +0.000 A 
ATOM     12  C   UNL     1      -0.806  11.674  21.416  0.00  0.00    +0.000 A 
ATOM     13  C   UNL     1      -0.039  10.539  21.636  0.00  0.00    +0.000 A 
ATOM     14  C   UNL     1       0.940  10.263  20.710  0.00  0.00    +0.000 A 
ATOM     15  C   UNL     1       2.056   9.295  20.773  0.00  0.00    +0.000 C 
BRANCH  13  16
ATOM     16  C   UNL     1      -0.457   9.466  22.607  0.00  0.00    +0.000 C 
ATOM     17  F   UNL     1       0.522   9.142  23.499  0.00  0.00    +0.000 F 
ATOM     18  F   UNL     1      -1.515   9.858  23.376  0.00  0.00    +0.000 F 
ATOM     19  F   UNL     1      -0.840   8.307  22.014  0.00  0.00    +0.000 F 
ENDBRANCH  13  16
BRANCH  11  20
ATOM     20  C   UNL     1      -1.539  13.625  20.076  0.00  0.00    +0.000 C 
BRANCH  20  21
ATOM     21  N   UNL     1      -1.026  14.587  19.111  0.00  0.00    +0.000 NA
ATOM     22  H   UNL     1      -0.238  14.168  18.619  0.00  0.00    +0.000 HD
ATOM     23  H   UNL     1      -0.637  15.383  19.621  0.00  0.00    +0.000 HD
ENDBRANCH  20  21
ENDBRANCH  11  20
ENDBRANCH   5   7
BRANCH   1  24
ATOM     24  C   UNL     1       3.356   3.896  17.947  0.00  0.00    +0.000 C 
ATOM     25  C   UNL     1       4.009   2.581  18.441  0.00  0.00    +0.000 C 
ATOM     26  O   UNL     1       3.142   1.763  17.625  0.00  0.00    +0.000 OA
ATOM     27  C   UNL     1       2.393   2.917  17.202  0.00  0.00    +0.000 C 
BRANCH  24  28
ATOM     28  C   UNL     1       4.172   4.720  16.937  0.00  0.00    +0.000 C 
BRANCH  28  34
ATOM     29  C   UNL     1       6.072   5.480  19.374  0.00  0.00    +0.000 C 
ATOM     30  N   UNL     1       6.448   4.938  18.097  0.00  0.00    +0.000 N 
ATOM     31  C   UNL     1       7.731   4.732  17.685  0.00  0.00    +0.000 A 
ATOM     32  N   UNL     1       7.729   4.208  16.484  0.00  0.00    +0.000 NA
ATOM     33  N   UNL     1       6.422   4.090  16.086  0.00  0.00    +0.000 NA
ATOM     34  C   UNL     1       5.650   4.553  17.050  0.00  0.00    +0.000 A 
ENDBRANCH  28  34
ENDBRANCH  24  28
ENDBRANCH   1  24
TORSDOF 7
ENDMDL
MODEL 7
REMARK VINA RESULT:      -7.6      2.529      8.563
REMARK  Name = 
REMARK  8 active torsions:
REMARK  status: ('A' for Active; 'I' for Inactive)
REMARK    1  A    between atoms: C_1  and  N_2
REMARK    2  A    between atoms: C_6  and  C_7
REMARK    3  A    between atoms: C_7  and  C_8
REMARK    4  A    between atoms: C_8  and  C_9
REMARK    5  A    between atoms: C_13  and  N_14
REMARK    6  A    between atoms: C_18  and  C_19
REMARK    7  A    between atoms: C_19  and  N_20
REMARK    8  A    between atoms: C_22  and  C_23
REMARK                            x       y       z     vdW  Elec       q    Type
REMARK                         _______ _______ _______ _____ _____    ______ ____
ROOT
ATOM      1  C   UNL     1       2.321   7.012  19.079  0.00  0.00    +0.000 A 
ATOM      2  C   UNL     1       2.895   7.189  17.802  0.00  0.00    +0.000 A 
ATOM      3  C   UNL     1       2.874   8.408  17.166  0.00  0.00    +0.000 A 
ATOM      4  C   UNL     1       2.245   9.470  17.792  0.00  0.00    +0.000 A 
ATOM      5  C   UNL     1       1.584   9.384  19.040  0.00  0.00    +0.000 A 
ATOM      6  C   UNL     1       1.685   8.143  19.680  0.00  0.00    +0.000 A 
ENDROOT
BRANCH   5   7
ATOM      7  N   UNL     1       0.859  10.447  19.526  0.00  0.00    +0.000 N 
ATOM      8  C   UNL     1      -0.455  11.068  19.121  0.00  0.00    +0.000 C 
ATOM      9  C   UNL     1      -0.975  11.609  20.466  0.00  0.00    +0.000 A 
ATOM     10  C   UNL     1      -2.186  12.139  20.903  0.00  0.00    +0.000 A 
ATOM     11  C   UNL     1      -2.469  12.112  22.295  0.00  0.00    +0.000 A 
ATOM     12  C   UNL     1      -1.669  11.288  23.104  0.00  0.00    +0.000 A 
ATOM     13  C   UNL     1      -0.487  10.754  22.609  0.00  0.00    +0.000 A 
ATOM     14  C   UNL     1      -0.029  11.260  21.416  0.00  0.00    +0.000 A 
ATOM     15  C   UNL     1       1.283  11.086  20.755  0.00  0.00    +0.000 C 
BRANCH  13  16
ATOM     16  C   UNL     1       0.086   9.460  23.128  0.00  0.00    +0.000 C 
ATOM     17  F   UNL     1      -0.027   9.330  24.480  0.00  0.00    +0.000 F 
ATOM     18  F   UNL     1      -0.564   8.373  22.617  0.00  0.00    +0.000 F 
ATOM     19  F   UNL     1       1.398   9.281  22.829  0.00  0.00    +0.000 F 
ENDBRANCH  13  16
BRANCH  11  20
ATOM     20  C   UNL     1      -3.681  12.724  22.953  0.00  0.00    +0.000 C 
BRANCH  20  21
ATOM     21  N   UNL     1      -4.078  12.102  24.209  0.00  0.00    +0.000 NA
ATOM     22  H   UNL     1      -3.876  12.748  24.972  0.00  0.00    +0.000 HD
ATOM     23  H   UNL     1      -3.478  11.291  24.373  0.00  0.00    +0.000 HD
ENDBRANCH  20  21
ENDBRANCH  11  20
ENDBRANCH   5   7
BRANCH   1  24
ATOM     24  C   UNL     1       2.403   5.559  19.763  0.00  0.00    +0.000 C 
ATOM     25  C   UNL     1       1.660   5.315  21.100  0.00  0.00    +0.000 C 
ATOM     26  O   UNL     1       0.833   4.277  20.530  0.00  0.00    +0.000 OA
ATOM     27  C   UNL     1       1.378   4.513  19.219  0.00  0.00    +0.000 C 
BRANCH  24  28
ATOM     28  C   UNL     1       3.836   5.005  19.672  0.00  0.00    +0.000 C 
BRANCH  28  34
ATOM     29  C   UNL     1       4.175   3.980  16.679  0.00  0.00    +0.000 C 
ATOM     30  N   UNL     1       4.023   3.191  17.870  0.00  0.00    +0.000 N 
ATOM     31  C   UNL     1       3.915   1.832  17.897  0.00  0.00    +0.000 A 
ATOM     32  N   UNL     1       3.810   1.423  19.137  0.00  0.00    +0.000 NA
ATOM     33  N   UNL     1       3.823   2.533  19.941  0.00  0.00    +0.000 NA
ATOM     34  C   UNL     1       3.927   3.602  19.175  0.00  0.00    +0.000 A 
ENDBRANCH  28  34
ENDBRANCH  24  28
ENDBRANCH   1  24
TORSDOF 7
ENDMDL
MODEL 8
REMARK VINA RESULT:      -7.6      3.348      8.852
REMARK  Name = 
REMARK  8 active torsions:
REMARK  status: ('A' for Active; 'I' for Inactive)
REMARK    1  A    between atoms: C_1  and  N_2
REMARK    2  A    between atoms: C_6  and  C_7
REMARK    3  A    between atoms: C_7  and  C_8
REMARK    4  A    between atoms: C_8  and  C_9
REMARK    5  A    between atoms: C_13  and  N_14
REMARK    6  A    between atoms: C_18  and  C_19
REMARK    7  A    between atoms: C_19  and  N_20
REMARK    8  A    between atoms: C_22  and  C_23
REMARK                            x       y       z     vdW  Elec       q    Type
REMARK                         _______ _______ _______ _____ _____    ______ ____
ROOT
ATOM      1  C   UNL     1       2.656   6.669  18.916  0.00  0.00    +0.000 A 
ATOM      2  C   UNL     1       3.127   7.396  17.802  0.00  0.00    +0.000 A 
ATOM      3  C   UNL     1       2.755   8.703  17.586  0.00  0.00    +0.000 A 
ATOM      4  C   UNL     1       1.874   9.296  18.474  0.00  0.00    +0.000 A 
ATOM      5  C   UNL     1       1.295   8.637  19.583  0.00  0.00    +0.000 A 
ATOM      6  C   UNL     1       1.750   7.331  19.801  0.00  0.00    +0.000 A 
ENDROOT
BRANCH   5   7
ATOM      7  N   UNL     1       0.318   9.250  20.334  0.00  0.00    +0.000 N 
ATOM      8  C   UNL     1       0.048   9.314  21.816  0.00  0.00    +0.000 C 
ATOM      9  C   UNL     1      -0.626  10.692  21.955  0.00  0.00    +0.000 A 
ATOM     10  C   UNL     1      -0.987  11.499  23.030  0.00  0.00    +0.000 A 
ATOM     11  C   UNL     1      -1.168  12.889  22.796  0.00  0.00    +0.000 A 
ATOM     12  C   UNL     1      -0.679  13.413  21.588  0.00  0.00    +0.000 A 
ATOM     13  C   UNL     1      -0.298  12.564  20.558  0.00  0.00    +0.000 A 
ATOM     14  C   UNL     1      -0.649  11.240  20.682  0.00  0.00    +0.000 A 
ATOM     15  C   UNL     1      -0.609  10.152  19.682  0.00  0.00    +0.000 C 
BRANCH  13  16
ATOM     16  C   UNL     1       0.741  12.956  19.540  0.00  0.00    +0.000 C 
ATOM     17  F   UNL     1       1.077  14.276  19.601  0.00  0.00    +0.000 F 
ATOM     18  F   UNL     1       1.917  12.288  19.727  0.00  0.00    +0.000 F 
ATOM     19  F   UNL     1       0.375  12.708  18.257  0.00  0.00    +0.000 F 
ENDBRANCH  13  16
BRANCH  11  20
ATOM     20  C   UNL     1      -1.649  13.892  23.816  0.00  0.00    +0.000 C 
BRANCH  20  21
ATOM     21  N   UNL     1      -0.700  14.952  24.130  0.00  0.00    +0.000 NA
ATOM     22  H   UNL     1      -1.088  15.840  23.815  0.00  0.00    +0.000 HD
ATOM     23  H   UNL     1       0.143  14.809  23.570  0.00  0.00    +0.000 HD
ENDBRANCH  20  21
ENDBRANCH  11  20
ENDBRANCH   5   7
BRANCH   1  24
ATOM     24  C   UNL     1       3.152   5.152  19.107  0.00  0.00    +0.000 C 
ATOM     25  C   UNL     1       3.229   4.560  20.536  0.00  0.00    +0.000 C 
ATOM     26  O   UNL     1       2.276   3.519  20.232  0.00  0.00    +0.000 OA
ATOM     27  C   UNL     1       2.044   4.066  18.921  0.00  0.00    +0.000 C 
BRANCH  24  28
ATOM     28  C   UNL     1       4.350   4.860  18.186  0.00  0.00    +0.000 C 
BRANCH  28  34
ATOM     29  C   UNL     1       6.563   6.746  16.894  0.00  0.00    +0.000 C 
ATOM     30  N   UNL     1       6.628   6.035  18.141  0.00  0.00    +0.000 N 
ATOM     31  C   UNL     1       7.719   5.990  18.957  0.00  0.00    +0.000 A 
ATOM     32  N   UNL     1       7.444   5.277  20.022  0.00  0.00    +0.000 NA
ATOM     33  N   UNL     1       6.157   4.822  19.893  0.00  0.00    +0.000 NA
ATOM     34  C   UNL     1       5.673   5.258  18.747  0.00  0.00    +0.000 A 
ENDBRANCH  28  34
ENDBRANCH  24  28
ENDBRANCH   1  24
TORSDOF 7
ENDMDL
MODEL 9
REMARK VINA RESULT:      -7.5      3.162      8.821
REMARK  Name = 
REMARK  8 active torsions:
REMARK  status: ('A' for Active; 'I' for Inactive)
REMARK    1  A    between atoms: C_1  and  N_2
REMARK    2  A    between atoms: C_6  and  C_7
REMARK    3  A    between atoms: C_7  and  C_8
REMARK    4  A    between atoms: C_8  and  C_9
REMARK    5  A    between atoms: C_13  and  N_14
REMARK    6  A    between atoms: C_18  and  C_19
REMARK    7  A    between atoms: C_19  and  N_20
REMARK    8  A    between atoms: C_22  and  C_23
REMARK                            x       y       z     vdW  Elec       q    Type
REMARK                         _______ _______ _______ _____ _____    ______ ____
ROOT
ATOM      1  C   UNL     1       2.379   6.225  19.079  0.00  0.00    +0.000 A 
ATOM      2  C   UNL     1       2.849   6.642  17.816  0.00  0.00    +0.000 A 
ATOM      3  C   UNL     1       2.786   7.959  17.422  0.00  0.00    +0.000 A 
ATOM      4  C   UNL     1       2.219   8.880  18.284  0.00  0.00    +0.000 A 
ATOM      5  C   UNL     1       1.660   8.558  19.543  0.00  0.00    +0.000 A 
ATOM      6  C   UNL     1       1.802   7.220  19.930  0.00  0.00    +0.000 A 
ENDROOT
BRANCH   5   7
ATOM      7  N   UNL     1       0.985   9.506  20.277  0.00  0.00    +0.000 N 
ATOM      8  C   UNL     1       1.388  10.843  20.848  0.00  0.00    +0.000 C 
ATOM      9  C   UNL     1       0.054  11.613  20.817  0.00  0.00    +0.000 A 
ATOM     10  C   UNL     1      -0.312  12.941  21.018  0.00  0.00    +0.000 A 
ATOM     11  C   UNL     1      -1.543  13.390  20.469  0.00  0.00    +0.000 A 
ATOM     12  C   UNL     1      -2.161  12.573  19.507  0.00  0.00    +0.000 A 
ATOM     13  C   UNL     1      -1.735  11.265  19.320  0.00  0.00    +0.000 A 
ATOM     14  C   UNL     1      -0.878  10.750  20.263  0.00  0.00    +0.000 A 
ATOM     15  C   UNL     1      -0.440   9.354  20.483  0.00  0.00    +0.000 C 
BRANCH  13  16
ATOM     16  C   UNL     1      -1.889  10.556  17.999  0.00  0.00    +0.000 C 
ATOM     17  F   UNL     1      -0.734   9.973  17.569  0.00  0.00    +0.000 F 
ATOM     18  F   UNL     1      -2.790   9.533  18.072  0.00  0.00    +0.000 F 
ATOM     19  F   UNL     1      -2.319  11.357  16.992  0.00  0.00    +0.000 F 
ENDBRANCH  13  16
BRANCH  11  20
ATOM     20  C   UNL     1      -2.141  14.762  20.668  0.00  0.00    +0.000 C 
BRANCH  20  21
ATOM     21  N   UNL     1      -1.599  15.799  19.801  0.00  0.00    +0.000 NA
ATOM     22  H   UNL     1      -0.744  15.450  19.369  0.00  0.00    +0.000 HD
ATOM     23  H   UNL     1      -1.308  16.588  20.382  0.00  0.00    +0.000 HD
ENDBRANCH  20  21
ENDBRANCH  11  20
ENDBRANCH   5   7
BRANCH   1  24
ATOM     24  C   UNL     1       2.503   4.671  19.471  0.00  0.00    +0.000 C 
ATOM     25  C   UNL     1       2.645   4.281  20.963  0.00  0.00    +0.000 C 
ATOM     26  O   UNL     1       1.428   3.504  20.946  0.00  0.00    +0.000 OA
ATOM     27  C   UNL     1       1.145   3.909  19.595  0.00  0.00    +0.000 C 
BRANCH  24  28
ATOM     28  C   UNL     1       3.439   3.945  18.488  0.00  0.00    +0.000 C 
BRANCH  28  34
ATOM     29  C   UNL     1       5.421   4.423  16.045  0.00  0.00    +0.000 C 
ATOM     30  N   UNL     1       5.699   4.564  17.448  0.00  0.00    +0.000 N 
ATOM     31  C   UNL     1       6.922   4.856  17.975  0.00  0.00    +0.000 A 
ATOM     32  N   UNL     1       6.833   4.934  19.280  0.00  0.00    +0.000 NA
ATOM     33  N   UNL     1       5.532   4.663  19.621  0.00  0.00    +0.000 NA
ATOM     34  C   UNL     1       4.854   4.416  18.518  0.00  0.00    +0.000 A 
ENDBRANCH  28  34
ENDBRANCH  24  28
ENDBRANCH   1  24
TORSDOF 7
ENDMDL
