MODEL 1
REMARK VINA RESULT:      -7.1      0.000      0.000
REMARK  Name = 
REMARK  3 active torsions:
REMARK  status: ('A' for Active; 'I' for Inactive)
REMARK    1  A    between atoms: C_1  and  C_2
REMARK    2  A    between atoms: C_7  and  C_8
REMARK    3  A    between atoms: C_18  and  C_19
REMARK                            x       y       z     vdW  Elec       q    Type
REMARK                         _______ _______ _______ _____ _____    ______ ____
ROOT
ATOM      1  C   UNL     1       0.600   9.965  21.730  0.00  0.00    +0.000 C 
ATOM      2  O   UNL     1       0.967  10.008  22.916  0.00  0.00    +0.000 OA
ATOM      3  N   UNL     1      -0.195  11.004  21.269  0.00  0.00    +0.000 N 
ATOM      4  C   UNL     1      -1.033  11.125  20.009  0.00  0.00    +0.000 C 
ATOM      5  C   UNL     1      -1.419  12.615  19.600  0.00  0.00    +0.000 C 
ATOM      6  C   UNL     1      -0.181  13.412  19.847  0.00  0.00    +0.000 A 
ATOM      7  S   UNL     1       0.717  14.134  18.606  0.00  0.00    +0.000 S 
ATOM      8  C   UNL     1       2.144  13.463  19.278  0.00  0.00    +0.000 A 
ATOM      9  C   UNL     1       1.951  13.088  20.596  0.00  0.00    +0.000 A 
ATOM     10  C   UNL     1       0.550  13.140  20.990  0.00  0.00    +0.000 A 
ATOM     11  C   UNL     1      -0.040  12.241  22.072  0.00  0.00    +0.000 C 
ENDROOT
BRANCH   1  18
ATOM     12  C   UNL     1       3.187   4.513  17.355  0.00  0.00    +0.000 C 
ATOM     13  C   UNL     1       2.633   5.366  18.465  0.00  0.00    +0.000 A 
ATOM     14  C   UNL     1       2.189   4.645  19.661  0.00  0.00    +0.000 A 
ATOM     15  C   UNL     1       1.684   5.341  20.677  0.00  0.00    +0.000 A 
ATOM     16  N   UNL     1       1.582   6.722  20.581  0.00  0.00    +0.000 N 
ATOM     17  C   UNL     1       1.100   7.580  21.496  0.00  0.00    +0.000 A 
ATOM     18  C   UNL     1       1.123   8.850  20.932  0.00  0.00    +0.000 A 
ATOM     19  N   UNL     1       1.708   8.768  19.667  0.00  0.00    +0.000 NA
ATOM     20  C   UNL     1       1.967   7.469  19.485  0.00  0.00    +0.000 A 
ATOM     21  C   UNL     1       2.542   6.725  18.396  0.00  0.00    +0.000 A 
ENDBRANCH   1  18
BRANCH  11  22
ATOM     22  C   UNL     1      -1.402  12.649  22.636  0.00  0.00    +0.000 A 
ATOM     23  C   UNL     1      -1.617  14.036  22.877  0.00  0.00    +0.000 A 
ATOM     24  C   UNL     1      -2.669  14.496  23.644  0.00  0.00    +0.000 A 
ATOM     25  C   UNL     1      -3.599  13.596  24.150  0.00  0.00    +0.000 A 
ATOM     26  C   UNL     1      -3.497  12.246  23.797  0.00  0.00    +0.000 A 
ATOM     27  C   UNL     1      -2.426  11.777  23.024  0.00  0.00    +0.000 A 
ENDBRANCH  11  22
TORSDOF 2
ENDMDL
MODEL 2
REMARK VINA RESULT:      -7.0      0.610      1.222
REMARK  Name = 
REMARK  3 active torsions:
REMARK  status: ('A' for Active; 'I' for Inactive)
REMARK    1  A    between atoms: C_1  and  C_2
REMARK    2  A    between atoms: C_7  and  C_8
REMARK    3  A    between atoms: C_18  and  C_19
REMARK                            x       y       z     vdW  Elec       q    Type
REMARK                         _______ _______ _______ _____ _____    ______ ____
ROOT
ATOM      1  C   UNL     1       0.421   9.973  21.941  0.00  0.00    +0.000 C 
ATOM      2  O   UNL     1       0.773  10.050  23.130  0.00  0.00    +0.000 OA
ATOM      3  N   UNL     1      -0.371  10.997  21.442  0.00  0.00    +0.000 N 
ATOM      4  C   UNL     1      -1.193  11.081  20.168  0.00  0.00    +0.000 C 
ATOM      5  C   UNL     1      -1.576  12.558  19.713  0.00  0.00    +0.000 C 
ATOM      6  C   UNL     1      -0.343  13.364  19.954  0.00  0.00    +0.000 A 
ATOM      7  S   UNL     1       0.569  14.054  18.704  0.00  0.00    +0.000 S 
ATOM      8  C   UNL     1       1.989  13.405  19.413  0.00  0.00    +0.000 A 
ATOM      9  C   UNL     1       1.779  13.067  20.738  0.00  0.00    +0.000 A 
ATOM     10  C   UNL     1       0.374  13.127  21.113  0.00  0.00    +0.000 A 
ATOM     11  C   UNL     1      -0.229  12.256  22.212  0.00  0.00    +0.000 C 
ENDROOT
BRANCH   1  18
ATOM     12  C   UNL     1       3.188   4.014  18.422  0.00  0.00    +0.000 C 
ATOM     13  C   UNL     1       2.712   5.377  18.847  0.00  0.00    +0.000 A 
ATOM     14  C   UNL     1       3.017   6.475  17.925  0.00  0.00    +0.000 A 
ATOM     15  C   UNL     1       2.628   7.707  18.246  0.00  0.00    +0.000 A 
ATOM     16  N   UNL     1       1.953   7.926  19.439  0.00  0.00    +0.000 N 
ATOM     17  C   UNL     1       1.491   9.091  19.924  0.00  0.00    +0.000 A 
ATOM     18  C   UNL     1       0.956   8.837  21.181  0.00  0.00    +0.000 A 
ATOM     19  N   UNL     1       1.028   7.466  21.431  0.00  0.00    +0.000 NA
ATOM     20  C   UNL     1       1.640   6.947  20.362  0.00  0.00    +0.000 A 
ATOM     21  C   UNL     1       2.031   5.608  20.006  0.00  0.00    +0.000 A 
ENDBRANCH   1  18
BRANCH  11  22
ATOM     22  C   UNL     1      -1.598  12.677  22.747  0.00  0.00    +0.000 A 
ATOM     23  C   UNL     1      -1.845  14.074  22.877  0.00  0.00    +0.000 A 
ATOM     24  C   UNL     1      -2.906  14.569  23.609  0.00  0.00    +0.000 A 
ATOM     25  C   UNL     1      -3.813  13.691  24.190  0.00  0.00    +0.000 A 
ATOM     26  C   UNL     1      -3.680  12.320  23.946  0.00  0.00    +0.000 A 
ATOM     27  C   UNL     1      -2.600  11.815  23.209  0.00  0.00    +0.000 A 
ENDBRANCH  11  22
TORSDOF 2
ENDMDL
MODEL 3
REMARK VINA RESULT:      -6.8      2.468      4.331
REMARK  Name = 
REMARK  3 active torsions:
REMARK  status: ('A' for Active; 'I' for Inactive)
REMARK    1  A    between atoms: C_1  and  C_2
REMARK    2  A    between atoms: C_7  and  C_8
REMARK    3  A    between atoms: C_18  and  C_19
REMARK                            x       y       z     vdW  Elec       q    Type
REMARK                         _______ _______ _______ _____ _____    ______ ____
ROOT
ATOM      1  C   UNL     1       1.869  10.652  18.594  0.00  0.00    +0.000 C 
ATOM      2  O   UNL     1       2.353  10.902  17.477  0.00  0.00    +0.000 OA
ATOM      3  N   UNL     1       1.316  11.709  19.302  0.00  0.00    +0.000 N 
ATOM      4  C   UNL     1       0.913  11.820  20.761  0.00  0.00    +0.000 C 
ATOM      5  C   UNL     1      -0.103  13.001  21.090  0.00  0.00    +0.000 C 
ATOM      6  C   UNL     1      -1.082  12.987  19.963  0.00  0.00    +0.000 A 
ATOM      7  S   UNL     1      -2.713  12.576  20.161  0.00  0.00    +0.000 S 
ATOM      8  C   UNL     1      -2.585  11.514  18.821  0.00  0.00    +0.000 A 
ATOM      9  C   UNL     1      -1.479  11.815  18.045  0.00  0.00    +0.000 A 
ATOM     10  C   UNL     1      -0.598  12.782  18.683  0.00  0.00    +0.000 A 
ATOM     11  C   UNL     1       0.905  12.831  18.424  0.00  0.00    +0.000 C 
ENDROOT
BRANCH   1  18
ATOM     12  C   UNL     1       1.899   3.605  21.020  0.00  0.00    +0.000 C 
ATOM     13  C   UNL     1       1.995   4.889  20.240  0.00  0.00    +0.000 A 
ATOM     14  C   UNL     1       2.569   4.776  18.896  0.00  0.00    +0.000 A 
ATOM     15  C   UNL     1       2.687   5.877  18.157  0.00  0.00    +0.000 A 
ATOM     16  N   UNL     1       2.274   7.098  18.671  0.00  0.00    +0.000 N 
ATOM     17  C   UNL     1       2.319   8.302  18.076  0.00  0.00    +0.000 A 
ATOM     18  C   UNL     1       1.872   9.241  18.998  0.00  0.00    +0.000 A 
ATOM     19  N   UNL     1       1.474   8.575  20.158  0.00  0.00    +0.000 NA
ATOM     20  C   UNL     1       1.735   7.285  19.929  0.00  0.00    +0.000 A 
ATOM     21  C   UNL     1       1.577   6.094  20.722  0.00  0.00    +0.000 A 
ENDBRANCH   1  18
BRANCH  11  22
ATOM     22  C   UNL     1       1.636  14.104  18.857  0.00  0.00    +0.000 A 
ATOM     23  C   UNL     1       0.951  15.340  18.678  0.00  0.00    +0.000 A 
ATOM     24  C   UNL     1       1.598  16.557  18.751  0.00  0.00    +0.000 A 
ATOM     25  C   UNL     1       2.948  16.602  19.076  0.00  0.00    +0.000 A 
ATOM     26  C   UNL     1       3.605  15.412  19.409  0.00  0.00    +0.000 A 
ATOM     27  C   UNL     1       2.951  14.176  19.330  0.00  0.00    +0.000 A 
ENDBRANCH  11  22
TORSDOF 2
ENDMDL
MODEL 4
REMARK VINA RESULT:      -6.7      1.162      1.173
REMARK  Name = 
REMARK  3 active torsions:
REMARK  status: ('A' for Active; 'I' for Inactive)
REMARK    1  A    between atoms: C_1  and  C_2
REMARK    2  A    between atoms: C_7  and  C_8
REMARK    3  A    between atoms: C_18  and  C_19
REMARK                            x       y       z     vdW  Elec       q    Type
REMARK                         _______ _______ _______ _____ _____    ______ ____
ROOT
ATOM      1  C   UNL     1       0.385  10.492  21.080  0.00  0.00    +0.000 C 
ATOM      2  O   UNL     1       0.316  10.435  22.320  0.00  0.00    +0.000 OA
ATOM      3  N   UNL     1      -0.093  11.640  20.465  0.00  0.00    +0.000 N 
ATOM      4  C   UNL     1      -0.420  11.920  19.009  0.00  0.00    +0.000 C 
ATOM      5  C   UNL     1      -0.490  13.462  18.622  0.00  0.00    +0.000 C 
ATOM      6  C   UNL     1       0.654  14.091  19.346  0.00  0.00    +0.000 A 
ATOM      7  S   UNL     1       1.995  14.755  18.554  0.00  0.00    +0.000 S 
ATOM      8  C   UNL     1       3.024  13.886  19.615  0.00  0.00    +0.000 A 
ATOM      9  C   UNL     1       2.345  13.477  20.749  0.00  0.00    +0.000 A 
ATOM     10  C   UNL     1       0.908  13.681  20.642  0.00  0.00    +0.000 A 
ATOM     11  C   UNL     1      -0.109  12.811  21.375  0.00  0.00    +0.000 C 
ENDROOT
BRANCH   1  18
ATOM     12  C   UNL     1       3.636   4.904  17.371  0.00  0.00    +0.000 C 
ATOM     13  C   UNL     1       2.974   5.810  18.373  0.00  0.00    +0.000 A 
ATOM     14  C   UNL     1       2.599   5.186  19.646  0.00  0.00    +0.000 A 
ATOM     15  C   UNL     1       2.004   5.932  20.574  0.00  0.00    +0.000 A 
ATOM     16  N   UNL     1       1.746   7.272  20.318  0.00  0.00    +0.000 N 
ATOM     17  C   UNL     1       1.157   8.169  21.126  0.00  0.00    +0.000 A 
ATOM     18  C   UNL     1       1.043   9.359  20.418  0.00  0.00    +0.000 A 
ATOM     19  N   UNL     1       1.650   9.199  19.171  0.00  0.00    +0.000 NA
ATOM     20  C   UNL     1       2.059   7.927  19.142  0.00  0.00    +0.000 A 
ATOM     21  C   UNL     1       2.730   7.133  18.147  0.00  0.00    +0.000 A 
ENDBRANCH   1  18
BRANCH  11  22
ATOM     22  C   UNL     1      -1.535  13.354  21.471  0.00  0.00    +0.000 A 
ATOM     23  C   UNL     1      -1.686  14.730  21.810  0.00  0.00    +0.000 A 
ATOM     24  C   UNL     1      -2.895  15.261  22.210  0.00  0.00    +0.000 A 
ATOM     25  C   UNL     1      -4.030  14.460  22.224  0.00  0.00    +0.000 A 
ATOM     26  C   UNL     1      -3.939  13.148  21.746  0.00  0.00    +0.000 A 
ATOM     27  C   UNL     1      -2.711  12.605  21.346  0.00  0.00    +0.000 A 
ENDBRANCH  11  22
TORSDOF 2
ENDMDL
MODEL 5
REMARK VINA RESULT:      -6.6      0.486      1.030
REMARK  Name = 
REMARK  3 active torsions:
REMARK  status: ('A' for Active; 'I' for Inactive)
REMARK    1  A    between atoms: C_1  and  C_2
REMARK    2  A    between atoms: C_7  and  C_8
REMARK    3  A    between atoms: C_18  and  C_19
REMARK                            x       y       z     vdW  Elec       q    Type
REMARK                         _______ _______ _______ _____ _____    ______ ____
ROOT
ATOM      1  C   UNL     1       0.886   9.822  21.548  0.00  0.00    +0.000 C 
ATOM      2  O   UNL     1       1.376   9.926  22.685  0.00  0.00    +0.000 OA
ATOM      3  N   UNL     1       0.065  10.851  21.109  0.00  0.00    +0.000 N 
ATOM      4  C   UNL     1      -0.898  10.918  19.938  0.00  0.00    +0.000 C 
ATOM      5  C   UNL     1      -1.298  12.389  19.481  0.00  0.00    +0.000 C 
ATOM      6  C   UNL     1      -0.027  13.170  19.549  0.00  0.00    +0.000 A 
ATOM      7  S   UNL     1       0.748  13.796  18.180  0.00  0.00    +0.000 S 
ATOM      8  C   UNL     1       2.226  13.131  18.740  0.00  0.00    +0.000 A 
ATOM      9  C   UNL     1       2.165  12.840  20.092  0.00  0.00    +0.000 A 
ATOM     10  C   UNL     1       0.815  12.949  20.625  0.00  0.00    +0.000 A 
ATOM     11  C   UNL     1       0.325  12.129  21.815  0.00  0.00    +0.000 C 
ENDROOT
BRANCH   1  18
ATOM     12  C   UNL     1       2.939   4.075  17.269  0.00  0.00    +0.000 C 
ATOM     13  C   UNL     1       2.480   4.997  18.367  0.00  0.00    +0.000 A 
ATOM     14  C   UNL     1       2.014   4.344  19.594  0.00  0.00    +0.000 A 
ATOM     15  C   UNL     1       1.589   5.103  20.601  0.00  0.00    +0.000 A 
ATOM     16  N   UNL     1       1.589   6.484  20.469  0.00  0.00    +0.000 N 
ATOM     17  C   UNL     1       1.197   7.400  21.370  0.00  0.00    +0.000 A 
ATOM     18  C   UNL     1       1.302   8.650  20.770  0.00  0.00    +0.000 A 
ATOM     19  N   UNL     1       1.846   8.490  19.494  0.00  0.00    +0.000 NA
ATOM     20  C   UNL     1       2.002   7.171  19.343  0.00  0.00    +0.000 A 
ATOM     21  C   UNL     1       2.491   6.357  18.262  0.00  0.00    +0.000 A 
ENDBRANCH   1  18
BRANCH  11  22
ATOM     22  C   UNL     1      -0.963  12.602  22.491  0.00  0.00    +0.000 A 
ATOM     23  C   UNL     1      -1.792  11.605  23.081  0.00  0.00    +0.000 A 
ATOM     24  C   UNL     1      -3.096  11.859  23.454  0.00  0.00    +0.000 A 
ATOM     25  C   UNL     1      -3.614  13.141  23.322  0.00  0.00    +0.000 A 
ATOM     26  C   UNL     1      -2.771  14.172  22.893  0.00  0.00    +0.000 A 
ATOM     27  C   UNL     1      -1.449  13.915  22.507  0.00  0.00    +0.000 A 
ENDBRANCH  11  22
TORSDOF 2
ENDMDL
MODEL 6
REMARK VINA RESULT:      -6.5      2.410      4.017
REMARK  Name = 
REMARK  3 active torsions:
REMARK  status: ('A' for Active; 'I' for Inactive)
REMARK    1  A    between atoms: C_1  and  C_2
REMARK    2  A    between atoms: C_7  and  C_8
REMARK    3  A    between atoms: C_18  and  C_19
REMARK                            x       y       z     vdW  Elec       q    Type
REMARK                         _______ _______ _______ _____ _____    ______ ____
ROOT
ATOM      1  C   UNL     1       1.577  10.600  18.667  0.00  0.00    +0.000 C 
ATOM      2  O   UNL     1       2.225  10.930  17.660  0.00  0.00    +0.000 OA
ATOM      3  N   UNL     1       0.766  11.563  19.250  0.00  0.00    +0.000 N 
ATOM      4  C   UNL     1       0.084  11.595  20.606  0.00  0.00    +0.000 C 
ATOM      5  C   UNL     1      -1.122  12.627  20.727  0.00  0.00    +0.000 C 
ATOM      6  C   UNL     1      -1.861  12.505  19.435  0.00  0.00    +0.000 A 
ATOM      7  S   UNL     1      -3.431  11.881  19.325  0.00  0.00    +0.000 S 
ATOM      8  C   UNL     1      -2.914  10.867  18.043  0.00  0.00    +0.000 A 
ATOM      9  C   UNL     1      -1.732  11.324  17.487  0.00  0.00    +0.000 A 
ATOM     10  C   UNL     1      -1.122  12.387  18.272  0.00  0.00    +0.000 A 
ATOM     11  C   UNL     1       0.383  12.637  18.301  0.00  0.00    +0.000 C 
ENDROOT
BRANCH   1  18
ATOM     12  C   UNL     1       2.176   3.585  21.115  0.00  0.00    +0.000 C 
ATOM     13  C   UNL     1       2.150   4.867  20.327  0.00  0.00    +0.000 A 
ATOM     14  C   UNL     1       2.661   4.782  18.955  0.00  0.00    +0.000 A 
ATOM     15  C   UNL     1       2.670   5.882  18.207  0.00  0.00    +0.000 A 
ATOM     16  N   UNL     1       2.209   7.079  18.737  0.00  0.00    +0.000 N 
ATOM     17  C   UNL     1       2.146   8.279  18.135  0.00  0.00    +0.000 A 
ATOM     18  C   UNL     1       1.690   9.195  19.076  0.00  0.00    +0.000 A 
ATOM     19  N   UNL     1       1.394   8.513  20.258  0.00  0.00    +0.000 NA
ATOM     20  C   UNL     1       1.724   7.240  20.020  0.00  0.00    +0.000 A 
ATOM     21  C   UNL     1       1.682   6.048  20.825  0.00  0.00    +0.000 A 
ENDBRANCH   1  18
BRANCH  11  22
ATOM     22  C   UNL     1       0.845  13.986  18.854  0.00  0.00    +0.000 A 
ATOM     23  C   UNL     1       2.086  14.012  19.552  0.00  0.00    +0.000 A 
ATOM     24  C   UNL     1       2.466  15.081  20.339  0.00  0.00    +0.000 A 
ATOM     25  C   UNL     1       1.656  16.207  20.410  0.00  0.00    +0.000 A 
ATOM     26  C   UNL     1       0.509  16.268  19.611  0.00  0.00    +0.000 A 
ATOM     27  C   UNL     1       0.118  15.182  18.818  0.00  0.00    +0.000 A 
ENDBRANCH  11  22
TORSDOF 2
ENDMDL
MODEL 7
REMARK VINA RESULT:      -6.4      1.321      2.166
REMARK  Name = 
REMARK  3 active torsions:
REMARK  status: ('A' for Active; 'I' for Inactive)
REMARK    1  A    between atoms: C_1  and  C_2
REMARK    2  A    between atoms: C_7  and  C_8
REMARK    3  A    between atoms: C_18  and  C_19
REMARK                            x       y       z     vdW  Elec       q    Type
REMARK                         _______ _______ _______ _____ _____    ______ ____
ROOT
ATOM      1  C   UNL     1      -0.126  10.916  22.041  0.00  0.00    +0.000 C 
ATOM      2  O   UNL     1       0.022  10.772  23.267  0.00  0.00    +0.000 OA
ATOM      3  N   UNL     1      -0.833  12.029  21.609  0.00  0.00    +0.000 N 
ATOM      4  C   UNL     1      -1.432  12.356  20.253  0.00  0.00    +0.000 C 
ATOM      5  C   UNL     1      -1.748  13.897  20.012  0.00  0.00    +0.000 C 
ATOM      6  C   UNL     1      -0.580  14.622  20.595  0.00  0.00    +0.000 A 
ATOM      7  S   UNL     1       0.521  15.505  19.658  0.00  0.00    +0.000 S 
ATOM      8  C   UNL     1       1.809  14.711  20.464  0.00  0.00    +0.000 A 
ATOM      9  C   UNL     1       1.384  14.146  21.655  0.00  0.00    +0.000 A 
ATOM     10  C   UNL     1      -0.064  14.167  21.795  0.00  0.00    +0.000 A 
ATOM     11  C   UNL     1      -0.833  13.127  22.605  0.00  0.00    +0.000 C 
ENDROOT
BRANCH   1  18
ATOM     12  C   UNL     1       3.402   5.709  18.041  0.00  0.00    +0.000 C 
ATOM     13  C   UNL     1       2.684   6.928  18.556  0.00  0.00    +0.000 A 
ATOM     14  C   UNL     1       2.562   8.043  17.611  0.00  0.00    +0.000 A 
ATOM     15  C   UNL     1       1.943   9.152  18.007  0.00  0.00    +0.000 A 
ATOM     16  N   UNL     1       1.435   9.234  19.296  0.00  0.00    +0.000 N 
ATOM     17  C   UNL     1       0.789  10.265  19.866  0.00  0.00    +0.000 A 
ATOM     18  C   UNL     1       0.540   9.923  21.190  0.00  0.00    +0.000 A 
ATOM     19  N   UNL     1       0.981   8.616  21.406  0.00  0.00    +0.000 NA
ATOM     20  C   UNL     1       1.521   8.233  20.245  0.00  0.00    +0.000 A 
ATOM     21  C   UNL     1       2.162   7.019  19.813  0.00  0.00    +0.000 A 
ENDBRANCH   1  18
BRANCH  11  22
ATOM     22  C   UNL     1      -2.277  13.473  22.973  0.00  0.00    +0.000 A 
ATOM     23  C   UNL     1      -3.226  12.411  22.953  0.00  0.00    +0.000 A 
ATOM     24  C   UNL     1      -4.587  12.639  22.975  0.00  0.00    +0.000 A 
ATOM     25  C   UNL     1      -5.067  13.937  23.089  0.00  0.00    +0.000 A 
ATOM     26  C   UNL     1      -4.155  14.984  23.267  0.00  0.00    +0.000 A 
ATOM     27  C   UNL     1      -2.773  14.755  23.238  0.00  0.00    +0.000 A 
ENDBRANCH  11  22
TORSDOF 2
ENDMDL
MODEL 8
REMARK VINA RESULT:      -6.4      0.926      1.709
REMARK  Name = 
REMARK  3 active torsions:
REMARK  status: ('A' for Active; 'I' for Inactive)
REMARK    1  A    between atoms: C_1  and  C_2
REMARK    2  A    between atoms: C_7  and  C_8
REMARK    3  A    between atoms: C_18  and  C_19
REMARK                            x       y       z     vdW  Elec       q    Type
REMARK                         _______ _______ _______ _____ _____    ______ ____
ROOT
ATOM      1  C   UNL     1       0.226  10.368  21.826  0.00  0.00    +0.000 C 
ATOM      2  O   UNL     1       0.377  10.393  23.059  0.00  0.00    +0.000 OA
ATOM      3  N   UNL     1      -0.399  11.457  21.236  0.00  0.00    +0.000 N 
ATOM      4  C   UNL     1      -0.987  11.629  19.847  0.00  0.00    +0.000 C 
ATOM      5  C   UNL     1      -1.187  13.139  19.384  0.00  0.00    +0.000 C 
ATOM      6  C   UNL     1       0.040  13.848  19.854  0.00  0.00    +0.000 A 
ATOM      7  S   UNL     1       1.194  14.496  18.797  0.00  0.00    +0.000 S 
ATOM      8  C   UNL     1       2.427  13.731  19.710  0.00  0.00    +0.000 A 
ATOM      9  C   UNL     1       1.975  13.380  20.970  0.00  0.00    +0.000 A 
ATOM     10  C   UNL     1       0.534  13.534  21.107  0.00  0.00    +0.000 A 
ATOM     11  C   UNL     1      -0.303  12.686  22.061  0.00  0.00    +0.000 C 
ENDROOT
BRANCH   1  18
ATOM     12  C   UNL     1       3.221   4.336  18.633  0.00  0.00    +0.000 C 
ATOM     13  C   UNL     1       2.685   5.699  18.981  0.00  0.00    +0.000 A 
ATOM     14  C   UNL     1       2.919   6.749  17.985  0.00  0.00    +0.000 A 
ATOM     15  C   UNL     1       2.475   7.978  18.235  0.00  0.00    +0.000 A 
ATOM     16  N   UNL     1       1.812   8.241  19.426  0.00  0.00    +0.000 N 
ATOM     17  C   UNL     1       1.302   9.411  19.846  0.00  0.00    +0.000 A 
ATOM     18  C   UNL     1       0.803   9.213  21.128  0.00  0.00    +0.000 A 
ATOM     19  N   UNL     1       0.947   7.865  21.462  0.00  0.00    +0.000 NA
ATOM     20  C   UNL     1       1.564   7.309  20.415  0.00  0.00    +0.000 A 
ATOM     21  C   UNL     1       2.015   5.971  20.137  0.00  0.00    +0.000 A 
ENDBRANCH   1  18
BRANCH  11  22
ATOM     22  C   UNL     1      -1.712  13.193  22.375  0.00  0.00    +0.000 A 
ATOM     23  C   UNL     1      -2.710  12.214  22.645  0.00  0.00    +0.000 A 
ATOM     24  C   UNL     1      -4.057  12.518  22.651  0.00  0.00    +0.000 A 
ATOM     25  C   UNL     1      -4.468  13.830  22.457  0.00  0.00    +0.000 A 
ATOM     26  C   UNL     1      -3.501  14.835  22.345  0.00  0.00    +0.000 A 
ATOM     27  C   UNL     1      -2.134  14.527  22.332  0.00  0.00    +0.000 A 
ENDBRANCH  11  22
TORSDOF 2
ENDMDL
MODEL 9
REMARK VINA RESULT:      -6.4      2.426      4.119
REMARK  Name = 
REMARK  3 active torsions:
REMARK  status: ('A' for Active; 'I' for Inactive)
REMARK    1  A    between atoms: C_1  and  C_2
REMARK    2  A    between atoms: C_7  and  C_8
REMARK    3  A    between atoms: C_18  and  C_19
REMARK                            x       y       z     vdW  Elec       q    Type
REMARK                         _______ _______ _______ _____ _____    ______ ____
ROOT
ATOM      1  C   UNL     1      -0.334  12.974  21.742  0.00  0.00    +0.000 C 
ATOM      2  O   UNL     1       0.269  13.990  21.357  0.00  0.00    +0.000 OA
ATOM      3  N   UNL     1      -1.469  13.160  22.517  0.00  0.00    +0.000 N 
ATOM      4  C   UNL     1      -2.257  12.181  23.369  0.00  0.00    +0.000 C 
ATOM      5  C   UNL     1      -3.740  12.641  23.722  0.00  0.00    +0.000 C 
ATOM      6  C   UNL     1      -4.263  13.244  22.461  0.00  0.00    +0.000 A 
ATOM      7  S   UNL     1      -5.525  12.559  21.563  0.00  0.00    +0.000 S 
ATOM      8  C   UNL     1      -4.579  12.732  20.143  0.00  0.00    +0.000 A 
ATOM      9  C   UNL     1      -3.560  13.651  20.328  0.00  0.00    +0.000 A 
ATOM     10  C   UNL     1      -3.413  14.047  21.721  0.00  0.00    +0.000 A 
ATOM     11  C   UNL     1      -2.083  14.495  22.319  0.00  0.00    +0.000 C 
ENDROOT
BRANCH   1  18
ATOM     12  C   UNL     1       2.457   6.387  19.649  0.00  0.00    +0.000 C 
ATOM     13  C   UNL     1       1.901   7.783  19.741  0.00  0.00    +0.000 A 
ATOM     14  C   UNL     1       1.891   8.548  18.490  0.00  0.00    +0.000 A 
ATOM     15  C   UNL     1       1.416   9.792  18.505  0.00  0.00    +0.000 A 
ATOM     16  N   UNL     1       0.953  10.337  19.694  0.00  0.00    +0.000 N 
ATOM     17  C   UNL     1       0.446  11.565  19.898  0.00  0.00    +0.000 A 
ATOM     18  C   UNL     1       0.189  11.691  21.258  0.00  0.00    +0.000 A 
ATOM     19  N   UNL     1       0.477  10.476  21.883  0.00  0.00    +0.000 NA
ATOM     20  C   UNL     1       0.940   9.684  20.912  0.00  0.00    +0.000 A 
ATOM     21  C   UNL     1       1.424   8.328  20.896  0.00  0.00    +0.000 A 
ENDBRANCH   1  18
BRANCH  11  22
ATOM     22  C   UNL     1      -2.145  15.225  23.662  0.00  0.00    +0.000 A 
ATOM     23  C   UNL     1      -3.127  16.247  23.802  0.00  0.00    +0.000 A 
ATOM     24  C   UNL     1      -3.094  17.162  24.835  0.00  0.00    +0.000 A 
ATOM     25  C   UNL     1      -2.119  17.058  25.819  0.00  0.00    +0.000 A 
ATOM     26  C   UNL     1      -1.239  15.970  25.788  0.00  0.00    +0.000 A 
ATOM     27  C   UNL     1      -1.267  15.044  24.737  0.00  0.00    +0.000 A 
ENDBRANCH  11  22
TORSDOF 2
ENDMDL
