MODEL 1
REMARK VINA RESULT:      -8.9      0.000      0.000
REMARK  Name = 
REMARK  6 active torsions:
REMARK  status: ('A' for Active; 'I' for Inactive)
REMARK    1  A    between atoms: C_1  and  C_2
REMARK    2  A    between atoms: C_2  and  N_3
REMARK    3  A    between atoms: C_7  and  C_8
REMARK    4  A    between atoms: C_12  and  N_13
REMARK    5  A    between atoms: C_14  and  C_16
REMARK    6  A    between atoms: C_25  and  C_26
REMARK                            x       y       z     vdW  Elec       q    Type
REMARK                         _______ _______ _______ _____ _____    ______ ____
ROOT
ATOM      1  N   UNL     1       1.898   6.880  20.373  0.00  0.00    +0.000 N 
ATOM      2  C   UNL     1       1.767   7.964  19.523  0.00  0.00    +0.000 C 
ATOM      3  O   UNL     1       2.152   8.009  18.359  0.00  0.00    +0.000 OA
ATOM      4  H   UNL     1       1.338   6.873  21.215  0.00  0.00    +0.000 HD
ENDROOT
BRANCH   2   5
ATOM      5  C   UNL     1       1.056   9.163  20.036  0.00  0.00    +0.000 A 
ATOM      6  C   UNL     1       0.813  10.308  19.263  0.00  0.00    +0.000 A 
ATOM      7  C   UNL     1       0.080  11.381  19.797  0.00  0.00    +0.000 A 
ATOM      8  C   UNL     1      -0.419  11.278  21.087  0.00  0.00    +0.000 A 
ATOM      9  C   UNL     1      -0.212  10.123  21.836  0.00  0.00    +0.000 A 
ATOM     10  C   UNL     1       0.539   9.074  21.340  0.00  0.00    +0.000 A 
ATOM     11  C   UNL     1      -0.886  10.188  23.164  0.00  0.00    +0.000 C 
ATOM     12  C   UNL     1      -1.544  11.569  23.115  0.00  0.00    +0.000 C 
ATOM     13  N   UNL     1      -1.151  12.210  21.845  0.00  0.00    +0.000 N 
ATOM     14  C   UNL     1      -1.396  13.521  21.486  0.00  0.00    +0.000 C 
ATOM     15  C   UNL     1      -2.084  14.374  22.526  0.00  0.00    +0.000 C 
ATOM     16  O   UNL     1      -1.042  14.038  20.426  0.00  0.00    +0.000 OA
ENDBRANCH   2   5
BRANCH   1  21
ATOM     17  C   UNL     1       4.561   4.629  19.062  0.00  0.00    +0.000 A 
ATOM     18  C   UNL     1       4.062   3.379  19.459  0.00  0.00    +0.000 A 
ATOM     19  C   UNL     1       2.827   3.271  20.088  0.00  0.00    +0.000 A 
ATOM     20  C   UNL     1       2.087   4.420  20.355  0.00  0.00    +0.000 A 
ATOM     21  C   UNL     1       2.591   5.687  20.048  0.00  0.00    +0.000 A 
ATOM     22  C   UNL     1       3.825   5.784  19.392  0.00  0.00    +0.000 A 
BRANCH  17  27
ATOM     23  N   UNL     1       6.038   4.570  16.973  0.00  0.00    +0.000 N 
ATOM     24  C   UNL     1       7.390   4.515  16.797  0.00  0.00    +0.000 A 
ATOM     25  N   UNL     1       7.995   4.568  17.957  0.00  0.00    +0.000 NA
ATOM     26  N   UNL     1       7.023   4.646  18.919  0.00  0.00    +0.000 NA
ATOM     27  C   UNL     1       5.835   4.652  18.336  0.00  0.00    +0.000 A 
BRANCH  23  29
ATOM     28  C   UNL     1       5.553   4.273  14.518  0.00  0.00    +0.000 C 
ATOM     29  C   UNL     1       5.042   4.553  15.924  0.00  0.00    +0.000 C 
ENDBRANCH  23  29
ENDBRANCH  17  27
ENDBRANCH   1  21
TORSDOF 4
ENDMDL
MODEL 2
REMARK VINA RESULT:      -8.9      1.814      2.422
REMARK  Name = 
REMARK  6 active torsions:
REMARK  status: ('A' for Active; 'I' for Inactive)
REMARK    1  A    between atoms: C_1  and  C_2
REMARK    2  A    between atoms: C_2  and  N_3
REMARK    3  A    between atoms: C_7  and  C_8
REMARK    4  A    between atoms: C_12  and  N_13
REMARK    5  A    between atoms: C_14  and  C_16
REMARK    6  A    between atoms: C_25  and  C_26
REMARK                            x       y       z     vdW  Elec       q    Type
REMARK                         _______ _______ _______ _____ _____    ______ ____
ROOT
ATOM      1  N   UNL     1       2.901   6.852  18.209  0.00  0.00    +0.000 N 
ATOM      2  C   UNL     1       2.387   6.885  19.494  0.00  0.00    +0.000 C 
ATOM      3  O   UNL     1       2.507   5.999  20.334  0.00  0.00    +0.000 OA
ATOM      4  H   UNL     1       2.945   7.723  17.699  0.00  0.00    +0.000 HD
ENDROOT
BRANCH   2   5
ATOM      5  C   UNL     1       1.670   8.114  19.920  0.00  0.00    +0.000 A 
ATOM      6  C   UNL     1       1.375   9.177  19.054  0.00  0.00    +0.000 A 
ATOM      7  C   UNL     1       0.639  10.282  19.515  0.00  0.00    +0.000 A 
ATOM      8  C   UNL     1       0.190  10.291  20.827  0.00  0.00    +0.000 A 
ATOM      9  C   UNL     1       0.449   9.215  21.671  0.00  0.00    +0.000 A 
ATOM     10  C   UNL     1       1.204   8.138  21.246  0.00  0.00    +0.000 A 
ATOM     11  C   UNL     1      -0.177   9.392  23.013  0.00  0.00    +0.000 C 
ATOM     12  C   UNL     1      -0.865  10.751  22.861  0.00  0.00    +0.000 C 
ATOM     13  N   UNL     1      -0.533  11.277  21.523  0.00  0.00    +0.000 N 
ATOM     14  C   UNL     1      -0.819  12.544  21.054  0.00  0.00    +0.000 C 
ATOM     15  C   UNL     1      -1.487  13.478  22.036  0.00  0.00    +0.000 C 
ATOM     16  O   UNL     1      -0.515  12.966  19.938  0.00  0.00    +0.000 OA
ENDBRANCH   2   5
BRANCH   1  21
ATOM     17  C   UNL     1       5.246   4.888  16.084  0.00  0.00    +0.000 A 
ATOM     18  C   UNL     1       4.984   3.588  16.542  0.00  0.00    +0.000 A 
ATOM     19  C   UNL     1       3.994   3.352  17.489  0.00  0.00    +0.000 A 
ATOM     20  C   UNL     1       3.273   4.421  18.013  0.00  0.00    +0.000 A 
ATOM     21  C   UNL     1       3.564   5.736  17.641  0.00  0.00    +0.000 A 
ATOM     22  C   UNL     1       4.546   5.962  16.667  0.00  0.00    +0.000 A 
BRANCH  17  27
ATOM     23  N   UNL     1       6.254   4.487  13.765  0.00  0.00    +0.000 N 
ATOM     24  C   UNL     1       7.448   4.831  13.203  0.00  0.00    +0.000 A 
ATOM     25  N   UNL     1       8.144   5.558  14.041  0.00  0.00    +0.000 NA
ATOM     26  N   UNL     1       7.400   5.685  15.184  0.00  0.00    +0.000 NA
ATOM     27  C   UNL     1       6.251   5.045  15.028  0.00  0.00    +0.000 A 
BRANCH  23  29
ATOM     28  C   UNL     1       5.617   2.922  11.895  0.00  0.00    +0.000 C 
ATOM     29  C   UNL     1       5.213   3.702  13.138  0.00  0.00    +0.000 C 
ENDBRANCH  23  29
ENDBRANCH  17  27
ENDBRANCH   1  21
TORSDOF 4
ENDMDL
MODEL 3
REMARK VINA RESULT:      -8.8      5.960      7.785
REMARK  Name = 
REMARK  6 active torsions:
REMARK  status: ('A' for Active; 'I' for Inactive)
REMARK    1  A    between atoms: C_1  and  C_2
REMARK    2  A    between atoms: C_2  and  N_3
REMARK    3  A    between atoms: C_7  and  C_8
REMARK    4  A    between atoms: C_12  and  N_13
REMARK    5  A    between atoms: C_14  and  C_16
REMARK    6  A    between atoms: C_25  and  C_26
REMARK                            x       y       z     vdW  Elec       q    Type
REMARK                         _______ _______ _______ _____ _____    ______ ____
ROOT
ATOM      1  N   UNL     1       7.290   7.842  17.127  0.00  0.00    +0.000 N 
ATOM      2  C   UNL     1       8.135   8.167  18.174  0.00  0.00    +0.000 C 
ATOM      3  O   UNL     1       8.621   7.372  18.972  0.00  0.00    +0.000 OA
ATOM      4  H   UNL     1       7.151   8.535  16.405  0.00  0.00    +0.000 HD
ENDROOT
BRANCH   2   5
ATOM      5  C   UNL     1       8.536   9.590  18.323  0.00  0.00    +0.000 A 
ATOM      6  C   UNL     1       8.050  10.620  17.505  0.00  0.00    +0.000 A 
ATOM      7  C   UNL     1       8.427  11.951  17.745  0.00  0.00    +0.000 A 
ATOM      8  C   UNL     1       9.265  12.231  18.815  0.00  0.00    +0.000 A 
ATOM      9  C   UNL     1       9.712  11.211  19.649  0.00  0.00    +0.000 A 
ATOM     10  C   UNL     1       9.381   9.891  19.405  0.00  0.00    +0.000 A 
ATOM     11  C   UNL     1      10.542  11.729  20.774  0.00  0.00    +0.000 C 
ATOM     12  C   UNL     1      10.535  13.235  20.499  0.00  0.00    +0.000 C 
ATOM     13  N   UNL     1       9.798  13.461  19.241  0.00  0.00    +0.000 N 
ATOM     14  C   UNL     1       9.703  14.658  18.559  0.00  0.00    +0.000 C 
ATOM     15  C   UNL     1      10.477  15.816  19.143  0.00  0.00    +0.000 C 
ATOM     16  O   UNL     1       9.096  14.816  17.499  0.00  0.00    +0.000 OA
ENDBRANCH   2   5
BRANCH   1  21
ATOM     17  C   UNL     1       5.361   4.694  17.617  0.00  0.00    +0.000 A 
ATOM     18  C   UNL     1       5.659   4.018  16.425  0.00  0.00    +0.000 A 
ATOM     19  C   UNL     1       6.545   4.561  15.501  0.00  0.00    +0.000 A 
ATOM     20  C   UNL     1       7.120   5.805  15.746  0.00  0.00    +0.000 A 
ATOM     21  C   UNL     1       6.781   6.542  16.884  0.00  0.00    +0.000 A 
ATOM     22  C   UNL     1       5.907   5.975  17.822  0.00  0.00    +0.000 A 
BRANCH  17  27
ATOM     23  N   UNL     1       3.129   4.230  18.783  0.00  0.00    +0.000 N 
ATOM     24  C   UNL     1       2.787   3.453  19.852  0.00  0.00    +0.000 A 
ATOM     25  N   UNL     1       3.835   2.796  20.281  0.00  0.00    +0.000 NA
ATOM     26  N   UNL     1       4.893   3.156  19.489  0.00  0.00    +0.000 NA
ATOM     27  C   UNL     1       4.478   4.020  18.576  0.00  0.00    +0.000 A 
BRANCH  23  29
ATOM     28  C   UNL     1       2.320   6.574  18.333  0.00  0.00    +0.000 C 
ATOM     29  C   UNL     1       2.236   5.085  18.032  0.00  0.00    +0.000 C 
ENDBRANCH  23  29
ENDBRANCH  17  27
ENDBRANCH   1  21
TORSDOF 4
ENDMDL
MODEL 4
REMARK VINA RESULT:      -8.7      5.988      7.905
REMARK  Name = 
REMARK  6 active torsions:
REMARK  status: ('A' for Active; 'I' for Inactive)
REMARK    1  A    between atoms: C_1  and  C_2
REMARK    2  A    between atoms: C_2  and  N_3
REMARK    3  A    between atoms: C_7  and  C_8
REMARK    4  A    between atoms: C_12  and  N_13
REMARK    5  A    between atoms: C_14  and  C_16
REMARK    6  A    between atoms: C_25  and  C_26
REMARK                            x       y       z     vdW  Elec       q    Type
REMARK                         _______ _______ _______ _____ _____    ______ ____
ROOT
ATOM      1  N   UNL     1       7.191   7.920  17.073  0.00  0.00    +0.000 N 
ATOM      2  C   UNL     1       8.068   8.204  18.106  0.00  0.00    +0.000 C 
ATOM      3  O   UNL     1       8.563   7.380  18.868  0.00  0.00    +0.000 OA
ATOM      4  H   UNL     1       7.043   8.635  16.374  0.00  0.00    +0.000 HD
ENDROOT
BRANCH   2   5
ATOM      5  C   UNL     1       8.494   9.616  18.284  0.00  0.00    +0.000 A 
ATOM      6  C   UNL     1       8.039  10.668  17.475  0.00  0.00    +0.000 A 
ATOM      7  C   UNL     1       8.439  11.988  17.741  0.00  0.00    +0.000 A 
ATOM      8  C   UNL     1       9.266  12.234  18.828  0.00  0.00    +0.000 A 
ATOM      9  C   UNL     1       9.680  11.193  19.652  0.00  0.00    +0.000 A 
ATOM     10  C   UNL     1       9.328   9.883  19.382  0.00  0.00    +0.000 A 
ATOM     11  C   UNL     1      10.503  11.677  20.797  0.00  0.00    +0.000 C 
ATOM     12  C   UNL     1      10.529  13.187  20.547  0.00  0.00    +0.000 C 
ATOM     13  N   UNL     1       9.816  13.447  19.282  0.00  0.00    +0.000 N 
ATOM     14  C   UNL     1       9.754  14.656  18.617  0.00  0.00    +0.000 C 
ATOM     15  C   UNL     1      10.541  15.790  19.231  0.00  0.00    +0.000 C 
ATOM     16  O   UNL     1       9.166  14.843  17.551  0.00  0.00    +0.000 OA
ENDBRANCH   2   5
BRANCH   1  21
ATOM     17  C   UNL     1       4.767   5.094  16.974  0.00  0.00    +0.000 A 
ATOM     18  C   UNL     1       5.497   4.152  16.234  0.00  0.00    +0.000 A 
ATOM     19  C   UNL     1       6.802   4.416  15.834  0.00  0.00    +0.000 A 
ATOM     20  C   UNL     1       7.383   5.642  16.144  0.00  0.00    +0.000 A 
ATOM     21  C   UNL     1       6.656   6.635  16.807  0.00  0.00    +0.000 A 
ATOM     22  C   UNL     1       5.350   6.350  17.229  0.00  0.00    +0.000 A 
BRANCH  17  27
ATOM     23  N   UNL     1       2.594   5.386  18.295  0.00  0.00    +0.000 N 
ATOM     24  C   UNL     1       1.513   4.576  18.489  0.00  0.00    +0.000 A 
ATOM     25  N   UNL     1       1.645   3.478  17.790  0.00  0.00    +0.000 NA
ATOM     26  N   UNL     1       2.843   3.557  17.130  0.00  0.00    +0.000 NA
ATOM     27  C   UNL     1       3.425   4.710  17.424  0.00  0.00    +0.000 A 
BRANCH  23  29
ATOM     28  C   UNL     1       2.236   7.874  18.111  0.00  0.00    +0.000 C 
ATOM     29  C   UNL     1       2.797   6.690  18.886  0.00  0.00    +0.000 C 
ENDBRANCH  23  29
ENDBRANCH  17  27
ENDBRANCH   1  21
TORSDOF 4
ENDMDL
MODEL 5
REMARK VINA RESULT:      -8.7      1.400      2.011
REMARK  Name = 
REMARK  6 active torsions:
REMARK  status: ('A' for Active; 'I' for Inactive)
REMARK    1  A    between atoms: C_1  and  C_2
REMARK    2  A    between atoms: C_2  and  N_3
REMARK    3  A    between atoms: C_7  and  C_8
REMARK    4  A    between atoms: C_12  and  N_13
REMARK    5  A    between atoms: C_14  and  C_16
REMARK    6  A    between atoms: C_25  and  C_26
REMARK                            x       y       z     vdW  Elec       q    Type
REMARK                         _______ _______ _______ _____ _____    ______ ____
ROOT
ATOM      1  N   UNL     1       2.047   6.369  19.133  0.00  0.00    +0.000 N 
ATOM      2  C   UNL     1       2.224   7.665  18.682  0.00  0.00    +0.000 C 
ATOM      3  O   UNL     1       2.831   7.991  17.667  0.00  0.00    +0.000 OA
ATOM      4  H   UNL     1       1.338   6.209  19.836  0.00  0.00    +0.000 HD
ENDROOT
BRANCH   2   5
ATOM      5  C   UNL     1       1.586   8.760  19.457  0.00  0.00    +0.000 A 
ATOM      6  C   UNL     1       1.322  10.031  18.925  0.00  0.00    +0.000 A 
ATOM      7  C   UNL     1       0.659  10.998  19.699  0.00  0.00    +0.000 A 
ATOM      8  C   UNL     1       0.251  10.667  20.983  0.00  0.00    +0.000 A 
ATOM      9  C   UNL     1       0.478   9.392  21.492  0.00  0.00    +0.000 A 
ATOM     10  C   UNL     1       1.161   8.440  20.757  0.00  0.00    +0.000 A 
ATOM     11  C   UNL     1      -0.098   9.222  22.856  0.00  0.00    +0.000 C 
ATOM     12  C   UNL     1      -0.718  10.599  23.108  0.00  0.00    +0.000 C 
ATOM     13  N   UNL     1      -0.398  11.456  21.950  0.00  0.00    +0.000 N 
ATOM     14  C   UNL     1      -0.631  12.814  21.856  0.00  0.00    +0.000 C 
ATOM     15  C   UNL     1      -1.219  13.471  23.082  0.00  0.00    +0.000 C 
ATOM     16  O   UNL     1      -0.339  13.511  20.884  0.00  0.00    +0.000 OA
ENDBRANCH   2   5
BRANCH   1  21
ATOM     17  C   UNL     1       4.346   4.298  17.059  0.00  0.00    +0.000 A 
ATOM     18  C   UNL     1       3.900   3.008  17.387  0.00  0.00    +0.000 A 
ATOM     19  C   UNL     1       2.806   2.824  18.225  0.00  0.00    +0.000 A 
ATOM     20  C   UNL     1       2.163   3.930  18.772  0.00  0.00    +0.000 A 
ATOM     21  C   UNL     1       2.632   5.226  18.534  0.00  0.00    +0.000 A 
ATOM     22  C   UNL     1       3.719   5.402  17.667  0.00  0.00    +0.000 A 
BRANCH  17  27
ATOM     23  N   UNL     1       6.793   4.619  16.381  0.00  0.00    +0.000 N 
ATOM     24  C   UNL     1       7.407   4.766  15.171  0.00  0.00    +0.000 A 
ATOM     25  N   UNL     1       6.529   4.649  14.207  0.00  0.00    +0.000 NA
ATOM     26  N   UNL     1       5.309   4.434  14.792  0.00  0.00    +0.000 NA
ATOM     27  C   UNL     1       5.456   4.410  16.108  0.00  0.00    +0.000 A 
BRANCH  23  29
ATOM     28  C   UNL     1       7.565   6.045  18.311  0.00  0.00    +0.000 C 
ATOM     29  C   UNL     1       7.440   4.668  17.674  0.00  0.00    +0.000 C 
ENDBRANCH  23  29
ENDBRANCH  17  27
ENDBRANCH   1  21
TORSDOF 4
ENDMDL
MODEL 6
REMARK VINA RESULT:      -8.7      1.286      1.336
REMARK  Name = 
REMARK  6 active torsions:
REMARK  status: ('A' for Active; 'I' for Inactive)
REMARK    1  A    between atoms: C_1  and  C_2
REMARK    2  A    between atoms: C_2  and  N_3
REMARK    3  A    between atoms: C_7  and  C_8
REMARK    4  A    between atoms: C_12  and  N_13
REMARK    5  A    between atoms: C_14  and  C_16
REMARK    6  A    between atoms: C_25  and  C_26
REMARK                            x       y       z     vdW  Elec       q    Type
REMARK                         _______ _______ _______ _____ _____    ______ ____
ROOT
ATOM      1  N   UNL     1       1.841   6.948  19.036  0.00  0.00    +0.000 N 
ATOM      2  C   UNL     1       1.880   8.239  18.537  0.00  0.00    +0.000 C 
ATOM      3  O   UNL     1       2.304   8.565  17.433  0.00  0.00    +0.000 OA
ATOM      4  H   UNL     1       1.260   6.775  19.845  0.00  0.00    +0.000 HD
ENDROOT
BRANCH   2   5
ATOM      5  C   UNL     1       1.318   9.324  19.382  0.00  0.00    +0.000 A 
ATOM      6  C   UNL     1       1.210  10.657  18.958  0.00  0.00    +0.000 A 
ATOM      7  C   UNL     1       0.612  11.617  19.790  0.00  0.00    +0.000 A 
ATOM      8  C   UNL     1       0.109  11.222  21.021  0.00  0.00    +0.000 A 
ATOM      9  C   UNL     1       0.181   9.891  21.420  0.00  0.00    +0.000 A 
ATOM     10  C   UNL     1       0.801   8.939  20.630  0.00  0.00    +0.000 A 
ATOM     11  C   UNL     1      -0.475   9.665  22.740  0.00  0.00    +0.000 C 
ATOM     12  C   UNL     1      -0.965  11.072  23.091  0.00  0.00    +0.000 C 
ATOM     13  N   UNL     1      -0.504  11.987  22.029  0.00  0.00    +0.000 N 
ATOM     14  C   UNL     1      -0.594  13.365  22.049  0.00  0.00    +0.000 C 
ATOM     15  C   UNL     1      -1.172  13.973  23.306  0.00  0.00    +0.000 C 
ATOM     16  O   UNL     1      -0.186  14.109  21.157  0.00  0.00    +0.000 OA
ENDBRANCH   2   5
BRANCH   1  21
ATOM     17  C   UNL     1       4.325   4.721  17.379  0.00  0.00    +0.000 A 
ATOM     18  C   UNL     1       3.538   3.582  17.148  0.00  0.00    +0.000 A 
ATOM     19  C   UNL     1       2.186   3.573  17.469  0.00  0.00    +0.000 A 
ATOM     20  C   UNL     1       1.609   4.697  18.054  0.00  0.00    +0.000 A 
ATOM     21  C   UNL     1       2.380   5.818  18.373  0.00  0.00    +0.000 A 
ATOM     22  C   UNL     1       3.738   5.826  18.023  0.00  0.00    +0.000 A 
BRANCH  17  27
ATOM     23  N   UNL     1       6.211   4.540  15.658  0.00  0.00    +0.000 N 
ATOM     24  C   UNL     1       7.567   4.439  15.778  0.00  0.00    +0.000 A 
ATOM     25  N   UNL     1       7.912   4.515  17.039  0.00  0.00    +0.000 NA
ATOM     26  N   UNL     1       6.760   4.657  17.767  0.00  0.00    +0.000 NA
ATOM     27  C   UNL     1       5.725   4.678  16.943  0.00  0.00    +0.000 A 
BRANCH  23  29
ATOM     28  C   UNL     1       6.081   3.724  13.277  0.00  0.00    +0.000 C 
ATOM     29  C   UNL     1       5.462   4.516  14.421  0.00  0.00    +0.000 C 
ENDBRANCH  23  29
ENDBRANCH  17  27
ENDBRANCH   1  21
TORSDOF 4
ENDMDL
MODEL 7
REMARK VINA RESULT:      -8.7      0.988      1.553
REMARK  Name = 
REMARK  6 active torsions:
REMARK  status: ('A' for Active; 'I' for Inactive)
REMARK    1  A    between atoms: C_1  and  C_2
REMARK    2  A    between atoms: C_2  and  N_3
REMARK    3  A    between atoms: C_7  and  C_8
REMARK    4  A    between atoms: C_12  and  N_13
REMARK    5  A    between atoms: C_14  and  C_16
REMARK    6  A    between atoms: C_25  and  C_26
REMARK                            x       y       z     vdW  Elec       q    Type
REMARK                         _______ _______ _______ _____ _____    ______ ____
ROOT
ATOM      1  N   UNL     1       2.259   6.615  20.157  0.00  0.00    +0.000 N 
ATOM      2  C   UNL     1       2.035   7.695  19.321  0.00  0.00    +0.000 C 
ATOM      3  O   UNL     1       2.332   7.751  18.132  0.00  0.00    +0.000 OA
ATOM      4  H   UNL     1       1.763   6.592  21.037  0.00  0.00    +0.000 HD
ENDROOT
BRANCH   2   5
ATOM      5  C   UNL     1       1.328   8.873  19.887  0.00  0.00    +0.000 A 
ATOM      6  C   UNL     1       1.044  10.032  19.150  0.00  0.00    +0.000 A 
ATOM      7  C   UNL     1       0.319  11.082  19.735  0.00  0.00    +0.000 A 
ATOM      8  C   UNL     1      -0.131  10.943  21.040  0.00  0.00    +0.000 A 
ATOM      9  C   UNL     1       0.116   9.775  21.754  0.00  0.00    +0.000 A 
ATOM     10  C   UNL     1       0.861   8.747  21.206  0.00  0.00    +0.000 A 
ATOM     11  C   UNL     1      -0.509   9.801  23.107  0.00  0.00    +0.000 C 
ATOM     12  C   UNL     1      -1.185  11.174  23.113  0.00  0.00    +0.000 C 
ATOM     13  N   UNL     1      -0.846  11.849  21.845  0.00  0.00    +0.000 N 
ATOM     14  C   UNL     1      -1.120  13.164  21.527  0.00  0.00    +0.000 C 
ATOM     15  C   UNL     1      -1.780  13.984  22.610  0.00  0.00    +0.000 C 
ATOM     16  O   UNL     1      -0.811  13.710  20.467  0.00  0.00    +0.000 OA
ENDBRANCH   2   5
BRANCH   1  21
ATOM     17  C   UNL     1       4.613   4.387  18.321  0.00  0.00    +0.000 A 
ATOM     18  C   UNL     1       4.453   3.193  19.040  0.00  0.00    +0.000 A 
ATOM     19  C   UNL     1       3.528   3.101  20.072  0.00  0.00    +0.000 A 
ATOM     20  C   UNL     1       2.769   4.215  20.419  0.00  0.00    +0.000 A 
ATOM     21  C   UNL     1       2.961   5.443  19.779  0.00  0.00    +0.000 A 
ATOM     22  C   UNL     1       3.878   5.519  18.723  0.00  0.00    +0.000 A 
BRANCH  17  27
ATOM     23  N   UNL     1       6.736   5.083  17.072  0.00  0.00    +0.000 N 
ATOM     24  C   UNL     1       7.189   4.839  15.808  0.00  0.00    +0.000 A 
ATOM     25  N   UNL     1       6.363   4.037  15.184  0.00  0.00    +0.000 NA
ATOM     26  N   UNL     1       5.337   3.757  16.048  0.00  0.00    +0.000 NA
ATOM     27  C   UNL     1       5.554   4.381  17.196  0.00  0.00    +0.000 A 
BRANCH  23  29
ATOM     28  C   UNL     1       7.627   7.362  17.679  0.00  0.00    +0.000 C 
ATOM     29  C   UNL     1       7.389   5.908  18.065  0.00  0.00    +0.000 C 
ENDBRANCH  23  29
ENDBRANCH  17  27
ENDBRANCH   1  21
TORSDOF 4
ENDMDL
MODEL 8
REMARK VINA RESULT:      -8.6      6.034      7.938
REMARK  Name = 
REMARK  6 active torsions:
REMARK  status: ('A' for Active; 'I' for Inactive)
REMARK    1  A    between atoms: C_1  and  C_2
REMARK    2  A    between atoms: C_2  and  N_3
REMARK    3  A    between atoms: C_7  and  C_8
REMARK    4  A    between atoms: C_12  and  N_13
REMARK    5  A    between atoms: C_14  and  C_16
REMARK    6  A    between atoms: C_25  and  C_26
REMARK                            x       y       z     vdW  Elec       q    Type
REMARK                         _______ _______ _______ _____ _____    ______ ____
ROOT
ATOM      1  N   UNL     1       7.130   8.009  17.181  0.00  0.00    +0.000 N 
ATOM      2  C   UNL     1       8.077   8.280  18.154  0.00  0.00    +0.000 C 
ATOM      3  O   UNL     1       8.606   7.450  18.886  0.00  0.00    +0.000 OA
ATOM      4  H   UNL     1       6.949   8.725  16.491  0.00  0.00    +0.000 HD
ENDROOT
BRANCH   2   5
ATOM      5  C   UNL     1       8.537   9.685  18.299  0.00  0.00    +0.000 A 
ATOM      6  C   UNL     1       8.080  10.736  17.489  0.00  0.00    +0.000 A 
ATOM      7  C   UNL     1       8.514  12.051  17.725  0.00  0.00    +0.000 A 
ATOM      8  C   UNL     1       9.378  12.294  18.783  0.00  0.00    +0.000 A 
ATOM      9  C   UNL     1       9.795  11.256  19.610  0.00  0.00    +0.000 A 
ATOM     10  C   UNL     1       9.407   9.951  19.369  0.00  0.00    +0.000 A 
ATOM     11  C   UNL     1      10.660  11.739  20.724  0.00  0.00    +0.000 C 
ATOM     12  C   UNL     1      10.710  13.244  20.451  0.00  0.00    +0.000 C 
ATOM     13  N   UNL     1       9.965  13.502  19.204  0.00  0.00    +0.000 N 
ATOM     14  C   UNL     1       9.909  14.702  18.524  0.00  0.00    +0.000 C 
ATOM     15  C   UNL     1      10.736  15.828  19.099  0.00  0.00    +0.000 C 
ATOM     16  O   UNL     1       9.294  14.887  17.473  0.00  0.00    +0.000 OA
ENDBRANCH   2   5
BRANCH   1  21
ATOM     17  C   UNL     1       4.712   5.182  17.350  0.00  0.00    +0.000 A 
ATOM     18  C   UNL     1       5.320   4.267  16.477  0.00  0.00    +0.000 A 
ATOM     19  C   UNL     1       6.551   4.548  15.895  0.00  0.00    +0.000 A 
ATOM     20  C   UNL     1       7.175   5.765  16.156  0.00  0.00    +0.000 A 
ATOM     21  C   UNL     1       6.558   6.733  16.955  0.00  0.00    +0.000 A 
ATOM     22  C   UNL     1       5.329   6.429  17.557  0.00  0.00    +0.000 A 
BRANCH  17  27
ATOM     23  N   UNL     1       3.193   3.633  18.710  0.00  0.00    +0.000 N 
ATOM     24  C   UNL     1       1.857   3.657  18.987  0.00  0.00    +0.000 A 
ATOM     25  N   UNL     1       1.315   4.737  18.484  0.00  0.00    +0.000 NA
ATOM     26  N   UNL     1       2.309   5.434  17.850  0.00  0.00    +0.000 NA
ATOM     27  C   UNL     1       3.452   4.779  17.984  0.00  0.00    +0.000 A 
BRANCH  23  29
ATOM     28  C   UNL     1       3.867   1.209  18.577  0.00  0.00    +0.000 C 
ATOM     29  C   UNL     1       4.128   2.608  19.117  0.00  0.00    +0.000 C 
ENDBRANCH  23  29
ENDBRANCH  17  27
ENDBRANCH   1  21
TORSDOF 4
ENDMDL
MODEL 9
REMARK VINA RESULT:      -8.6      1.796      2.797
REMARK  Name = 
REMARK  6 active torsions:
REMARK  status: ('A' for Active; 'I' for Inactive)
REMARK    1  A    between atoms: C_1  and  C_2
REMARK    2  A    between atoms: C_2  and  N_3
REMARK    3  A    between atoms: C_7  and  C_8
REMARK    4  A    between atoms: C_12  and  N_13
REMARK    5  A    between atoms: C_14  and  C_16
REMARK    6  A    between atoms: C_25  and  C_26
REMARK                            x       y       z     vdW  Elec       q    Type
REMARK                         _______ _______ _______ _____ _____    ______ ____
ROOT
ATOM      1  N   UNL     1       2.083   8.028  19.129  0.00  0.00    +0.000 N 
ATOM      2  C   UNL     1       1.547   9.145  18.511  0.00  0.00    +0.000 C 
ATOM      3  O   UNL     1       1.713   9.460  17.337  0.00  0.00    +0.000 OA
ATOM      4  H   UNL     1       1.688   7.749  20.016  0.00  0.00    +0.000 HD
ENDROOT
BRANCH   2   5
ATOM      5  C   UNL     1       0.652  10.017  19.314  0.00  0.00    +0.000 A 
ATOM      6  C   UNL     1      -0.144  11.029  18.758  0.00  0.00    +0.000 A 
ATOM      7  C   UNL     1      -1.013  11.774  19.573  0.00  0.00    +0.000 A 
ATOM      8  C   UNL     1      -1.087  11.476  20.926  0.00  0.00    +0.000 A 
ATOM      9  C   UNL     1      -0.326  10.444  21.466  0.00  0.00    +0.000 A 
ATOM     10  C   UNL     1       0.562   9.725  20.686  0.00  0.00    +0.000 A 
ATOM     11  C   UNL     1      -0.603  10.243  22.917  0.00  0.00    +0.000 C 
ATOM     12  C   UNL     1      -1.659  11.318  23.186  0.00  0.00    +0.000 C 
ATOM     13  N   UNL     1      -1.849  12.084  21.940  0.00  0.00    +0.000 N 
ATOM     14  C   UNL     1      -2.591  13.241  21.803  0.00  0.00    +0.000 C 
ATOM     15  C   UNL     1      -3.212  13.783  23.068  0.00  0.00    +0.000 C 
ATOM     16  O   UNL     1      -2.720  13.873  20.754  0.00  0.00    +0.000 OA
ENDBRANCH   2   5
BRANCH   1  21
ATOM     17  C   UNL     1       3.974   4.895  18.436  0.00  0.00    +0.000 A 
ATOM     18  C   UNL     1       4.689   5.272  17.290  0.00  0.00    +0.000 A 
ATOM     19  C   UNL     1       4.606   6.567  16.792  0.00  0.00    +0.000 A 
ATOM     20  C   UNL     1       3.780   7.495  17.419  0.00  0.00    +0.000 A 
ATOM     21  C   UNL     1       2.990   7.131  18.513  0.00  0.00    +0.000 A 
ATOM     22  C   UNL     1       3.100   5.829  19.023  0.00  0.00    +0.000 A 
BRANCH  17  27
ATOM     23  N   UNL     1       3.355   2.435  18.778  0.00  0.00    +0.000 N 
ATOM     24  C   UNL     1       3.906   1.438  19.529  0.00  0.00    +0.000 A 
ATOM     25  N   UNL     1       4.994   1.868  20.116  0.00  0.00    +0.000 NA
ATOM     26  N   UNL     1       5.158   3.180  19.756  0.00  0.00    +0.000 NA
ATOM     27  C   UNL     1       4.174   3.533  18.944  0.00  0.00    +0.000 A 
BRANCH  23  29
ATOM     28  C   UNL     1       0.835   2.448  18.718  0.00  0.00    +0.000 C 
ATOM     29  C   UNL     1       2.158   2.331  17.973  0.00  0.00    +0.000 C 
ENDBRANCH  23  29
ENDBRANCH  17  27
ENDBRANCH   1  21
TORSDOF 4
ENDMDL
