MODEL 1
REMARK VINA RESULT:      -9.2      0.000      0.000
REMARK  Name = 
REMARK  5 active torsions:
REMARK  status: ('A' for Active; 'I' for Inactive)
REMARK    1  A    between atoms: C_2  and  C_21
REMARK    2  A    between atoms: N_3  and  C_4
REMARK    3  A    between atoms: N_6  and  C_7
REMARK    4  A    between atoms: C_14  and  C_15
REMARK    5  A    between atoms: C_24  and  N_25
REMARK                            x       y       z     vdW  Elec       q    Type
REMARK                         _______ _______ _______ _____ _____    ______ ____
ROOT
ATOM      1  C   UNL     1       2.382   7.069  19.355  0.00  0.00    +0.000 A 
ATOM      2  C   UNL     1       1.991   8.353  19.636  0.00  0.00    +0.000 A 
ATOM      3  N   UNL     1       1.166   8.299  20.730  0.00  0.00    +0.000 N 
ATOM      4  N   UNL     1       1.029   7.026  21.187  0.00  0.00    +0.000 NA
ATOM      5  C   UNL     1       1.723   6.262  20.329  0.00  0.00    +0.000 A 
ENDROOT
BRANCH   3   6
ATOM      6  C   UNL     1       0.492   9.384  21.360  0.00  0.00    +0.000 A 
ATOM      7  C   UNL     1      -0.236   9.193  22.546  0.00  0.00    +0.000 A 
ATOM      8  C   UNL     1      -0.864  10.277  23.163  0.00  0.00    +0.000 A 
ATOM      9  C   UNL     1      -0.777  11.551  22.605  0.00  0.00    +0.000 A 
ATOM     10  C   UNL     1      -0.064  11.744  21.423  0.00  0.00    +0.000 A 
ATOM     11  C   UNL     1       0.569  10.667  20.799  0.00  0.00    +0.000 A 
ENDBRANCH   3   6
BRANCH   5  12
ATOM     12  C   UNL     1       1.710   4.798  20.433  0.00  0.00    +0.000 A 
ATOM     13  C   UNL     1       2.253   4.153  21.555  0.00  0.00    +0.000 A 
ATOM     14  C   UNL     1       2.211   2.763  21.672  0.00  0.00    +0.000 A 
ATOM     15  C   UNL     1       1.654   1.998  20.652  0.00  0.00    +0.000 A 
ATOM     16  C   UNL     1       1.146   2.623  19.512  0.00  0.00    +0.000 A 
ATOM     17  C   UNL     1       1.173   4.016  19.403  0.00  0.00    +0.000 A 
ENDBRANCH   5  12
BRANCH   1  20
ATOM     18  O   UNL     1       4.851   5.560  19.624  0.00  0.00    +0.000 OA
ATOM     19  C   UNL     1       4.407   5.948  18.549  0.00  0.00    +0.000 C 
ATOM     20  N   UNL     1       3.240   6.654  18.347  0.00  0.00    +0.000 N 
ATOM     21  H   UNL     1       2.964   6.917  17.410  0.00  0.00    +0.000 HD
BRANCH  19  22
ATOM     22  C   UNL     1       5.193   5.658  17.316  0.00  0.00    +0.000 A 
ATOM     23  C   UNL     1       4.818   6.311  16.134  0.00  0.00    +0.000 A 
ATOM     24  C   UNL     1       5.510   6.073  14.945  0.00  0.00    +0.000 A 
ATOM     25  C   UNL     1       6.578   5.167  14.940  0.00  0.00    +0.000 A 
ATOM     26  C   UNL     1       6.950   4.494  16.113  0.00  0.00    +0.000 A 
ATOM     27  C   UNL     1       6.252   4.738  17.299  0.00  0.00    +0.000 A 
BRANCH  25  28
ATOM     28  N   UNL     1       7.308   4.908  13.692  0.00  0.00    +0.000 N 
ATOM     29  O   UNL     1       6.858   4.038  12.933  0.00  0.00    +0.000 OA
ATOM     30  O   UNL     1       8.325   5.580  13.471  0.00  0.00    +0.000 OA
ENDBRANCH  25  28
ENDBRANCH  19  22
ENDBRANCH   1  20
TORSDOF 5
ENDMDL
MODEL 2
REMARK VINA RESULT:      -9.2      0.304      1.422
REMARK  Name = 
REMARK  5 active torsions:
REMARK  status: ('A' for Active; 'I' for Inactive)
REMARK    1  A    between atoms: C_2  and  C_21
REMARK    2  A    between atoms: N_3  and  C_4
REMARK    3  A    between atoms: N_6  and  C_7
REMARK    4  A    between atoms: C_14  and  C_15
REMARK    5  A    between atoms: C_24  and  N_25
REMARK                            x       y       z     vdW  Elec       q    Type
REMARK                         _______ _______ _______ _____ _____    ______ ____
ROOT
ATOM      1  C   UNL     1       2.334   7.033  19.301  0.00  0.00    +0.000 A 
ATOM      2  C   UNL     1       1.967   8.328  19.557  0.00  0.00    +0.000 A 
ATOM      3  N   UNL     1       1.202   8.319  20.696  0.00  0.00    +0.000 N 
ATOM      4  N   UNL     1       1.083   7.064  21.205  0.00  0.00    +0.000 NA
ATOM      5  C   UNL     1       1.724   6.265  20.337  0.00  0.00    +0.000 A 
ENDROOT
BRANCH   3   6
ATOM      6  C   UNL     1       0.571   9.431  21.323  0.00  0.00    +0.000 A 
ATOM      7  C   UNL     1       0.654  10.718  20.769  0.00  0.00    +0.000 A 
ATOM      8  C   UNL     1       0.002  11.789  21.385  0.00  0.00    +0.000 A 
ATOM      9  C   UNL     1      -0.730  11.587  22.553  0.00  0.00    +0.000 A 
ATOM     10  C   UNL     1      -0.809  10.314  23.113  0.00  0.00    +0.000 A 
ATOM     11  C   UNL     1      -0.161   9.237  22.504  0.00  0.00    +0.000 A 
ENDBRANCH   3   6
BRANCH   5  12
ATOM     12  C   UNL     1       1.707   4.806  20.493  0.00  0.00    +0.000 A 
ATOM     13  C   UNL     1       1.035   3.993  19.566  0.00  0.00    +0.000 A 
ATOM     14  C   UNL     1       1.046   2.603  19.693  0.00  0.00    +0.000 A 
ATOM     15  C   UNL     1       1.704   2.010  20.768  0.00  0.00    +0.000 A 
ATOM     16  C   UNL     1       2.342   2.808  21.718  0.00  0.00    +0.000 A 
ATOM     17  C   UNL     1       2.344   4.199  21.582  0.00  0.00    +0.000 A 
ENDBRANCH   5  12
BRANCH   1  20
ATOM     18  O   UNL     1       4.817   5.536  19.488  0.00  0.00    +0.000 OA
ATOM     19  C   UNL     1       4.311   5.879  18.426  0.00  0.00    +0.000 C 
ATOM     20  N   UNL     1       3.132   6.576  18.263  0.00  0.00    +0.000 N 
ATOM     21  H   UNL     1       2.802   6.799  17.333  0.00  0.00    +0.000 HD
BRANCH  19  22
ATOM     22  C   UNL     1       5.024   5.537  17.162  0.00  0.00    +0.000 A 
ATOM     23  C   UNL     1       4.998   6.477  16.123  0.00  0.00    +0.000 A 
ATOM     24  C   UNL     1       5.640   6.210  14.912  0.00  0.00    +0.000 A 
ATOM     25  C   UNL     1       6.304   4.988  14.740  0.00  0.00    +0.000 A 
ATOM     26  C   UNL     1       6.321   4.032  15.766  0.00  0.00    +0.000 A 
ATOM     27  C   UNL     1       5.675   4.308  16.975  0.00  0.00    +0.000 A 
BRANCH  25  28
ATOM     28  N   UNL     1       6.977   4.698  13.467  0.00  0.00    +0.000 N 
ATOM     29  O   UNL     1       7.890   5.457  13.114  0.00  0.00    +0.000 OA
ATOM     30  O   UNL     1       6.594   3.710  12.826  0.00  0.00    +0.000 OA
ENDBRANCH  25  28
ENDBRANCH  19  22
ENDBRANCH   1  20
TORSDOF 5
ENDMDL
MODEL 3
REMARK VINA RESULT:      -9.0      0.293      1.287
REMARK  Name = 
REMARK  5 active torsions:
REMARK  status: ('A' for Active; 'I' for Inactive)
REMARK    1  A    between atoms: C_2  and  C_21
REMARK    2  A    between atoms: N_3  and  C_4
REMARK    3  A    between atoms: N_6  and  C_7
REMARK    4  A    between atoms: C_14  and  C_15
REMARK    5  A    between atoms: C_24  and  N_25
REMARK                            x       y       z     vdW  Elec       q    Type
REMARK                         _______ _______ _______ _____ _____    ______ ____
ROOT
ATOM      1  C   UNL     1       2.261   7.127  19.306  0.00  0.00    +0.000 A 
ATOM      2  C   UNL     1       1.877   8.414  19.584  0.00  0.00    +0.000 A 
ATOM      3  N   UNL     1       1.136   8.379  20.738  0.00  0.00    +0.000 N 
ATOM      4  N   UNL     1       1.047   7.116  21.233  0.00  0.00    +0.000 NA
ATOM      5  C   UNL     1       1.684   6.338  20.344  0.00  0.00    +0.000 A 
ENDROOT
BRANCH   3   6
ATOM      6  C   UNL     1       0.498   9.472  21.390  0.00  0.00    +0.000 A 
ATOM      7  C   UNL     1       0.599  10.777  20.882  0.00  0.00    +0.000 A 
ATOM      8  C   UNL     1      -0.059  11.830  21.521  0.00  0.00    +0.000 A 
ATOM      9  C   UNL     1      -0.816  11.593  22.666  0.00  0.00    +0.000 A 
ATOM     10  C   UNL     1      -0.913  10.302  23.181  0.00  0.00    +0.000 A 
ATOM     11  C   UNL     1      -0.259   9.242  22.548  0.00  0.00    +0.000 A 
ENDBRANCH   3   6
BRANCH   5  12
ATOM     12  C   UNL     1       1.695   4.877  20.483  0.00  0.00    +0.000 A 
ATOM     13  C   UNL     1       2.348   4.264  21.564  0.00  0.00    +0.000 A 
ATOM     14  C   UNL     1       2.330   2.876  21.717  0.00  0.00    +0.000 A 
ATOM     15  C   UNL     1       1.687   2.083  20.772  0.00  0.00    +0.000 A 
ATOM     16  C   UNL     1       1.069   2.676  19.671  0.00  0.00    +0.000 A 
ATOM     17  C   UNL     1       1.072   4.066  19.527  0.00  0.00    +0.000 A 
ENDBRANCH   5  12
BRANCH   1  20
ATOM     18  O   UNL     1       4.754   5.640  19.426  0.00  0.00    +0.000 OA
ATOM     19  C   UNL     1       4.231   6.002  18.379  0.00  0.00    +0.000 C 
ATOM     20  N   UNL     1       3.047   6.696  18.247  0.00  0.00    +0.000 N 
ATOM     21  H   UNL     1       2.702   6.937  17.327  0.00  0.00    +0.000 HD
BRANCH  19  22
ATOM     22  C   UNL     1       4.927   5.690  17.098  0.00  0.00    +0.000 A 
ATOM     23  C   UNL     1       5.658   4.496  17.027  0.00  0.00    +0.000 A 
ATOM     24  C   UNL     1       6.339   4.153  15.857  0.00  0.00    +0.000 A 
ATOM     25  C   UNL     1       6.293   5.017  14.755  0.00  0.00    +0.000 A 
ATOM     26  C   UNL     1       5.580   6.223  14.822  0.00  0.00    +0.000 A 
ATOM     27  C   UNL     1       4.901   6.559  15.997  0.00  0.00    +0.000 A 
BRANCH  25  28
ATOM     28  N   UNL     1       7.010   4.665  13.523  0.00  0.00    +0.000 N 
ATOM     29  O   UNL     1       6.628   3.664  12.901  0.00  0.00    +0.000 OA
ATOM     30  O   UNL     1       7.952   5.393  13.178  0.00  0.00    +0.000 OA
ENDBRANCH  25  28
ENDBRANCH  19  22
ENDBRANCH   1  20
TORSDOF 5
ENDMDL
MODEL 4
REMARK VINA RESULT:      -9.0      0.291      1.405
REMARK  Name = 
REMARK  5 active torsions:
REMARK  status: ('A' for Active; 'I' for Inactive)
REMARK    1  A    between atoms: C_2  and  C_21
REMARK    2  A    between atoms: N_3  and  C_4
REMARK    3  A    between atoms: N_6  and  C_7
REMARK    4  A    between atoms: C_14  and  C_15
REMARK    5  A    between atoms: C_24  and  N_25
REMARK                            x       y       z     vdW  Elec       q    Type
REMARK                         _______ _______ _______ _____ _____    ______ ____
ROOT
ATOM      1  C   UNL     1       2.243   7.105  19.285  0.00  0.00    +0.000 A 
ATOM      2  C   UNL     1       1.852   8.389  19.563  0.00  0.00    +0.000 A 
ATOM      3  N   UNL     1       1.105   8.349  20.712  0.00  0.00    +0.000 N 
ATOM      4  N   UNL     1       1.020   7.085  21.206  0.00  0.00    +0.000 NA
ATOM      5  C   UNL     1       1.665   6.311  20.319  0.00  0.00    +0.000 A 
ENDROOT
BRANCH   3   6
ATOM      6  C   UNL     1       0.459   9.439  21.363  0.00  0.00    +0.000 A 
ATOM      7  C   UNL     1      -0.281   9.243  22.540  0.00  0.00    +0.000 A 
ATOM      8  C   UNL     1      -0.881  10.331  23.178  0.00  0.00    +0.000 A 
ATOM      9  C   UNL     1      -0.752  11.614  22.649  0.00  0.00    +0.000 A 
ATOM     10  C   UNL     1      -0.027  11.813  21.477  0.00  0.00    +0.000 A 
ATOM     11  C   UNL     1       0.578  10.731  20.832  0.00  0.00    +0.000 A 
ENDBRANCH   3   6
BRANCH   5  12
ATOM     12  C   UNL     1       1.682   4.850  20.456  0.00  0.00    +0.000 A 
ATOM     13  C   UNL     1       1.053   4.033  19.504  0.00  0.00    +0.000 A 
ATOM     14  C   UNL     1       1.097   2.642  19.614  0.00  0.00    +0.000 A 
ATOM     15  C   UNL     1       1.743   2.052  20.696  0.00  0.00    +0.000 A 
ATOM     16  C   UNL     1       2.338   2.853  21.672  0.00  0.00    +0.000 A 
ATOM     17  C   UNL     1       2.308   4.245  21.553  0.00  0.00    +0.000 A 
ENDBRANCH   5  12
BRANCH   1  20
ATOM     18  O   UNL     1       4.741   5.626  19.416  0.00  0.00    +0.000 OA
ATOM     19  C   UNL     1       4.223   5.988  18.366  0.00  0.00    +0.000 C 
ATOM     20  N   UNL     1       3.036   6.678  18.229  0.00  0.00    +0.000 N 
ATOM     21  H   UNL     1       2.696   6.920  17.308  0.00  0.00    +0.000 HD
BRANCH  19  22
ATOM     22  C   UNL     1       4.927   5.681  17.088  0.00  0.00    +0.000 A 
ATOM     23  C   UNL     1       5.647   4.481  17.012  0.00  0.00    +0.000 A 
ATOM     24  C   UNL     1       6.334   4.142  15.845  0.00  0.00    +0.000 A 
ATOM     25  C   UNL     1       6.305   5.017  14.751  0.00  0.00    +0.000 A 
ATOM     26  C   UNL     1       5.603   6.229  14.822  0.00  0.00    +0.000 A 
ATOM     27  C   UNL     1       4.918   6.560  15.995  0.00  0.00    +0.000 A 
BRANCH  25  28
ATOM     28  N   UNL     1       7.030   4.669  13.522  0.00  0.00    +0.000 N 
ATOM     29  O   UNL     1       7.962   5.407  13.175  0.00  0.00    +0.000 OA
ATOM     30  O   UNL     1       6.668   3.655  12.908  0.00  0.00    +0.000 OA
ENDBRANCH  25  28
ENDBRANCH  19  22
ENDBRANCH   1  20
TORSDOF 5
ENDMDL
MODEL 5
REMARK VINA RESULT:      -8.4      2.985      8.317
REMARK  Name = 
REMARK  5 active torsions:
REMARK  status: ('A' for Active; 'I' for Inactive)
REMARK    1  A    between atoms: C_2  and  C_21
REMARK    2  A    between atoms: N_3  and  C_4
REMARK    3  A    between atoms: N_6  and  C_7
REMARK    4  A    between atoms: C_14  and  C_15
REMARK    5  A    between atoms: C_24  and  N_25
REMARK                            x       y       z     vdW  Elec       q    Type
REMARK                         _______ _______ _______ _____ _____    ______ ____
ROOT
ATOM      1  C   UNL     1       3.307   6.216  18.103  0.00  0.00    +0.000 A 
ATOM      2  C   UNL     1       4.132   6.441  17.031  0.00  0.00    +0.000 A 
ATOM      3  N   UNL     1       4.583   5.220  16.599  0.00  0.00    +0.000 N 
ATOM      4  N   UNL     1       4.058   4.207  17.337  0.00  0.00    +0.000 NA
ATOM      5  C   UNL     1       3.321   4.802  18.287  0.00  0.00    +0.000 A 
ENDROOT
BRANCH   3   6
ATOM      6  C   UNL     1       5.491   4.961  15.533  0.00  0.00    +0.000 A 
ATOM      7  C   UNL     1       6.803   5.461  15.562  0.00  0.00    +0.000 A 
ATOM      8  C   UNL     1       7.686   5.170  14.520  0.00  0.00    +0.000 A 
ATOM      9  C   UNL     1       7.271   4.386  13.446  0.00  0.00    +0.000 A 
ATOM     10  C   UNL     1       5.968   3.895  13.406  0.00  0.00    +0.000 A 
ATOM     11  C   UNL     1       5.078   4.180  14.444  0.00  0.00    +0.000 A 
ENDBRANCH   3   6
BRANCH   5  12
ATOM     12  C   UNL     1       2.687   4.022  19.357  0.00  0.00    +0.000 A 
ATOM     13  C   UNL     1       3.465   3.302  20.278  0.00  0.00    +0.000 A 
ATOM     14  C   UNL     1       2.865   2.588  21.317  0.00  0.00    +0.000 A 
ATOM     15  C   UNL     1       1.478   2.558  21.428  0.00  0.00    +0.000 A 
ATOM     16  C   UNL     1       0.691   3.235  20.495  0.00  0.00    +0.000 A 
ATOM     17  C   UNL     1       1.292   3.964  19.465  0.00  0.00    +0.000 A 
ENDBRANCH   5  12
BRANCH   1  20
ATOM     18  O   UNL     1       2.221   8.747  17.177  0.00  0.00    +0.000 OA
ATOM     19  C   UNL     1       2.131   8.354  18.334  0.00  0.00    +0.000 C 
ATOM     20  N   UNL     1       2.608   7.162  18.838  0.00  0.00    +0.000 N 
ATOM     21  H   UNL     1       2.469   6.934  19.813  0.00  0.00    +0.000 HD
BRANCH  19  22
ATOM     22  C   UNL     1       1.454   9.235  19.328  0.00  0.00    +0.000 A 
ATOM     23  C   UNL     1       1.178   8.701  20.594  0.00  0.00    +0.000 A 
ATOM     24  C   UNL     1       0.538   9.475  21.564  0.00  0.00    +0.000 A 
ATOM     25  C   UNL     1       0.165  10.790  21.258  0.00  0.00    +0.000 A 
ATOM     26  C   UNL     1       0.420  11.330  19.989  0.00  0.00    +0.000 A 
ATOM     27  C   UNL     1       1.061  10.547  19.023  0.00  0.00    +0.000 A 
BRANCH  25  28
ATOM     28  N   UNL     1      -0.513  11.609  22.272  0.00  0.00    +0.000 N 
ATOM     29  O   UNL     1      -0.624  11.137  23.412  0.00  0.00    +0.000 OA
ATOM     30  O   UNL     1      -0.928  12.724  21.927  0.00  0.00    +0.000 OA
ENDBRANCH  25  28
ENDBRANCH  19  22
ENDBRANCH   1  20
TORSDOF 5
ENDMDL
MODEL 6
REMARK VINA RESULT:      -8.3      2.983      8.326
REMARK  Name = 
REMARK  5 active torsions:
REMARK  status: ('A' for Active; 'I' for Inactive)
REMARK    1  A    between atoms: C_2  and  C_21
REMARK    2  A    between atoms: N_3  and  C_4
REMARK    3  A    between atoms: N_6  and  C_7
REMARK    4  A    between atoms: C_14  and  C_15
REMARK    5  A    between atoms: C_24  and  N_25
REMARK                            x       y       z     vdW  Elec       q    Type
REMARK                         _______ _______ _______ _____ _____    ______ ____
ROOT
ATOM      1  C   UNL     1       3.267   6.188  18.217  0.00  0.00    +0.000 A 
ATOM      2  C   UNL     1       4.083   6.411  17.139  0.00  0.00    +0.000 A 
ATOM      3  N   UNL     1       4.535   5.190  16.708  0.00  0.00    +0.000 N 
ATOM      4  N   UNL     1       4.019   4.178  17.454  0.00  0.00    +0.000 NA
ATOM      5  C   UNL     1       3.286   4.774  18.407  0.00  0.00    +0.000 A 
ENDROOT
BRANCH   3   6
ATOM      6  C   UNL     1       5.437   4.930  15.637  0.00  0.00    +0.000 A 
ATOM      7  C   UNL     1       5.041   4.168  14.526  0.00  0.00    +0.000 A 
ATOM      8  C   UNL     1       5.932   3.950  13.474  0.00  0.00    +0.000 A 
ATOM      9  C   UNL     1       7.218   4.483  13.521  0.00  0.00    +0.000 A 
ATOM     10  C   UNL     1       7.621   5.232  14.624  0.00  0.00    +0.000 A 
ATOM     11  C   UNL     1       6.736   5.456  15.682  0.00  0.00    +0.000 A 
ENDBRANCH   3   6
BRANCH   5  12
ATOM     12  C   UNL     1       2.662   3.997  19.484  0.00  0.00    +0.000 A 
ATOM     13  C   UNL     1       1.266   3.962  19.628  0.00  0.00    +0.000 A 
ATOM     14  C   UNL     1       0.669   3.196  20.631  0.00  0.00    +0.000 A 
ATOM     15  C   UNL     1       1.462   2.481  21.522  0.00  0.00    +0.000 A 
ATOM     16  C   UNL     1       2.853   2.538  21.416  0.00  0.00    +0.000 A 
ATOM     17  C   UNL     1       3.450   3.292  20.402  0.00  0.00    +0.000 A 
ENDBRANCH   5  12
BRANCH   1  20
ATOM     18  O   UNL     1       2.162   8.710  17.288  0.00  0.00    +0.000 OA
ATOM     19  C   UNL     1       2.083   8.322  18.448  0.00  0.00    +0.000 C 
ATOM     20  N   UNL     1       2.570   7.135  18.954  0.00  0.00    +0.000 N 
ATOM     21  H   UNL     1       2.440   6.911  19.931  0.00  0.00    +0.000 HD
BRANCH  19  22
ATOM     22  C   UNL     1       1.411   9.205  19.443  0.00  0.00    +0.000 A 
ATOM     23  C   UNL     1       1.278   8.729  20.754  0.00  0.00    +0.000 A 
ATOM     24  C   UNL     1       0.651   9.508  21.729  0.00  0.00    +0.000 A 
ATOM     25  C   UNL     1       0.144  10.767  21.382  0.00  0.00    +0.000 A 
ATOM     26  C   UNL     1       0.255  11.246  20.069  0.00  0.00    +0.000 A 
ATOM     27  C   UNL     1       0.885  10.460  19.099  0.00  0.00    +0.000 A 
BRANCH  25  28
ATOM     28  N   UNL     1      -0.522  11.589  22.401  0.00  0.00    +0.000 N 
ATOM     29  O   UNL     1      -1.044  11.005  23.360  0.00  0.00    +0.000 OA
ATOM     30  O   UNL     1      -0.517  12.818  22.241  0.00  0.00    +0.000 OA
ENDBRANCH  25  28
ENDBRANCH  19  22
ENDBRANCH   1  20
TORSDOF 5
ENDMDL
MODEL 7
REMARK VINA RESULT:      -8.3      2.993      8.307
REMARK  Name = 
REMARK  5 active torsions:
REMARK  status: ('A' for Active; 'I' for Inactive)
REMARK    1  A    between atoms: C_2  and  C_21
REMARK    2  A    between atoms: N_3  and  C_4
REMARK    3  A    between atoms: N_6  and  C_7
REMARK    4  A    between atoms: C_14  and  C_15
REMARK    5  A    between atoms: C_24  and  N_25
REMARK                            x       y       z     vdW  Elec       q    Type
REMARK                         _______ _______ _______ _____ _____    ______ ____
ROOT
ATOM      1  C   UNL     1       3.226   6.315  18.199  0.00  0.00    +0.000 A 
ATOM      2  C   UNL     1       4.092   6.534  17.159  0.00  0.00    +0.000 A 
ATOM      3  N   UNL     1       4.509   5.308  16.709  0.00  0.00    +0.000 N 
ATOM      4  N   UNL     1       3.922   4.297  17.403  0.00  0.00    +0.000 NA
ATOM      5  C   UNL     1       3.179   4.897  18.346  0.00  0.00    +0.000 A 
ENDROOT
BRANCH   3   6
ATOM      6  C   UNL     1       5.440   5.040  15.665  0.00  0.00    +0.000 A 
ATOM      7  C   UNL     1       5.081   4.254  14.559  0.00  0.00    +0.000 A 
ATOM      8  C   UNL     1       6.000   4.028  13.532  0.00  0.00    +0.000 A 
ATOM      9  C   UNL     1       7.278   4.579  13.600  0.00  0.00    +0.000 A 
ATOM     10  C   UNL     1       7.644   5.353  14.700  0.00  0.00    +0.000 A 
ATOM     11  C   UNL     1       6.731   5.584  15.731  0.00  0.00    +0.000 A 
ENDBRANCH   3   6
BRANCH   5  12
ATOM     12  C   UNL     1       2.482   4.116  19.375  0.00  0.00    +0.000 A 
ATOM     13  C   UNL     1       2.884   4.178  20.719  0.00  0.00    +0.000 A 
ATOM     14  C   UNL     1       2.201   3.462  21.704  0.00  0.00    +0.000 A 
ATOM     15  C   UNL     1       1.126   2.651  21.352  0.00  0.00    +0.000 A 
ATOM     16  C   UNL     1       0.741   2.549  20.015  0.00  0.00    +0.000 A 
ATOM     17  C   UNL     1       1.414   3.278  19.031  0.00  0.00    +0.000 A 
ENDBRANCH   5  12
BRANCH   1  20
ATOM     18  O   UNL     1       2.081   8.814  17.257  0.00  0.00    +0.000 OA
ATOM     19  C   UNL     1       2.034   8.445  18.425  0.00  0.00    +0.000 C 
ATOM     20  N   UNL     1       2.541   7.269  18.937  0.00  0.00    +0.000 N 
ATOM     21  H   UNL     1       2.437   7.061  19.921  0.00  0.00    +0.000 HD
BRANCH  19  22
ATOM     22  C   UNL     1       1.381   9.340  19.422  0.00  0.00    +0.000 A 
ATOM     23  C   UNL     1       1.108   8.814  20.692  0.00  0.00    +0.000 A 
ATOM     24  C   UNL     1       0.490   9.601  21.666  0.00  0.00    +0.000 A 
ATOM     25  C   UNL     1       0.135  10.921  21.359  0.00  0.00    +0.000 A 
ATOM     26  C   UNL     1       0.386  11.453  20.086  0.00  0.00    +0.000 A 
ATOM     27  C   UNL     1       1.006  10.657  19.117  0.00  0.00    +0.000 A 
BRANCH  25  28
ATOM     28  N   UNL     1      -0.520  11.754  22.377  0.00  0.00    +0.000 N 
ATOM     29  O   UNL     1      -0.210  12.952  22.427  0.00  0.00    +0.000 OA
ATOM     30  O   UNL     1      -1.346  11.207  23.122  0.00  0.00    +0.000 OA
ENDBRANCH  25  28
ENDBRANCH  19  22
ENDBRANCH   1  20
TORSDOF 5
ENDMDL
MODEL 8
REMARK VINA RESULT:      -8.2      3.012      8.298
REMARK  Name = 
REMARK  5 active torsions:
REMARK  status: ('A' for Active; 'I' for Inactive)
REMARK    1  A    between atoms: C_2  and  C_21
REMARK    2  A    between atoms: N_3  and  C_4
REMARK    3  A    between atoms: N_6  and  C_7
REMARK    4  A    between atoms: C_14  and  C_15
REMARK    5  A    between atoms: C_24  and  N_25
REMARK                            x       y       z     vdW  Elec       q    Type
REMARK                         _______ _______ _______ _____ _____    ______ ____
ROOT
ATOM      1  C   UNL     1       3.268   6.212  18.252  0.00  0.00    +0.000 A 
ATOM      2  C   UNL     1       4.077   6.456  17.172  0.00  0.00    +0.000 A 
ATOM      3  N   UNL     1       4.536   5.244  16.722  0.00  0.00    +0.000 N 
ATOM      4  N   UNL     1       4.031   4.218  17.457  0.00  0.00    +0.000 NA
ATOM      5  C   UNL     1       3.299   4.796  18.422  0.00  0.00    +0.000 A 
ENDROOT
BRANCH   3   6
ATOM      6  C   UNL     1       5.434   5.006  15.643  0.00  0.00    +0.000 A 
ATOM      7  C   UNL     1       6.757   5.476  15.684  0.00  0.00    +0.000 A 
ATOM      8  C   UNL     1       7.629   5.205  14.628  0.00  0.00    +0.000 A 
ATOM      9  C   UNL     1       7.192   4.470  13.527  0.00  0.00    +0.000 A 
ATOM     10  C   UNL     1       5.879   4.009  13.476  0.00  0.00    +0.000 A 
ATOM     11  C   UNL     1       4.999   4.274  14.529  0.00  0.00    +0.000 A 
ENDBRANCH   3   6
BRANCH   5  12
ATOM     12  C   UNL     1       2.687   3.999  19.491  0.00  0.00    +0.000 A 
ATOM     13  C   UNL     1       1.294   3.980  19.664  0.00  0.00    +0.000 A 
ATOM     14  C   UNL     1       0.707   3.196  20.659  0.00  0.00    +0.000 A 
ATOM     15  C   UNL     1       1.509   2.446  21.514  0.00  0.00    +0.000 A 
ATOM     16  C   UNL     1       2.897   2.487  21.380  0.00  0.00    +0.000 A 
ATOM     17  C   UNL     1       3.483   3.260  20.374  0.00  0.00    +0.000 A 
ENDBRANCH   5  12
BRANCH   1  20
ATOM     18  O   UNL     1       2.127   8.731  17.359  0.00  0.00    +0.000 OA
ATOM     19  C   UNL     1       2.064   8.330  18.516  0.00  0.00    +0.000 C 
ATOM     20  N   UNL     1       2.569   7.143  19.005  0.00  0.00    +0.000 N 
ATOM     21  H   UNL     1       2.451   6.908  19.981  0.00  0.00    +0.000 HD
BRANCH  19  22
ATOM     22  C   UNL     1       1.392   9.196  19.527  0.00  0.00    +0.000 A 
ATOM     23  C   UNL     1       1.029  10.492  19.138  0.00  0.00    +0.000 A 
ATOM     24  C   UNL     1       0.404  11.353  20.042  0.00  0.00    +0.000 A 
ATOM     25  C   UNL     1       0.151  10.913  21.348  0.00  0.00    +0.000 A 
ATOM     26  C   UNL     1       0.527   9.624  21.754  0.00  0.00    +0.000 A 
ATOM     27  C   UNL     1       1.153   8.768  20.841  0.00  0.00    +0.000 A 
BRANCH  25  28
ATOM     28  N   UNL     1      -0.501  11.814  22.307  0.00  0.00    +0.000 N 
ATOM     29  O   UNL     1      -1.377  11.337  23.041  0.00  0.00    +0.000 OA
ATOM     30  O   UNL     1      -0.132  12.997  22.326  0.00  0.00    +0.000 OA
ENDBRANCH  25  28
ENDBRANCH  19  22
ENDBRANCH   1  20
TORSDOF 5
ENDMDL
MODEL 9
REMARK VINA RESULT:      -8.2      3.017      8.302
REMARK  Name = 
REMARK  5 active torsions:
REMARK  status: ('A' for Active; 'I' for Inactive)
REMARK    1  A    between atoms: C_2  and  C_21
REMARK    2  A    between atoms: N_3  and  C_4
REMARK    3  A    between atoms: N_6  and  C_7
REMARK    4  A    between atoms: C_14  and  C_15
REMARK    5  A    between atoms: C_24  and  N_25
REMARK                            x       y       z     vdW  Elec       q    Type
REMARK                         _______ _______ _______ _____ _____    ______ ____
ROOT
ATOM      1  C   UNL     1       3.271   6.341  18.213  0.00  0.00    +0.000 A 
ATOM      2  C   UNL     1       4.137   6.554  17.172  0.00  0.00    +0.000 A 
ATOM      3  N   UNL     1       4.522   5.325  16.702  0.00  0.00    +0.000 N 
ATOM      4  N   UNL     1       3.914   4.319  17.385  0.00  0.00    +0.000 NA
ATOM      5  C   UNL     1       3.190   4.923  18.340  0.00  0.00    +0.000 A 
ENDROOT
BRANCH   3   6
ATOM      6  C   UNL     1       5.441   5.050  15.649  0.00  0.00    +0.000 A 
ATOM      7  C   UNL     1       5.072   4.246  14.558  0.00  0.00    +0.000 A 
ATOM      8  C   UNL     1       5.979   4.014  13.522  0.00  0.00    +0.000 A 
ATOM      9  C   UNL     1       7.254   4.574  13.566  0.00  0.00    +0.000 A 
ATOM     10  C   UNL     1       7.629   5.364  14.650  0.00  0.00    +0.000 A 
ATOM     11  C   UNL     1       6.729   5.603  15.691  0.00  0.00    +0.000 A 
ENDBRANCH   3   6
BRANCH   5  12
ATOM     12  C   UNL     1       2.479   4.145  19.361  0.00  0.00    +0.000 A 
ATOM     13  C   UNL     1       1.347   3.385  19.025  0.00  0.00    +0.000 A 
ATOM     14  C   UNL     1       0.689   2.617  19.988  0.00  0.00    +0.000 A 
ATOM     15  C   UNL     1       1.137   2.625  21.305  0.00  0.00    +0.000 A 
ATOM     16  C   UNL     1       2.237   3.406  21.662  0.00  0.00    +0.000 A 
ATOM     17  C   UNL     1       2.905   4.162  20.695  0.00  0.00    +0.000 A 
ENDBRANCH   5  12
BRANCH   1  20
ATOM     18  O   UNL     1       1.941   8.747  17.273  0.00  0.00    +0.000 OA
ATOM     19  C   UNL     1       2.013   8.431  18.455  0.00  0.00    +0.000 C 
ATOM     20  N   UNL     1       2.614   7.301  18.969  0.00  0.00    +0.000 N 
ATOM     21  H   UNL     1       2.607   7.135  19.966  0.00  0.00    +0.000 HD
BRANCH  19  22
ATOM     22  C   UNL     1       1.413   9.345  19.468  0.00  0.00    +0.000 A 
ATOM     23  C   UNL     1       1.138  10.663  19.077  0.00  0.00    +0.000 A 
ATOM     24  C   UNL     1       0.584  11.568  19.983  0.00  0.00    +0.000 A 
ATOM     25  C   UNL     1       0.312  11.151  21.293  0.00  0.00    +0.000 A 
ATOM     26  C   UNL     1       0.600   9.841  21.701  0.00  0.00    +0.000 A 
ATOM     27  C   UNL     1       1.156   8.940  20.786  0.00  0.00    +0.000 A 
BRANCH  25  28
ATOM     28  N   UNL     1      -0.266  12.100  22.254  0.00  0.00    +0.000 N 
ATOM     29  O   UNL     1       0.025  13.297  22.126  0.00  0.00    +0.000 OA
ATOM     30  O   UNL     1      -1.015  11.645  23.130  0.00  0.00    +0.000 OA
ENDBRANCH  25  28
ENDBRANCH  19  22
ENDBRANCH   1  20
TORSDOF 5
ENDMDL
