MODEL 1
REMARK VINA RESULT:      -8.6      0.000      0.000
REMARK  Name = 
REMARK  5 active torsions:
REMARK  status: ('A' for Active; 'I' for Inactive)
REMARK    1  A    between atoms: C_2  and  C_10
REMARK    2  A    between atoms: N_3  and  C_4
REMARK    3  A    between atoms: C_15  and  N_16
REMARK    4  A    between atoms: N_16  and  S_17
REMARK    5  A    between atoms: S_17  and  C_20
REMARK                            x       y       z     vdW  Elec       q    Type
REMARK                         _______ _______ _______ _____ _____    ______ ____
ROOT
ATOM      1  N   UNL     1       3.024   6.310  19.921  0.00  0.00    +0.000 N 
ATOM      2  H   UNL     1       3.837   6.721  20.373  0.00  0.00    +0.000 HD
ENDROOT
BRANCH   1   8
ATOM      3  C   UNL     1       3.483   3.813  19.506  0.00  0.00    +0.000 A 
ATOM      4  C   UNL     1       2.963   2.495  19.651  0.00  0.00    +0.000 A 
ATOM      5  C   UNL     1       1.880   2.219  20.470  0.00  0.00    +0.000 A 
ATOM      6  C   UNL     1       1.319   3.257  21.198  0.00  0.00    +0.000 A 
ATOM      7  C   UNL     1       1.789   4.568  21.045  0.00  0.00    +0.000 A 
ATOM      8  C   UNL     1       2.837   4.886  20.165  0.00  0.00    +0.000 A 
BRANCH   3  10
ATOM      9  O   UNL     1       5.752   3.727  19.107  0.00  0.00    +0.000 OA
ATOM     10  C   UNL     1       4.650   3.821  18.579  0.00  0.00    +0.000 C 
ATOM     11  N   UNL     1       4.431   4.011  17.236  0.00  0.00    +0.000 N 
ATOM     12  H   UNL     1       3.502   3.780  16.877  0.00  0.00    +0.000 HD
BRANCH  11  13
ATOM     13  C   UNL     1       5.410   4.206  16.240  0.00  0.00    +0.000 A 
ATOM     14  C   UNL     1       5.313   3.604  14.985  0.00  0.00    +0.000 A 
ATOM     15  C   UNL     1       6.187   3.942  13.958  0.00  0.00    +0.000 A 
ATOM     16  C   UNL     1       7.214   4.849  14.189  0.00  0.00    +0.000 A 
ATOM     17  C   UNL     1       7.347   5.436  15.446  0.00  0.00    +0.000 A 
ATOM     18  C   UNL     1       6.447   5.117  16.472  0.00  0.00    +0.000 A 
ENDBRANCH  11  13
ENDBRANCH   3  10
ENDBRANCH   1   8
BRANCH   1  19
ATOM     19  S   UNL     1       2.664   6.954  18.394  0.00  0.00    +0.000 S 
ATOM     20  O   UNL     1       3.913   7.164  17.756  0.00  0.00    +0.000 OA
ATOM     21  O   UNL     1       1.618   6.116  17.794  0.00  0.00    +0.000 OA
BRANCH  19  22
ATOM     22  C   UNL     1       1.980   8.576  18.644  0.00  0.00    +0.000 A 
ATOM     23  C   UNL     1       1.278   8.812  19.851  0.00  0.00    +0.000 A 
ATOM     24  C   UNL     1       0.807  10.075  20.159  0.00  0.00    +0.000 A 
ATOM     25  C   UNL     1       1.064  11.066  19.245  0.00  0.00    +0.000 A 
ATOM     26  N   UNL     1       0.779  12.429  19.387  0.00  0.00    +0.000 N 
ATOM     27  C   UNL     1       1.640  13.106  18.496  0.00  0.00    +0.000 A 
ATOM     28  O   UNL     1       1.837  14.294  18.475  0.00  0.00    +0.000 OA
ATOM     29  N   UNL     1       2.226  12.129  17.670  0.00  0.00    +0.000 N 
ATOM     30  C   UNL     1       1.865  10.867  18.129  0.00  0.00    +0.000 A 
ATOM     31  C   UNL     1       2.280   9.610  17.748  0.00  0.00    +0.000 A 
ATOM     32  H   UNL     1      -0.185  12.639  19.147  0.00  0.00    +0.000 HD
ATOM     33  H   UNL     1       2.947  12.361  17.006  0.00  0.00    +0.000 HD
ENDBRANCH  19  22
ENDBRANCH   1  19
TORSDOF 5
ENDMDL
MODEL 2
REMARK VINA RESULT:      -8.4      1.871      2.350
REMARK  Name = 
REMARK  5 active torsions:
REMARK  status: ('A' for Active; 'I' for Inactive)
REMARK    1  A    between atoms: C_2  and  C_10
REMARK    2  A    between atoms: N_3  and  C_4
REMARK    3  A    between atoms: C_15  and  N_16
REMARK    4  A    between atoms: N_16  and  S_17
REMARK    5  A    between atoms: S_17  and  C_20
REMARK                            x       y       z     vdW  Elec       q    Type
REMARK                         _______ _______ _______ _____ _____    ______ ____
ROOT
ATOM      1  N   UNL     1       3.469   5.899  19.736  0.00  0.00    +0.000 N 
ATOM      2  H   UNL     1       4.482   5.987  19.783  0.00  0.00    +0.000 HD
ENDROOT
BRANCH   1   8
ATOM      3  C   UNL     1       3.067   3.429  19.141  0.00  0.00    +0.000 A 
ATOM      4  C   UNL     1       2.250   2.290  19.393  0.00  0.00    +0.000 A 
ATOM      5  C   UNL     1       1.392   2.228  20.478  0.00  0.00    +0.000 A 
ATOM      6  C   UNL     1       1.366   3.295  21.363  0.00  0.00    +0.000 A 
ATOM      7  C   UNL     1       2.134   4.441  21.118  0.00  0.00    +0.000 A 
ATOM      8  C   UNL     1       2.955   4.560  19.985  0.00  0.00    +0.000 A 
BRANCH   3  10
ATOM      9  O   UNL     1       4.185   2.061  17.659  0.00  0.00    +0.000 OA
ATOM     10  C   UNL     1       3.898   3.223  17.920  0.00  0.00    +0.000 C 
ATOM     11  N   UNL     1       4.347   4.323  17.229  0.00  0.00    +0.000 N 
ATOM     12  H   UNL     1       3.822   5.192  17.342  0.00  0.00    +0.000 HD
BRANCH  11  13
ATOM     13  C   UNL     1       5.264   4.329  16.158  0.00  0.00    +0.000 A 
ATOM     14  C   UNL     1       4.876   4.012  14.856  0.00  0.00    +0.000 A 
ATOM     15  C   UNL     1       5.744   4.193  13.784  0.00  0.00    +0.000 A 
ATOM     16  C   UNL     1       7.040   4.640  14.008  0.00  0.00    +0.000 A 
ATOM     17  C   UNL     1       7.456   4.930  15.306  0.00  0.00    +0.000 A 
ATOM     18  C   UNL     1       6.571   4.778  16.382  0.00  0.00    +0.000 A 
ENDBRANCH  11  13
ENDBRANCH   3  10
ENDBRANCH   1   8
BRANCH   1  19
ATOM     19  S   UNL     1       2.729   6.878  18.566  0.00  0.00    +0.000 S 
ATOM     20  O   UNL     1       3.786   7.454  17.815  0.00  0.00    +0.000 OA
ATOM     21  O   UNL     1       1.668   6.088  17.931  0.00  0.00    +0.000 OA
BRANCH  19  22
ATOM     22  C   UNL     1       1.957   8.237  19.415  0.00  0.00    +0.000 A 
ATOM     23  C   UNL     1       1.419   9.282  18.626  0.00  0.00    +0.000 A 
ATOM     24  C   UNL     1       0.716  10.319  19.210  0.00  0.00    +0.000 A 
ATOM     25  C   UNL     1       0.568  10.268  20.574  0.00  0.00    +0.000 A 
ATOM     26  N   UNL     1      -0.185  11.143  21.366  0.00  0.00    +0.000 N 
ATOM     27  C   UNL     1      -0.468  10.447  22.561  0.00  0.00    +0.000 A 
ATOM     28  O   UNL     1      -1.259  10.787  23.402  0.00  0.00    +0.000 OA
ATOM     29  N   UNL     1       0.331   9.288  22.560  0.00  0.00    +0.000 N 
ATOM     30  C   UNL     1       0.977   9.181  21.333  0.00  0.00    +0.000 A 
ATOM     31  C   UNL     1       1.751   8.173  20.800  0.00  0.00    +0.000 A 
ATOM     32  H   UNL     1       0.329  11.991  21.584  0.00  0.00    +0.000 HD
ATOM     33  H   UNL     1       0.243   8.583  23.273  0.00  0.00    +0.000 HD
ENDBRANCH  19  22
ENDBRANCH   1  19
TORSDOF 5
ENDMDL
MODEL 3
REMARK VINA RESULT:      -8.4      2.777      4.634
REMARK  Name = 
REMARK  5 active torsions:
REMARK  status: ('A' for Active; 'I' for Inactive)
REMARK    1  A    between atoms: C_2  and  C_10
REMARK    2  A    between atoms: N_3  and  C_4
REMARK    3  A    between atoms: C_15  and  N_16
REMARK    4  A    between atoms: N_16  and  S_17
REMARK    5  A    between atoms: S_17  and  C_20
REMARK                            x       y       z     vdW  Elec       q    Type
REMARK                         _______ _______ _______ _____ _____    ______ ____
ROOT
ATOM      1  N   UNL     1       5.346   3.497  18.127  0.00  0.00    +0.000 N 
ATOM      2  H   UNL     1       5.771   2.735  18.650  0.00  0.00    +0.000 HD
ENDROOT
BRANCH   1   8
ATOM      3  C   UNL     1       6.521   5.502  17.024  0.00  0.00    +0.000 A 
ATOM      4  C   UNL     1       7.495   6.524  17.207  0.00  0.00    +0.000 A 
ATOM      5  C   UNL     1       7.992   6.848  18.459  0.00  0.00    +0.000 A 
ATOM      6  C   UNL     1       7.488   6.180  19.564  0.00  0.00    +0.000 A 
ATOM      7  C   UNL     1       6.556   5.146  19.407  0.00  0.00    +0.000 A 
ATOM      8  C   UNL     1       6.092   4.748  18.143  0.00  0.00    +0.000 A 
BRANCH   3  10
ATOM      9  O   UNL     1       5.443   6.260  15.131  0.00  0.00    +0.000 OA
ATOM     10  C   UNL     1       6.157   5.372  15.584  0.00  0.00    +0.000 C 
ATOM     11  N   UNL     1       6.562   4.254  14.894  0.00  0.00    +0.000 N 
ATOM     12  H   UNL     1       7.373   3.749  15.258  0.00  0.00    +0.000 HD
BRANCH  11  13
ATOM     13  C   UNL     1       6.182   3.886  13.587  0.00  0.00    +0.000 A 
ATOM     14  C   UNL     1       7.125   3.562  12.611  0.00  0.00    +0.000 A 
ATOM     15  C   UNL     1       6.736   3.031  11.386  0.00  0.00    +0.000 A 
ATOM     16  C   UNL     1       5.387   2.872  11.095  0.00  0.00    +0.000 A 
ATOM     17  C   UNL     1       4.429   3.221  12.045  0.00  0.00    +0.000 A 
ATOM     18  C   UNL     1       4.823   3.726  13.292  0.00  0.00    +0.000 A 
ENDBRANCH  11  13
ENDBRANCH   3  10
ENDBRANCH   1   8
BRANCH   1  19
ATOM     19  S   UNL     1       3.651   3.530  18.179  0.00  0.00    +0.000 S 
ATOM     20  O   UNL     1       3.218   3.388  16.835  0.00  0.00    +0.000 OA
ATOM     21  O   UNL     1       3.220   2.605  19.233  0.00  0.00    +0.000 OA
BRANCH  19  22
ATOM     22  C   UNL     1       3.161   5.169  18.663  0.00  0.00    +0.000 A 
ATOM     23  C   UNL     1       3.027   6.142  17.643  0.00  0.00    +0.000 A 
ATOM     24  C   UNL     1       2.552   7.407  17.931  0.00  0.00    +0.000 A 
ATOM     25  C   UNL     1       2.219   7.655  19.240  0.00  0.00    +0.000 A 
ATOM     26  N   UNL     1       1.626   8.818  19.746  0.00  0.00    +0.000 N 
ATOM     27  C   UNL     1       1.016   8.450  20.965  0.00  0.00    +0.000 A 
ATOM     28  O   UNL     1       0.240   9.122  21.593  0.00  0.00    +0.000 OA
ATOM     29  N   UNL     1       1.474   7.157  21.279  0.00  0.00    +0.000 N 
ATOM     30  C   UNL     1       2.223   6.667  20.214  0.00  0.00    +0.000 A 
ATOM     31  C   UNL     1       2.766   5.422  19.984  0.00  0.00    +0.000 A 
ATOM     32  H   UNL     1       2.313   9.545  19.920  0.00  0.00    +0.000 HD
ATOM     33  H   UNL     1       1.110   6.642  22.064  0.00  0.00    +0.000 HD
ENDBRANCH  19  22
ENDBRANCH   1  19
TORSDOF 5
ENDMDL
MODEL 4
REMARK VINA RESULT:      -8.3      1.454      2.109
REMARK  Name = 
REMARK  5 active torsions:
REMARK  status: ('A' for Active; 'I' for Inactive)
REMARK    1  A    between atoms: C_2  and  C_10
REMARK    2  A    between atoms: N_3  and  C_4
REMARK    3  A    between atoms: C_15  and  N_16
REMARK    4  A    between atoms: N_16  and  S_17
REMARK    5  A    between atoms: S_17  and  C_20
REMARK                            x       y       z     vdW  Elec       q    Type
REMARK                         _______ _______ _______ _____ _____    ______ ____
ROOT
ATOM      1  N   UNL     1       3.055   6.116  20.058  0.00  0.00    +0.000 N 
ATOM      2  H   UNL     1       3.897   6.457  20.515  0.00  0.00    +0.000 HD
ENDROOT
BRANCH   1   8
ATOM      3  C   UNL     1       3.414   3.669  19.351  0.00  0.00    +0.000 A 
ATOM      4  C   UNL     1       2.863   2.356  19.381  0.00  0.00    +0.000 A 
ATOM      5  C   UNL     1       1.817   2.019  20.225  0.00  0.00    +0.000 A 
ATOM      6  C   UNL     1       1.328   2.985  21.091  0.00  0.00    +0.000 A 
ATOM      7  C   UNL     1       1.829   4.292  21.055  0.00  0.00    +0.000 A 
ATOM      8  C   UNL     1       2.837   4.679  20.157  0.00  0.00    +0.000 A 
BRANCH   3  10
ATOM      9  O   UNL     1       5.644   3.470  18.796  0.00  0.00    +0.000 OA
ATOM     10  C   UNL     1       4.531   3.749  18.366  0.00  0.00    +0.000 C 
ATOM     11  N   UNL     1       4.264   4.199  17.094  0.00  0.00    +0.000 N 
ATOM     12  H   UNL     1       3.302   4.115  16.761  0.00  0.00    +0.000 HD
BRANCH  11  13
ATOM     13  C   UNL     1       5.207   4.491  16.088  0.00  0.00    +0.000 A 
ATOM     14  C   UNL     1       6.257   5.385  16.301  0.00  0.00    +0.000 A 
ATOM     15  C   UNL     1       7.277   5.530  15.367  0.00  0.00    +0.000 A 
ATOM     16  C   UNL     1       7.230   4.822  14.172  0.00  0.00    +0.000 A 
ATOM     17  C   UNL     1       6.172   3.949  13.928  0.00  0.00    +0.000 A 
ATOM     18  C   UNL     1       5.161   3.781  14.883  0.00  0.00    +0.000 A 
ENDBRANCH  11  13
ENDBRANCH   3  10
ENDBRANCH   1   8
BRANCH   1  19
ATOM     19  S   UNL     1       2.650   6.929  18.626  0.00  0.00    +0.000 S 
ATOM     20  O   UNL     1       3.881   7.329  18.044  0.00  0.00    +0.000 OA
ATOM     21  O   UNL     1       1.685   6.095  17.899  0.00  0.00    +0.000 OA
BRANCH  19  22
ATOM     22  C   UNL     1       1.827   8.438  19.080  0.00  0.00    +0.000 A 
ATOM     23  C   UNL     1       1.431   9.309  18.036  0.00  0.00    +0.000 A 
ATOM     24  C   UNL     1       0.698  10.449  18.307  0.00  0.00    +0.000 A 
ATOM     25  C   UNL     1       0.379  10.676  19.622  0.00  0.00    +0.000 A 
ATOM     26  N   UNL     1      -0.435  11.700  20.120  0.00  0.00    +0.000 N 
ATOM     27  C   UNL     1      -0.890  11.262  21.383  0.00  0.00    +0.000 A 
ATOM     28  O   UNL     1      -1.767  11.773  22.030  0.00  0.00    +0.000 OA
ATOM     29  N   UNL     1      -0.140  10.119  21.716  0.00  0.00    +0.000 N 
ATOM     30  C   UNL     1       0.650   9.760  20.629  0.00  0.00    +0.000 A 
ATOM     31  C   UNL     1       1.448   8.658  20.411  0.00  0.00    +0.000 A 
ATOM     32  H   UNL     1       0.078  12.569  20.231  0.00  0.00    +0.000 HD
ATOM     33  H   UNL     1      -0.342   9.573  22.537  0.00  0.00    +0.000 HD
ENDBRANCH  19  22
ENDBRANCH   1  19
TORSDOF 5
ENDMDL
MODEL 5
REMARK VINA RESULT:      -8.3      2.718      8.632
REMARK  Name = 
REMARK  5 active torsions:
REMARK  status: ('A' for Active; 'I' for Inactive)
REMARK    1  A    between atoms: C_2  and  C_10
REMARK    2  A    between atoms: N_3  and  C_4
REMARK    3  A    between atoms: C_15  and  N_16
REMARK    4  A    between atoms: N_16  and  S_17
REMARK    5  A    between atoms: S_17  and  C_20
REMARK                            x       y       z     vdW  Elec       q    Type
REMARK                         _______ _______ _______ _____ _____    ______ ____
ROOT
ATOM      1  N   UNL     1       2.099   6.287  21.021  0.00  0.00    +0.000 N 
ATOM      2  H   UNL     1       1.636   6.585  21.876  0.00  0.00    +0.000 HD
ENDROOT
BRANCH   1   8
ATOM      3  C   UNL     1       1.349   8.439  19.827  0.00  0.00    +0.000 A 
ATOM      4  C   UNL     1       1.362   9.149  18.593  0.00  0.00    +0.000 A 
ATOM      5  C   UNL     1       2.207   8.798  17.553  0.00  0.00    +0.000 A 
ATOM      6  C   UNL     1       3.092   7.749  17.745  0.00  0.00    +0.000 A 
ATOM      7  C   UNL     1       3.074   7.012  18.936  0.00  0.00    +0.000 A 
ATOM      8  C   UNL     1       2.176   7.300  19.977  0.00  0.00    +0.000 A 
BRANCH   3  10
ATOM      9  O   UNL     1      -0.227   8.243  21.499  0.00  0.00    +0.000 OA
ATOM     10  C   UNL     1       0.358   9.035  20.768  0.00  0.00    +0.000 C 
ATOM     11  N   UNL     1       0.109  10.385  20.704  0.00  0.00    +0.000 N 
ATOM     12  H   UNL     1       0.836  10.975  20.296  0.00  0.00    +0.000 HD
BRANCH  11  13
ATOM     13  C   UNL     1      -0.897  11.090  21.395  0.00  0.00    +0.000 A 
ATOM     14  C   UNL     1      -0.993  11.060  22.787  0.00  0.00    +0.000 A 
ATOM     15  C   UNL     1      -1.874  11.896  23.464  0.00  0.00    +0.000 A 
ATOM     16  C   UNL     1      -2.720  12.737  22.751  0.00  0.00    +0.000 A 
ATOM     17  C   UNL     1      -2.662  12.757  21.359  0.00  0.00    +0.000 A 
ATOM     18  C   UNL     1      -1.752  11.936  20.679  0.00  0.00    +0.000 A 
ENDBRANCH  11  13
ENDBRANCH   3  10
ENDBRANCH   1   8
BRANCH   1  19
ATOM     19  S   UNL     1       1.831   4.667  20.601  0.00  0.00    +0.000 S 
ATOM     20  O   UNL     1       2.202   3.904  21.738  0.00  0.00    +0.000 OA
ATOM     21  O   UNL     1       0.490   4.576  20.011  0.00  0.00    +0.000 OA
BRANCH  19  22
ATOM     22  C   UNL     1       3.008   4.238  19.339  0.00  0.00    +0.000 A 
ATOM     23  C   UNL     1       2.514   4.013  18.031  0.00  0.00    +0.000 A 
ATOM     24  C   UNL     1       3.379   3.776  16.980  0.00  0.00    +0.000 A 
ATOM     25  C   UNL     1       4.720   3.781  17.275  0.00  0.00    +0.000 A 
ATOM     26  N   UNL     1       5.777   3.669  16.364  0.00  0.00    +0.000 N 
ATOM     27  C   UNL     1       6.908   4.222  17.003  0.00  0.00    +0.000 A 
ATOM     28  O   UNL     1       7.954   4.491  16.472  0.00  0.00    +0.000 OA
ATOM     29  N   UNL     1       6.564   4.411  18.355  0.00  0.00    +0.000 N 
ATOM     30  C   UNL     1       5.211   4.132  18.524  0.00  0.00    +0.000 A 
ATOM     31  C   UNL     1       4.381   4.292  19.612  0.00  0.00    +0.000 A 
ATOM     32  H   UNL     1       5.967   2.700  16.125  0.00  0.00    +0.000 HD
ATOM     33  H   UNL     1       7.182   4.876  18.999  0.00  0.00    +0.000 HD
ENDBRANCH  19  22
ENDBRANCH   1  19
TORSDOF 5
ENDMDL
MODEL 6
REMARK VINA RESULT:      -8.1      1.987      2.765
REMARK  Name = 
REMARK  5 active torsions:
REMARK  status: ('A' for Active; 'I' for Inactive)
REMARK    1  A    between atoms: C_2  and  C_10
REMARK    2  A    between atoms: N_3  and  C_4
REMARK    3  A    between atoms: C_15  and  N_16
REMARK    4  A    between atoms: N_16  and  S_17
REMARK    5  A    between atoms: S_17  and  C_20
REMARK                            x       y       z     vdW  Elec       q    Type
REMARK                         _______ _______ _______ _____ _____    ______ ____
ROOT
ATOM      1  N   UNL     1       3.622   5.911  19.323  0.00  0.00    +0.000 N 
ATOM      2  H   UNL     1       4.502   6.304  19.647  0.00  0.00    +0.000 HD
ENDROOT
BRANCH   1   8
ATOM      3  C   UNL     1       4.243   3.743  18.087  0.00  0.00    +0.000 A 
ATOM      4  C   UNL     1       3.890   2.379  17.883  0.00  0.00    +0.000 A 
ATOM      5  C   UNL     1       3.004   1.717  18.716  0.00  0.00    +0.000 A 
ATOM      6  C   UNL     1       2.483   2.401  19.804  0.00  0.00    +0.000 A 
ATOM      7  C   UNL     1       2.786   3.753  20.006  0.00  0.00    +0.000 A 
ATOM      8  C   UNL     1       3.623   4.467  19.133  0.00  0.00    +0.000 A 
BRANCH   3  10
ATOM      9  O   UNL     1       5.997   5.076  17.405  0.00  0.00    +0.000 OA
ATOM     10  C   UNL     1       5.219   4.196  17.055  0.00  0.00    +0.000 C 
ATOM     11  N   UNL     1       5.136   3.673  15.786  0.00  0.00    +0.000 N 
ATOM     12  H   UNL     1       4.678   2.766  15.684  0.00  0.00    +0.000 HD
BRANCH  11  13
ATOM     13  C   UNL     1       5.861   4.093  14.652  0.00  0.00    +0.000 A 
ATOM     14  C   UNL     1       6.908   5.010  14.746  0.00  0.00    +0.000 A 
ATOM     15  C   UNL     1       7.726   5.280  13.655  0.00  0.00    +0.000 A 
ATOM     16  C   UNL     1       7.469   4.678  12.429  0.00  0.00    +0.000 A 
ATOM     17  C   UNL     1       6.408   3.784  12.307  0.00  0.00    +0.000 A 
ATOM     18  C   UNL     1       5.603   3.489  13.416  0.00  0.00    +0.000 A 
ENDBRANCH  11  13
ENDBRANCH   3  10
ENDBRANCH   1   8
BRANCH   1  19
ATOM     19  S   UNL     1       2.762   6.899  18.246  0.00  0.00    +0.000 S 
ATOM     20  O   UNL     1       3.739   7.543  17.443  0.00  0.00    +0.000 OA
ATOM     21  O   UNL     1       1.689   6.088  17.658  0.00  0.00    +0.000 OA
BRANCH  19  22
ATOM     22  C   UNL     1       2.002   8.195  19.197  0.00  0.00    +0.000 A 
ATOM     23  C   UNL     1       1.521   9.327  18.495  0.00  0.00    +0.000 A 
ATOM     24  C   UNL     1       0.830  10.326  19.154  0.00  0.00    +0.000 A 
ATOM     25  C   UNL     1       0.636  10.152  20.502  0.00  0.00    +0.000 A 
ATOM     26  N   UNL     1      -0.118  10.971  21.351  0.00  0.00    +0.000 N 
ATOM     27  C   UNL     1      -0.459  10.175  22.465  0.00  0.00    +0.000 A 
ATOM     28  O   UNL     1      -1.267  10.459  23.311  0.00  0.00    +0.000 OA
ATOM     29  N   UNL     1       0.305   8.997  22.377  0.00  0.00    +0.000 N 
ATOM     30  C   UNL     1       0.988   8.985  21.165  0.00  0.00    +0.000 A 
ATOM     31  C   UNL     1       1.749   8.008  20.562  0.00  0.00    +0.000 A 
ATOM     32  H   UNL     1       0.413  11.778  21.664  0.00  0.00    +0.000 HD
ATOM     33  H   UNL     1       0.174   8.231  23.017  0.00  0.00    +0.000 HD
ENDBRANCH  19  22
ENDBRANCH   1  19
TORSDOF 5
ENDMDL
MODEL 7
REMARK VINA RESULT:      -8.0      2.744      4.769
REMARK  Name = 
REMARK  5 active torsions:
REMARK  status: ('A' for Active; 'I' for Inactive)
REMARK    1  A    between atoms: C_2  and  C_10
REMARK    2  A    between atoms: N_3  and  C_4
REMARK    3  A    between atoms: C_15  and  N_16
REMARK    4  A    between atoms: N_16  and  S_17
REMARK    5  A    between atoms: S_17  and  C_20
REMARK                            x       y       z     vdW  Elec       q    Type
REMARK                         _______ _______ _______ _____ _____    ______ ____
ROOT
ATOM      1  N   UNL     1       5.527   3.409  18.035  0.00  0.00    +0.000 N 
ATOM      2  H   UNL     1       5.838   2.755  18.749  0.00  0.00    +0.000 HD
ENDROOT
BRANCH   1   8
ATOM      3  C   UNL     1       6.550   5.510  16.959  0.00  0.00    +0.000 A 
ATOM      4  C   UNL     1       7.442   6.601  17.158  0.00  0.00    +0.000 A 
ATOM      5  C   UNL     1       7.907   6.949  18.416  0.00  0.00    +0.000 A 
ATOM      6  C   UNL     1       7.451   6.233  19.512  0.00  0.00    +0.000 A 
ATOM      7  C   UNL     1       6.602   5.132  19.339  0.00  0.00    +0.000 A 
ATOM      8  C   UNL     1       6.176   4.713  18.068  0.00  0.00    +0.000 A 
BRANCH   3  10
ATOM      9  O   UNL     1       5.516   6.264  15.041  0.00  0.00    +0.000 OA
ATOM     10  C   UNL     1       6.204   5.368  15.516  0.00  0.00    +0.000 C 
ATOM     11  N   UNL     1       6.595   4.232  14.847  0.00  0.00    +0.000 N 
ATOM     12  H   UNL     1       7.389   3.715  15.229  0.00  0.00    +0.000 HD
BRANCH  11  13
ATOM     13  C   UNL     1       6.225   3.854  13.541  0.00  0.00    +0.000 A 
ATOM     14  C   UNL     1       7.173   3.477  12.588  0.00  0.00    +0.000 A 
ATOM     15  C   UNL     1       6.787   2.938  11.365  0.00  0.00    +0.000 A 
ATOM     16  C   UNL     1       5.439   2.824  11.052  0.00  0.00    +0.000 A 
ATOM     17  C   UNL     1       4.478   3.226  11.977  0.00  0.00    +0.000 A 
ATOM     18  C   UNL     1       4.867   3.739  13.222  0.00  0.00    +0.000 A 
ENDBRANCH  11  13
ENDBRANCH   3  10
ENDBRANCH   1   8
BRANCH   1  19
ATOM     19  S   UNL     1       3.880   3.300  17.648  0.00  0.00    +0.000 S 
ATOM     20  O   UNL     1       3.748   3.854  16.348  0.00  0.00    +0.000 OA
ATOM     21  O   UNL     1       3.440   1.934  17.955  0.00  0.00    +0.000 OA
BRANCH  19  22
ATOM     22  C   UNL     1       3.001   4.408  18.726  0.00  0.00    +0.000 A 
ATOM     23  C   UNL     1       2.808   4.000  20.068  0.00  0.00    +0.000 A 
ATOM     24  C   UNL     1       2.224   4.850  20.988  0.00  0.00    +0.000 A 
ATOM     25  C   UNL     1       1.857   6.091  20.530  0.00  0.00    +0.000 A 
ATOM     26  N   UNL     1       1.347   7.147  21.295  0.00  0.00    +0.000 N 
ATOM     27  C   UNL     1       1.597   8.324  20.556  0.00  0.00    +0.000 A 
ATOM     28  O   UNL     1       1.489   9.450  20.969  0.00  0.00    +0.000 OA
ATOM     29  N   UNL     1       2.010   7.923  19.272  0.00  0.00    +0.000 N 
ATOM     30  C   UNL     1       2.164   6.541  19.254  0.00  0.00    +0.000 A 
ATOM     31  C   UNL     1       2.668   5.697  18.289  0.00  0.00    +0.000 A 
ATOM     32  H   UNL     1       0.348   7.053  21.449  0.00  0.00    +0.000 HD
ATOM     33  H   UNL     1       2.328   8.588  18.586  0.00  0.00    +0.000 HD
ENDBRANCH  19  22
ENDBRANCH   1  19
TORSDOF 5
ENDMDL
MODEL 8
REMARK VINA RESULT:      -8.0      2.536      4.460
REMARK  Name = 
REMARK  5 active torsions:
REMARK  status: ('A' for Active; 'I' for Inactive)
REMARK    1  A    between atoms: C_2  and  C_10
REMARK    2  A    between atoms: N_3  and  C_4
REMARK    3  A    between atoms: C_15  and  N_16
REMARK    4  A    between atoms: N_16  and  S_17
REMARK    5  A    between atoms: S_17  and  C_20
REMARK                            x       y       z     vdW  Elec       q    Type
REMARK                         _______ _______ _______ _____ _____    ______ ____
ROOT
ATOM      1  N   UNL     1       5.466   3.294  18.879  0.00  0.00    +0.000 N 
ATOM      2  H   UNL     1       5.973   2.942  19.686  0.00  0.00    +0.000 HD
ENDROOT
BRANCH   1   8
ATOM      3  C   UNL     1       6.306   4.731  16.918  0.00  0.00    +0.000 A 
ATOM      4  C   UNL     1       7.117   5.844  16.555  0.00  0.00    +0.000 A 
ATOM      5  C   UNL     1       7.580   6.751  17.494  0.00  0.00    +0.000 A 
ATOM      6  C   UNL     1       7.202   6.585  18.817  0.00  0.00    +0.000 A 
ATOM      7  C   UNL     1       6.435   5.480  19.205  0.00  0.00    +0.000 A 
ATOM      8  C   UNL     1       6.015   4.505  18.285  0.00  0.00    +0.000 A 
BRANCH   3  10
ATOM      9  O   UNL     1       5.662   2.754  15.921  0.00  0.00    +0.000 OA
ATOM     10  C   UNL     1       5.942   3.929  15.715  0.00  0.00    +0.000 C 
ATOM     11  N   UNL     1       6.020   4.518  14.475  0.00  0.00    +0.000 N 
ATOM     12  H   UNL     1       5.967   5.538  14.438  0.00  0.00    +0.000 HD
BRANCH  11  13
ATOM     13  C   UNL     1       5.872   3.879  13.227  0.00  0.00    +0.000 A 
ATOM     14  C   UNL     1       6.941   3.246  12.593  0.00  0.00    +0.000 A 
ATOM     15  C   UNL     1       6.745   2.472  11.455  0.00  0.00    +0.000 A 
ATOM     16  C   UNL     1       5.477   2.366  10.897  0.00  0.00    +0.000 A 
ATOM     17  C   UNL     1       4.402   3.018  11.498  0.00  0.00    +0.000 A 
ATOM     18  C   UNL     1       4.595   3.773  12.663  0.00  0.00    +0.000 A 
ENDBRANCH  11  13
ENDBRANCH   3  10
ENDBRANCH   1   8
BRANCH   1  19
ATOM     19  S   UNL     1       3.785   3.083  18.953  0.00  0.00    +0.000 S 
ATOM     20  O   UNL     1       3.401   2.563  17.690  0.00  0.00    +0.000 OA
ATOM     21  O   UNL     1       3.480   2.380  20.205  0.00  0.00    +0.000 OA
BRANCH  19  22
ATOM     22  C   UNL     1       3.046   4.697  19.045  0.00  0.00    +0.000 A 
ATOM     23  C   UNL     1       2.711   5.193  20.329  0.00  0.00    +0.000 A 
ATOM     24  C   UNL     1       2.228   6.478  20.486  0.00  0.00    +0.000 A 
ATOM     25  C   UNL     1       2.102   7.231  19.345  0.00  0.00    +0.000 A 
ATOM     26  N   UNL     1       1.735   8.580  19.270  0.00  0.00    +0.000 N 
ATOM     27  C   UNL     1       2.221   9.051  18.031  0.00  0.00    +0.000 A 
ATOM     28  O   UNL     1       2.281  10.204  17.692  0.00  0.00    +0.000 OA
ATOM     29  N   UNL     1       2.632   7.923  17.295  0.00  0.00    +0.000 N 
ATOM     30  C   UNL     1       2.552   6.796  18.107  0.00  0.00    +0.000 A 
ATOM     31  C   UNL     1       2.961   5.497  17.898  0.00  0.00    +0.000 A 
ATOM     32  H   UNL     1       0.727   8.698  19.302  0.00  0.00    +0.000 HD
ATOM     33  H   UNL     1       3.097   8.011  16.407  0.00  0.00    +0.000 HD
ENDBRANCH  19  22
ENDBRANCH   1  19
TORSDOF 5
ENDMDL
MODEL 9
REMARK VINA RESULT:      -7.8      1.603      2.256
REMARK  Name = 
REMARK  5 active torsions:
REMARK  status: ('A' for Active; 'I' for Inactive)
REMARK    1  A    between atoms: C_2  and  C_10
REMARK    2  A    between atoms: N_3  and  C_4
REMARK    3  A    between atoms: C_15  and  N_16
REMARK    4  A    between atoms: N_16  and  S_17
REMARK    5  A    between atoms: S_17  and  C_20
REMARK                            x       y       z     vdW  Elec       q    Type
REMARK                         _______ _______ _______ _____ _____    ______ ____
ROOT
ATOM      1  N   UNL     1       3.646   6.129  19.383  0.00  0.00    +0.000 N 
ATOM      2  H   UNL     1       4.539   6.554  19.621  0.00  0.00    +0.000 HD
ENDROOT
BRANCH   1   8
ATOM      3  C   UNL     1       4.238   4.008  18.053  0.00  0.00    +0.000 A 
ATOM      4  C   UNL     1       3.923   2.634  17.854  0.00  0.00    +0.000 A 
ATOM      5  C   UNL     1       3.142   1.923  18.751  0.00  0.00    +0.000 A 
ATOM      6  C   UNL     1       2.695   2.567  19.895  0.00  0.00    +0.000 A 
ATOM      7  C   UNL     1       2.962   3.927  20.095  0.00  0.00    +0.000 A 
ATOM      8  C   UNL     1       3.687   4.689  19.165  0.00  0.00    +0.000 A 
BRANCH   3  10
ATOM      9  O   UNL     1       5.513   5.663  17.077  0.00  0.00    +0.000 OA
ATOM     10  C   UNL     1       5.099   4.517  16.947  0.00  0.00    +0.000 C 
ATOM     11  N   UNL     1       5.300   3.724  15.843  0.00  0.00    +0.000 N 
ATOM     12  H   UNL     1       5.174   2.717  15.962  0.00  0.00    +0.000 HD
BRANCH  11  13
ATOM     13  C   UNL     1       5.943   4.095  14.644  0.00  0.00    +0.000 A 
ATOM     14  C   UNL     1       7.056   4.936  14.637  0.00  0.00    +0.000 A 
ATOM     15  C   UNL     1       7.786   5.152  13.472  0.00  0.00    +0.000 A 
ATOM     16  C   UNL     1       7.374   4.572  12.278  0.00  0.00    +0.000 A 
ATOM     17  C   UNL     1       6.246   3.755  12.260  0.00  0.00    +0.000 A 
ATOM     18  C   UNL     1       5.530   3.513  13.440  0.00  0.00    +0.000 A 
ENDBRANCH  11  13
ENDBRANCH   3  10
ENDBRANCH   1   8
BRANCH   1  19
ATOM     19  S   UNL     1       2.637   7.095  18.423  0.00  0.00    +0.000 S 
ATOM     20  O   UNL     1       3.499   7.957  17.697  0.00  0.00    +0.000 OA
ATOM     21  O   UNL     1       1.682   6.208  17.748  0.00  0.00    +0.000 OA
BRANCH  19  22
ATOM     22  C   UNL     1       1.715   8.155  19.512  0.00  0.00    +0.000 A 
ATOM     23  C   UNL     1       1.604   7.764  20.869  0.00  0.00    +0.000 A 
ATOM     24  C   UNL     1       0.989   8.587  21.794  0.00  0.00    +0.000 A 
ATOM     25  C   UNL     1       0.510   9.785  21.326  0.00  0.00    +0.000 A 
ATOM     26  N   UNL     1      -0.051  10.816  22.089  0.00  0.00    +0.000 N 
ATOM     27  C   UNL     1       0.079  11.992  21.319  0.00  0.00    +0.000 A 
ATOM     28  O   UNL     1      -0.101  13.115  21.714  0.00  0.00    +0.000 OA
ATOM     29  N   UNL     1       0.474  11.595  20.027  0.00  0.00    +0.000 N 
ATOM     30  C   UNL     1       0.735  10.229  20.030  0.00  0.00    +0.000 A 
ATOM     31  C   UNL     1       1.267   9.405  19.063  0.00  0.00    +0.000 A 
ATOM     32  H   UNL     1      -1.034  10.648  22.283  0.00  0.00    +0.000 HD
ATOM     33  H   UNL     1       0.715  12.267  19.317  0.00  0.00    +0.000 HD
ENDBRANCH  19  22
ENDBRANCH   1  19
TORSDOF 5
ENDMDL
