MODEL 1
REMARK VINA RESULT:      -8.2      0.000      0.000
REMARK  Name = 
REMARK  4 active torsions:
REMARK  status: ('A' for Active; 'I' for Inactive)
REMARK    1  A    between atoms: C_2  and  C_3
REMARK    2  A    between atoms: C_7  and  C_8
REMARK    3  A    between atoms: C_8  and  N_9
REMARK    4  A    between atoms: C_25  and  C_26
REMARK                            x       y       z     vdW  Elec       q    Type
REMARK                         _______ _______ _______ _____ _____    ______ ____
ROOT
ATOM      1  O   UNL     1       1.911  13.457  21.423  0.00  0.00    +0.000 OA
ATOM      2  C   UNL     1       0.786  13.528  20.934  0.00  0.00    +0.000 C 
ATOM      3  N   UNL     1       0.336  12.649  19.941  0.00  0.00    +0.000 N 
ATOM      4  C   UNL     1      -0.960  12.677  19.258  0.00  0.00    +0.000 C 
ATOM      5  C   UNL     1      -1.664  11.331  19.327  0.00  0.00    +0.000 C 
ATOM      6  C   UNL     1      -0.782  10.226  18.774  0.00  0.00    +0.000 C 
ATOM      7  C   UNL     1       0.607  10.221  19.434  0.00  0.00    +0.000 C 
ATOM      8  C   UNL     1       1.253  11.620  19.441  0.00  0.00    +0.000 C 
ENDROOT
BRANCH   7   9
ATOM      9  C   UNL     1       1.500   9.238  18.729  0.00  0.00    +0.000 A 
ATOM     10  N   UNL     1       2.015   9.407  17.525  0.00  0.00    +0.000 NA
ATOM     11  N   UNL     1       2.756   8.309  17.225  0.00  0.00    +0.000 NA
ATOM     12  C   UNL     1       2.705   7.473  18.239  0.00  0.00    +0.000 A 
ATOM     13  N   UNL     1       1.941   8.045  19.233  0.00  0.00    +0.000 N 
ATOM     14  C   UNL     1       1.678   7.503  20.551  0.00  0.00    +0.000 C 
ATOM     15  C   UNL     1       1.348   6.017  20.529  0.00  0.00    +0.000 C 
ATOM     16  C   UNL     1       2.586   5.121  20.482  0.00  0.00    +0.000 C 
ATOM     17  C   UNL     1       3.752   5.644  19.642  0.00  0.00    +0.000 C 
ATOM     18  C   UNL     1       3.337   6.126  18.260  0.00  0.00    +0.000 C 
ENDBRANCH   7   9
BRANCH   2  19
ATOM     19  C   UNL     1      -0.156  14.515  21.527  0.00  0.00    +0.000 A 
ATOM     20  C   UNL     1      -0.463  15.725  20.906  0.00  0.00    +0.000 A 
ATOM     21  C   UNL     1      -1.522  16.500  21.384  0.00  0.00    +0.000 A 
ATOM     22  C   UNL     1      -2.225  16.094  22.521  0.00  0.00    +0.000 A 
ATOM     23  C   UNL     1      -1.855  14.932  23.229  0.00  0.00    +0.000 A 
ATOM     24  C   UNL     1      -0.791  14.163  22.732  0.00  0.00    +0.000 A 
BRANCH  23  25
ATOM     25  C   UNL     1      -2.534  14.548  24.554  0.00  0.00    +0.000 C 
BRANCH  25  26
ATOM     26  N   UNL     1      -3.861  14.002  24.316  0.00  0.00    +0.000 N 
ATOM     27  C   UNL     1      -3.921  12.841  23.588  0.00  0.00    +0.000 C 
ATOM     28  O   UNL     1      -3.295  11.809  23.739  0.00  0.00    +0.000 OA
ATOM     29  C   UNL     1      -4.726  13.156  22.411  0.00  0.00    +0.000 A 
ATOM     30  C   UNL     1      -4.549  12.632  21.146  0.00  0.00    +0.000 A 
ATOM     31  C   UNL     1      -4.999  13.406  20.074  0.00  0.00    +0.000 A 
ATOM     32  C   UNL     1      -5.638  14.645  20.291  0.00  0.00    +0.000 A 
ATOM     33  C   UNL     1      -5.813  15.150  21.583  0.00  0.00    +0.000 A 
ATOM     34  C   UNL     1      -5.314  14.389  22.623  0.00  0.00    +0.000 A 
ATOM     35  C   UNL     1      -4.843  14.878  23.918  0.00  0.00    +0.000 C 
ATOM     36  O   UNL     1      -5.169  15.937  24.422  0.00  0.00    +0.000 OA
ENDBRANCH  25  26
ENDBRANCH  23  25
ENDBRANCH   2  19
TORSDOF 4
ENDMDL
MODEL 2
REMARK VINA RESULT:      -8.1      5.020      8.577
REMARK  Name = 
REMARK  4 active torsions:
REMARK  status: ('A' for Active; 'I' for Inactive)
REMARK    1  A    between atoms: C_2  and  C_3
REMARK    2  A    between atoms: C_7  and  C_8
REMARK    3  A    between atoms: C_8  and  N_9
REMARK    4  A    between atoms: C_25  and  C_26
REMARK                            x       y       z     vdW  Elec       q    Type
REMARK                         _______ _______ _______ _____ _____    ______ ____
ROOT
ATOM      1  O   UNL     1       3.141  13.700  21.913  0.00  0.00    +0.000 OA
ATOM      2  C   UNL     1       2.417  13.952  20.952  0.00  0.00    +0.000 C 
ATOM      3  N   UNL     1       2.801  14.820  19.923  0.00  0.00    +0.000 N 
ATOM      4  C   UNL     1       2.001  15.228  18.765  0.00  0.00    +0.000 C 
ATOM      5  C   UNL     1       2.740  14.998  17.457  0.00  0.00    +0.000 C 
ATOM      6  C   UNL     1       4.086  15.701  17.462  0.00  0.00    +0.000 C 
ATOM      7  C   UNL     1       4.917  15.336  18.703  0.00  0.00    +0.000 C 
ATOM      8  C   UNL     1       4.108  15.481  20.007  0.00  0.00    +0.000 C 
ENDROOT
BRANCH   7   9
ATOM      9  C   UNL     1       6.151  16.192  18.758  0.00  0.00    +0.000 A 
ATOM     10  N   UNL     1       6.160  17.512  18.758  0.00  0.00    +0.000 NA
ATOM     11  N   UNL     1       7.454  17.925  18.807  0.00  0.00    +0.000 NA
ATOM     12  C   UNL     1       8.235  16.868  18.845  0.00  0.00    +0.000 A 
ATOM     13  N   UNL     1       7.440  15.743  18.850  0.00  0.00    +0.000 N 
ATOM     14  C   UNL     1       7.879  14.365  18.954  0.00  0.00    +0.000 C 
ATOM     15  C   UNL     1       9.088  14.058  18.081  0.00  0.00    +0.000 C 
ATOM     16  C   UNL     1      10.417  14.460  18.721  0.00  0.00    +0.000 C 
ATOM     17  C   UNL     1      10.395  15.747  19.546  0.00  0.00    +0.000 C 
ATOM     18  C   UNL     1       9.722  16.912  18.835  0.00  0.00    +0.000 C 
ENDBRANCH   7   9
BRANCH   2  19
ATOM     19  C   UNL     1       1.141  13.195  20.841  0.00  0.00    +0.000 A 
ATOM     20  C   UNL     1      -0.094  13.754  21.170  0.00  0.00    +0.000 A 
ATOM     21  C   UNL     1      -1.270  13.087  20.825  0.00  0.00    +0.000 A 
ATOM     22  C   UNL     1      -1.206  11.832  20.213  0.00  0.00    +0.000 A 
ATOM     23  C   UNL     1       0.032  11.200  19.976  0.00  0.00    +0.000 A 
ATOM     24  C   UNL     1       1.205  11.888  20.325  0.00  0.00    +0.000 A 
BRANCH  23  25
ATOM     25  C   UNL     1       0.111   9.766  19.427  0.00  0.00    +0.000 C 
BRANCH  25  26
ATOM     26  N   UNL     1       1.437   9.207  19.633  0.00  0.00    +0.000 N 
ATOM     27  C   UNL     1       2.085   8.745  18.515  0.00  0.00    +0.000 C 
ATOM     28  O   UNL     1       2.255   9.299  17.446  0.00  0.00    +0.000 OA
ATOM     29  C   UNL     1       2.336   7.329  18.763  0.00  0.00    +0.000 A 
ATOM     30  C   UNL     1       2.326   6.326  17.813  0.00  0.00    +0.000 A 
ATOM     31  C   UNL     1       2.037   5.036  18.260  0.00  0.00    +0.000 A 
ATOM     32  C   UNL     1       1.806   4.775  19.627  0.00  0.00    +0.000 A 
ATOM     33  C   UNL     1       1.829   5.807  20.571  0.00  0.00    +0.000 A 
ATOM     34  C   UNL     1       2.068   7.082  20.097  0.00  0.00    +0.000 A 
ATOM     35  C   UNL     1       1.601   8.336  20.685  0.00  0.00    +0.000 C 
ATOM     36  O   UNL     1       1.282   8.482  21.851  0.00  0.00    +0.000 OA
ENDBRANCH  25  26
ENDBRANCH  23  25
ENDBRANCH   2  19
TORSDOF 4
ENDMDL
MODEL 3
REMARK VINA RESULT:      -8.1      3.648     10.468
REMARK  Name = 
REMARK  4 active torsions:
REMARK  status: ('A' for Active; 'I' for Inactive)
REMARK    1  A    between atoms: C_2  and  C_3
REMARK    2  A    between atoms: C_7  and  C_8
REMARK    3  A    between atoms: C_8  and  N_9
REMARK    4  A    between atoms: C_25  and  C_26
REMARK                            x       y       z     vdW  Elec       q    Type
REMARK                         _______ _______ _______ _____ _____    ______ ____
ROOT
ATOM      1  O   UNL     1       1.717   6.934  20.744  0.00  0.00    +0.000 OA
ATOM      2  C   UNL     1       1.919   7.573  19.714  0.00  0.00    +0.000 C 
ATOM      3  N   UNL     1       1.311   8.808  19.458  0.00  0.00    +0.000 N 
ATOM      4  C   UNL     1       1.441   9.624  18.248  0.00  0.00    +0.000 C 
ATOM      5  C   UNL     1       1.854  11.051  18.569  0.00  0.00    +0.000 C 
ATOM      6  C   UNL     1       0.888  11.688  19.553  0.00  0.00    +0.000 C 
ATOM      7  C   UNL     1       0.688  10.816  20.803  0.00  0.00    +0.000 C 
ATOM      8  C   UNL     1       0.372   9.351  20.446  0.00  0.00    +0.000 C 
ENDROOT
BRANCH   7   9
ATOM      9  C   UNL     1      -0.409  11.393  21.654  0.00  0.00    +0.000 A 
ATOM     10  N   UNL     1      -0.400  11.443  22.973  0.00  0.00    +0.000 NA
ATOM     11  N   UNL     1      -1.559  12.023  23.382  0.00  0.00    +0.000 NA
ATOM     12  C   UNL     1      -2.272  12.336  22.323  0.00  0.00    +0.000 A 
ATOM     13  N   UNL     1      -1.557  11.981  21.199  0.00  0.00    +0.000 N 
ATOM     14  C   UNL     1      -1.935  12.206  19.818  0.00  0.00    +0.000 C 
ATOM     15  C   UNL     1      -3.397  11.884  19.540  0.00  0.00    +0.000 C 
ATOM     16  C   UNL     1      -4.350  13.019  19.916  0.00  0.00    +0.000 C 
ATOM     17  C   UNL     1      -3.981  13.809  21.172  0.00  0.00    +0.000 C 
ATOM     18  C   UNL     1      -3.637  12.928  22.364  0.00  0.00    +0.000 C 
ENDBRANCH   7   9
BRANCH   2  19
ATOM     19  C   UNL     1       2.948   7.049  18.776  0.00  0.00    +0.000 A 
ATOM     20  C   UNL     1       3.218   7.650  17.547  0.00  0.00    +0.000 A 
ATOM     21  C   UNL     1       4.344   7.263  16.819  0.00  0.00    +0.000 A 
ATOM     22  C   UNL     1       5.160   6.231  17.292  0.00  0.00    +0.000 A 
ATOM     23  C   UNL     1       4.839   5.535  18.475  0.00  0.00    +0.000 A 
ATOM     24  C   UNL     1       3.705   5.941  19.197  0.00  0.00    +0.000 A 
BRANCH  23  25
ATOM     25  C   UNL     1       5.650   4.312  18.935  0.00  0.00    +0.000 C 
BRANCH  25  26
ATOM     26  N   UNL     1       4.861   3.096  18.820  0.00  0.00    +0.000 N 
ATOM     27  C   UNL     1       3.837   3.118  17.907  0.00  0.00    +0.000 C 
ATOM     28  O   UNL     1       3.858   3.464  16.741  0.00  0.00    +0.000 OA
ATOM     29  C   UNL     1       2.621   2.867  18.674  0.00  0.00    +0.000 A 
ATOM     30  C   UNL     1       1.376   3.409  18.419  0.00  0.00    +0.000 A 
ATOM     31  C   UNL     1       0.502   3.520  19.502  0.00  0.00    +0.000 A 
ATOM     32  C   UNL     1       0.872   3.061  20.784  0.00  0.00    +0.000 A 
ATOM     33  C   UNL     1       2.136   2.508  21.016  0.00  0.00    +0.000 A 
ATOM     34  C   UNL     1       3.000   2.455  19.939  0.00  0.00    +0.000 A 
ATOM     35  C   UNL     1       4.461   2.489  19.987  0.00  0.00    +0.000 C 
ATOM     36  O   UNL     1       5.132   2.180  20.954  0.00  0.00    +0.000 OA
ENDBRANCH  25  26
ENDBRANCH  23  25
ENDBRANCH   2  19
TORSDOF 4
ENDMDL
MODEL 4
REMARK VINA RESULT:      -8.0      3.610     10.546
REMARK  Name = 
REMARK  4 active torsions:
REMARK  status: ('A' for Active; 'I' for Inactive)
REMARK    1  A    between atoms: C_2  and  C_3
REMARK    2  A    between atoms: C_7  and  C_8
REMARK    3  A    between atoms: C_8  and  N_9
REMARK    4  A    between atoms: C_25  and  C_26
REMARK                            x       y       z     vdW  Elec       q    Type
REMARK                         _______ _______ _______ _____ _____    ______ ____
ROOT
ATOM      1  O   UNL     1       1.927   7.076  21.036  0.00  0.00    +0.000 OA
ATOM      2  C   UNL     1       1.969   7.635  19.943  0.00  0.00    +0.000 C 
ATOM      3  N   UNL     1       1.272   8.820  19.673  0.00  0.00    +0.000 N 
ATOM      4  C   UNL     1       1.211   9.538  18.397  0.00  0.00    +0.000 C 
ATOM      5  C   UNL     1       1.586  11.003  18.554  0.00  0.00    +0.000 C 
ATOM      6  C   UNL     1       0.717  11.678  19.601  0.00  0.00    +0.000 C 
ATOM      7  C   UNL     1       0.716  10.904  20.929  0.00  0.00    +0.000 C 
ATOM      8  C   UNL     1       0.434   9.402  20.727  0.00  0.00    +0.000 C 
ENDROOT
BRANCH   7   9
ATOM      9  C   UNL     1      -0.296  11.502  21.865  0.00  0.00    +0.000 A 
ATOM     10  N   UNL     1      -1.223  10.825  22.516  0.00  0.00    +0.000 NA
ATOM     11  N   UNL     1      -1.950  11.705  23.253  0.00  0.00    +0.000 NA
ATOM     12  C   UNL     1      -1.470  12.914  23.064  0.00  0.00    +0.000 A 
ATOM     13  N   UNL     1      -0.391  12.823  22.211  0.00  0.00    +0.000 N 
ATOM     14  C   UNL     1       0.478  13.902  21.785  0.00  0.00    +0.000 C 
ATOM     15  C   UNL     1      -0.282  15.168  21.415  0.00  0.00    +0.000 C 
ATOM     16  C   UNL     1      -0.650  16.030  22.623  0.00  0.00    +0.000 C 
ATOM     17  C   UNL     1      -1.034  15.267  23.892  0.00  0.00    +0.000 C 
ATOM     18  C   UNL     1      -2.044  14.156  23.649  0.00  0.00    +0.000 C 
ENDBRANCH   7   9
BRANCH   2  19
ATOM     19  C   UNL     1       2.900   7.080  18.925  0.00  0.00    +0.000 A 
ATOM     20  C   UNL     1       3.059   7.649  17.662  0.00  0.00    +0.000 A 
ATOM     21  C   UNL     1       4.108   7.233  16.841  0.00  0.00    +0.000 A 
ATOM     22  C   UNL     1       4.956   6.204  17.261  0.00  0.00    +0.000 A 
ATOM     23  C   UNL     1       4.742   5.539  18.485  0.00  0.00    +0.000 A 
ATOM     24  C   UNL     1       3.684   5.973  19.300  0.00  0.00    +0.000 A 
BRANCH  23  25
ATOM     25  C   UNL     1       5.583   4.318  18.895  0.00  0.00    +0.000 C 
BRANCH  25  26
ATOM     26  N   UNL     1       4.792   3.099  18.826  0.00  0.00    +0.000 N 
ATOM     27  C   UNL     1       3.717   3.118  17.972  0.00  0.00    +0.000 C 
ATOM     28  O   UNL     1       3.671   3.463  16.807  0.00  0.00    +0.000 OA
ATOM     29  C   UNL     1       2.548   2.863  18.808  0.00  0.00    +0.000 A 
ATOM     30  C   UNL     1       1.289   3.402  18.623  0.00  0.00    +0.000 A 
ATOM     31  C   UNL     1       0.477   3.511  19.754  0.00  0.00    +0.000 A 
ATOM     32  C   UNL     1       0.921   3.053  21.013  0.00  0.00    +0.000 A 
ATOM     33  C   UNL     1       2.197   2.504  21.173  0.00  0.00    +0.000 A 
ATOM     34  C   UNL     1       2.999   2.453  20.049  0.00  0.00    +0.000 A 
ATOM     35  C   UNL     1       4.460   2.492  20.014  0.00  0.00    +0.000 C 
ATOM     36  O   UNL     1       5.187   2.185  20.941  0.00  0.00    +0.000 OA
ENDBRANCH  25  26
ENDBRANCH  23  25
ENDBRANCH   2  19
TORSDOF 4
ENDMDL
MODEL 5
REMARK VINA RESULT:      -8.0      1.913      3.029
REMARK  Name = 
REMARK  4 active torsions:
REMARK  status: ('A' for Active; 'I' for Inactive)
REMARK    1  A    between atoms: C_2  and  C_3
REMARK    2  A    between atoms: C_7  and  C_8
REMARK    3  A    between atoms: C_8  and  N_9
REMARK    4  A    between atoms: C_25  and  C_26
REMARK                            x       y       z     vdW  Elec       q    Type
REMARK                         _______ _______ _______ _____ _____    ______ ____
ROOT
ATOM      1  O   UNL     1      -0.449   8.925  21.755  0.00  0.00    +0.000 OA
ATOM      2  C   UNL     1      -0.015   9.738  20.942  0.00  0.00    +0.000 C 
ATOM      3  N   UNL     1       1.079   9.467  20.112  0.00  0.00    +0.000 N 
ATOM      4  C   UNL     1       1.706  10.377  19.149  0.00  0.00    +0.000 C 
ATOM      5  C   UNL     1       1.809   9.754  17.766  0.00  0.00    +0.000 C 
ATOM      6  C   UNL     1       2.548   8.428  17.821  0.00  0.00    +0.000 C 
ATOM      7  C   UNL     1       1.945   7.481  18.871  0.00  0.00    +0.000 C 
ATOM      8  C   UNL     1       1.757   8.171  20.237  0.00  0.00    +0.000 C 
ENDROOT
BRANCH   7   9
ATOM      9  C   UNL     1       2.817   6.265  19.018  0.00  0.00    +0.000 A 
ATOM     10  N   UNL     1       4.024   6.129  18.501  0.00  0.00    +0.000 NA
ATOM     11  N   UNL     1       4.491   4.899  18.839  0.00  0.00    +0.000 NA
ATOM     12  C   UNL     1       3.583   4.285  19.566  0.00  0.00    +0.000 A 
ATOM     13  N   UNL     1       2.513   5.138  19.732  0.00  0.00    +0.000 N 
ATOM     14  C   UNL     1       1.320   4.897  20.519  0.00  0.00    +0.000 C 
ATOM     15  C   UNL     1       0.754   3.497  20.329  0.00  0.00    +0.000 C 
ATOM     16  C   UNL     1       1.451   2.439  21.186  0.00  0.00    +0.000 C 
ATOM     17  C   UNL     1       2.959   2.621  21.369  0.00  0.00    +0.000 C 
ATOM     18  C   UNL     1       3.701   2.890  20.068  0.00  0.00    +0.000 C 
ENDBRANCH   7   9
BRANCH   2  19
ATOM     19  C   UNL     1      -0.779  11.002  20.766  0.00  0.00    +0.000 A 
ATOM     20  C   UNL     1      -1.429  11.327  19.576  0.00  0.00    +0.000 A 
ATOM     21  C   UNL     1      -2.318  12.403  19.544  0.00  0.00    +0.000 A 
ATOM     22  C   UNL     1      -2.504  13.189  20.685  0.00  0.00    +0.000 A 
ATOM     23  C   UNL     1      -1.770  12.945  21.864  0.00  0.00    +0.000 A 
ATOM     24  C   UNL     1      -0.883  11.857  21.879  0.00  0.00    +0.000 A 
BRANCH  23  25
ATOM     25  C   UNL     1      -1.865  13.882  23.079  0.00  0.00    +0.000 C 
BRANCH  25  26
ATOM     26  N   UNL     1      -3.251  14.073  23.476  0.00  0.00    +0.000 N 
ATOM     27  C   UNL     1      -4.046  12.954  23.473  0.00  0.00    +0.000 C 
ATOM     28  O   UNL     1      -3.834  11.864  23.969  0.00  0.00    +0.000 OA
ATOM     29  C   UNL     1      -5.125  13.241  22.534  0.00  0.00    +0.000 A 
ATOM     30  C   UNL     1      -5.743  12.324  21.706  0.00  0.00    +0.000 A 
ATOM     31  C   UNL     1      -6.321  12.819  20.535  0.00  0.00    +0.000 A 
ATOM     32  C   UNL     1      -6.301  14.199  20.243  0.00  0.00    +0.000 A 
ATOM     33  C   UNL     1      -5.676  15.109  21.102  0.00  0.00    +0.000 A 
ATOM     34  C   UNL     1      -5.068  14.589  22.228  0.00  0.00    +0.000 A 
ATOM     35  C   UNL     1      -3.921  15.148  22.941  0.00  0.00    +0.000 C 
ATOM     36  O   UNL     1      -3.580  16.316  22.903  0.00  0.00    +0.000 OA
ENDBRANCH  25  26
ENDBRANCH  23  25
ENDBRANCH   2  19
TORSDOF 4
ENDMDL
MODEL 6
REMARK VINA RESULT:      -8.0      2.710      3.975
REMARK  Name = 
REMARK  4 active torsions:
REMARK  status: ('A' for Active; 'I' for Inactive)
REMARK    1  A    between atoms: C_2  and  C_3
REMARK    2  A    between atoms: C_7  and  C_8
REMARK    3  A    between atoms: C_8  and  N_9
REMARK    4  A    between atoms: C_25  and  C_26
REMARK                            x       y       z     vdW  Elec       q    Type
REMARK                         _______ _______ _______ _____ _____    ______ ____
ROOT
ATOM      1  O   UNL     1      -0.092   8.036  21.907  0.00  0.00    +0.000 OA
ATOM      2  C   UNL     1       0.181   9.072  21.305  0.00  0.00    +0.000 C 
ATOM      3  N   UNL     1       1.148   9.127  20.293  0.00  0.00    +0.000 N 
ATOM      4  C   UNL     1       1.585  10.313  19.551  0.00  0.00    +0.000 C 
ATOM      5  C   UNL     1       1.504  10.101  18.048  0.00  0.00    +0.000 C 
ATOM      6  C   UNL     1       2.295   8.875  17.628  0.00  0.00    +0.000 C 
ATOM      7  C   UNL     1       1.897   7.632  18.440  0.00  0.00    +0.000 C 
ATOM      8  C   UNL     1       1.888   7.906  19.957  0.00  0.00    +0.000 C 
ENDROOT
BRANCH   7   9
ATOM      9  C   UNL     1       2.829   6.497  18.122  0.00  0.00    +0.000 A 
ATOM     10  N   UNL     1       3.986   6.617  17.497  0.00  0.00    +0.000 NA
ATOM     11  N   UNL     1       4.535   5.379  17.385  0.00  0.00    +0.000 NA
ATOM     12  C   UNL     1       3.728   4.505  17.943  0.00  0.00    +0.000 A 
ATOM     13  N   UNL     1       2.643   5.183  18.456  0.00  0.00    +0.000 N 
ATOM     14  C   UNL     1       1.542   4.622  19.213  0.00  0.00    +0.000 C 
ATOM     15  C   UNL     1       1.020   3.317  18.629  0.00  0.00    +0.000 C 
ATOM     16  C   UNL     1       1.840   2.095  19.043  0.00  0.00    +0.000 C 
ATOM     17  C   UNL     1       3.349   2.316  19.159  0.00  0.00    +0.000 C 
ATOM     18  C   UNL     1       3.952   3.034  17.960  0.00  0.00    +0.000 C 
ENDBRANCH   7   9
BRANCH   2  19
ATOM     19  C   UNL     1      -0.651  10.270  21.596  0.00  0.00    +0.000 A 
ATOM     20  C   UNL     1      -0.650  10.900  22.840  0.00  0.00    +0.000 A 
ATOM     21  C   UNL     1      -1.261  12.147  22.986  0.00  0.00    +0.000 A 
ATOM     22  C   UNL     1      -1.927  12.728  21.904  0.00  0.00    +0.000 A 
ATOM     23  C   UNL     1      -2.036  12.054  20.670  0.00  0.00    +0.000 A 
ATOM     24  C   UNL     1      -1.412  10.804  20.540  0.00  0.00    +0.000 A 
BRANCH  23  25
ATOM     25  C   UNL     1      -2.879  12.622  19.516  0.00  0.00    +0.000 C 
BRANCH  25  26
ATOM     26  N   UNL     1      -4.299  12.456  19.783  0.00  0.00    +0.000 N 
ATOM     27  C   UNL     1      -5.024  11.784  18.831  0.00  0.00    +0.000 C 
ATOM     28  O   UNL     1      -4.785  10.716  18.300  0.00  0.00    +0.000 OA
ATOM     29  C   UNL     1      -6.048  12.722  18.381  0.00  0.00    +0.000 A 
ATOM     30  C   UNL     1      -6.548  12.820  17.098  0.00  0.00    +0.000 A 
ATOM     31  C   UNL     1      -7.068  14.057  16.716  0.00  0.00    +0.000 A 
ATOM     32  C   UNL     1      -7.109  15.139  17.621  0.00  0.00    +0.000 A 
ATOM     33  C   UNL     1      -6.603  15.013  18.918  0.00  0.00    +0.000 A 
ATOM     34  C   UNL     1      -6.049  13.793  19.256  0.00  0.00    +0.000 A 
ATOM     35  C   UNL     1      -4.991  13.554  20.237  0.00  0.00    +0.000 C 
ATOM     36  O   UNL     1      -4.718  14.298  21.161  0.00  0.00    +0.000 OA
ENDBRANCH  25  26
ENDBRANCH  23  25
ENDBRANCH   2  19
TORSDOF 4
ENDMDL
MODEL 7
REMARK VINA RESULT:      -7.9      2.284      3.934
REMARK  Name = 
REMARK  4 active torsions:
REMARK  status: ('A' for Active; 'I' for Inactive)
REMARK    1  A    between atoms: C_2  and  C_3
REMARK    2  A    between atoms: C_7  and  C_8
REMARK    3  A    between atoms: C_8  and  N_9
REMARK    4  A    between atoms: C_25  and  C_26
REMARK                            x       y       z     vdW  Elec       q    Type
REMARK                         _______ _______ _______ _____ _____    ______ ____
ROOT
ATOM      1  O   UNL     1       2.479  11.150  17.412  0.00  0.00    +0.000 OA
ATOM      2  C   UNL     1       1.807  11.000  18.429  0.00  0.00    +0.000 C 
ATOM      3  N   UNL     1       1.471   9.737  18.934  0.00  0.00    +0.000 N 
ATOM      4  C   UNL     1       0.637   9.446  20.103  0.00  0.00    +0.000 C 
ATOM      5  C   UNL     1       1.338   8.517  21.080  0.00  0.00    +0.000 C 
ATOM      6  C   UNL     1       1.778   7.236  20.393  0.00  0.00    +0.000 C 
ATOM      7  C   UNL     1       2.601   7.520  19.127  0.00  0.00    +0.000 C 
ATOM      8  C   UNL     1       1.913   8.544  18.203  0.00  0.00    +0.000 C 
ENDROOT
BRANCH   7   9
ATOM      9  C   UNL     1       2.853   6.237  18.386  0.00  0.00    +0.000 A 
ATOM     10  N   UNL     1       2.027   5.208  18.347  0.00  0.00    +0.000 NA
ATOM     11  N   UNL     1       2.599   4.236  17.590  0.00  0.00    +0.000 NA
ATOM     12  C   UNL     1       3.765   4.666  17.159  0.00  0.00    +0.000 A 
ATOM     13  N   UNL     1       3.948   5.952  17.617  0.00  0.00    +0.000 N 
ATOM     14  C   UNL     1       5.063   6.831  17.326  0.00  0.00    +0.000 C 
ATOM     15  C   UNL     1       6.412   6.129  17.405  0.00  0.00    +0.000 C 
ATOM     16  C   UNL     1       6.772   5.361  16.134  0.00  0.00    +0.000 C 
ATOM     17  C   UNL     1       5.608   4.671  15.422  0.00  0.00    +0.000 C 
ATOM     18  C   UNL     1       4.722   3.858  16.354  0.00  0.00    +0.000 C 
ENDBRANCH   7   9
BRANCH   2  19
ATOM     19  C   UNL     1       1.456  12.220  19.203  0.00  0.00    +0.000 A 
ATOM     20  C   UNL     1       2.415  13.133  19.641  0.00  0.00    +0.000 A 
ATOM     21  C   UNL     1       2.014  14.369  20.151  0.00  0.00    +0.000 A 
ATOM     22  C   UNL     1       0.653  14.661  20.282  0.00  0.00    +0.000 A 
ATOM     23  C   UNL     1      -0.331  13.706  19.951  0.00  0.00    +0.000 A 
ATOM     24  C   UNL     1       0.091  12.471  19.436  0.00  0.00    +0.000 A 
BRANCH  23  25
ATOM     25  C   UNL     1      -1.823  13.965  20.217  0.00  0.00    +0.000 C 
BRANCH  25  26
ATOM     26  N   UNL     1      -2.449  12.800  20.823  0.00  0.00    +0.000 N 
ATOM     27  C   UNL     1      -3.688  12.455  20.343  0.00  0.00    +0.000 C 
ATOM     28  O   UNL     1      -4.049  12.311  19.191  0.00  0.00    +0.000 OA
ATOM     29  C   UNL     1      -4.587  12.524  21.491  0.00  0.00    +0.000 A 
ATOM     30  C   UNL     1      -5.910  12.917  21.459  0.00  0.00    +0.000 A 
ATOM     31  C   UNL     1      -6.441  13.445  22.638  0.00  0.00    +0.000 A 
ATOM     32  C   UNL     1      -5.660  13.532  23.810  0.00  0.00    +0.000 A 
ATOM     33  C   UNL     1      -4.323  13.120  23.819  0.00  0.00    +0.000 A 
ATOM     34  C   UNL     1      -3.808  12.648  22.627  0.00  0.00    +0.000 A 
ATOM     35  C   UNL     1      -2.413  12.703  22.194  0.00  0.00    +0.000 C 
ATOM     36  O   UNL     1      -1.456  12.804  22.940  0.00  0.00    +0.000 OA
ENDBRANCH  25  26
ENDBRANCH  23  25
ENDBRANCH   2  19
TORSDOF 4
ENDMDL
MODEL 8
REMARK VINA RESULT:      -7.9      2.292      4.237
REMARK  Name = 
REMARK  4 active torsions:
REMARK  status: ('A' for Active; 'I' for Inactive)
REMARK    1  A    between atoms: C_2  and  C_3
REMARK    2  A    between atoms: C_7  and  C_8
REMARK    3  A    between atoms: C_8  and  N_9
REMARK    4  A    between atoms: C_25  and  C_26
REMARK                            x       y       z     vdW  Elec       q    Type
REMARK                         _______ _______ _______ _____ _____    ______ ____
ROOT
ATOM      1  O   UNL     1      -0.377   8.934  21.784  0.00  0.00    +0.000 OA
ATOM      2  C   UNL     1       0.062   9.774  21.003  0.00  0.00    +0.000 C 
ATOM      3  N   UNL     1       1.134   9.517  20.139  0.00  0.00    +0.000 N 
ATOM      4  C   UNL     1       1.766  10.457  19.210  0.00  0.00    +0.000 C 
ATOM      5  C   UNL     1       1.827   9.900  17.797  0.00  0.00    +0.000 C 
ATOM      6  C   UNL     1       2.532   8.554  17.772  0.00  0.00    +0.000 C 
ATOM      7  C   UNL     1       1.925   7.573  18.788  0.00  0.00    +0.000 C 
ATOM      8  C   UNL     1       1.779   8.200  20.188  0.00  0.00    +0.000 C 
ENDROOT
BRANCH   7   9
ATOM      9  C   UNL     1       2.767   6.330  18.859  0.00  0.00    +0.000 A 
ATOM     10  N   UNL     1       3.914   6.153  18.231  0.00  0.00    +0.000 NA
ATOM     11  N   UNL     1       4.372   4.910  18.530  0.00  0.00    +0.000 NA
ATOM     12  C   UNL     1       3.518   4.328  19.343  0.00  0.00    +0.000 A 
ATOM     13  N   UNL     1       2.497   5.215  19.604  0.00  0.00    +0.000 N 
ATOM     14  C   UNL     1       1.376   5.015  20.502  0.00  0.00    +0.000 C 
ATOM     15  C   UNL     1       0.750   3.634  20.375  0.00  0.00    +0.000 C 
ATOM     16  C   UNL     1       1.491   2.556  21.168  0.00  0.00    +0.000 C 
ATOM     17  C   UNL     1       3.014   2.690  21.207  0.00  0.00    +0.000 C 
ATOM     18  C   UNL     1       3.638   2.931  19.840  0.00  0.00    +0.000 C 
ENDBRANCH   7   9
BRANCH   2  19
ATOM     19  C   UNL     1      -0.672  11.065  20.904  0.00  0.00    +0.000 A 
ATOM     20  C   UNL     1      -1.454  11.400  19.799  0.00  0.00    +0.000 A 
ATOM     21  C   UNL     1      -2.301  12.508  19.860  0.00  0.00    +0.000 A 
ATOM     22  C   UNL     1      -2.314  13.313  21.003  0.00  0.00    +0.000 A 
ATOM     23  C   UNL     1      -1.447  13.056  22.084  0.00  0.00    +0.000 A 
ATOM     24  C   UNL     1      -0.605  11.935  22.007  0.00  0.00    +0.000 A 
BRANCH  23  25
ATOM     25  C   UNL     1      -1.356  14.010  23.287  0.00  0.00    +0.000 C 
BRANCH  25  26
ATOM     26  N   UNL     1      -0.600  15.204  22.942  0.00  0.00    +0.000 N 
ATOM     27  C   UNL     1      -1.331  16.288  22.525  0.00  0.00    +0.000 C 
ATOM     28  O   UNL     1      -2.305  16.799  23.043  0.00  0.00    +0.000 OA
ATOM     29  C   UNL     1      -0.858  16.586  21.177  0.00  0.00    +0.000 A 
ATOM     30  C   UNL     1      -1.628  17.068  20.137  0.00  0.00    +0.000 A 
ATOM     31  C   UNL     1      -1.193  16.780  18.842  0.00  0.00    +0.000 A 
ATOM     32  C   UNL     1       0.001  16.061  18.621  0.00  0.00    +0.000 A 
ATOM     33  C   UNL     1       0.769  15.590  19.691  0.00  0.00    +0.000 A 
ATOM     34  C   UNL     1       0.290  15.845  20.961  0.00  0.00    +0.000 A 
ATOM     35  C   UNL     1       0.520  15.041  22.161  0.00  0.00    +0.000 C 
ATOM     36  O   UNL     1       1.452  14.275  22.317  0.00  0.00    +0.000 OA
ENDBRANCH  25  26
ENDBRANCH  23  25
ENDBRANCH   2  19
TORSDOF 4
ENDMDL
MODEL 9
REMARK VINA RESULT:      -7.9      2.361      3.930
REMARK  Name = 
REMARK  4 active torsions:
REMARK  status: ('A' for Active; 'I' for Inactive)
REMARK    1  A    between atoms: C_2  and  C_3
REMARK    2  A    between atoms: C_7  and  C_8
REMARK    3  A    between atoms: C_8  and  N_9
REMARK    4  A    between atoms: C_25  and  C_26
REMARK                            x       y       z     vdW  Elec       q    Type
REMARK                         _______ _______ _______ _____ _____    ______ ____
ROOT
ATOM      1  O   UNL     1       2.190  11.031  17.655  0.00  0.00    +0.000 OA
ATOM      2  C   UNL     1       1.547  10.779  18.672  0.00  0.00    +0.000 C 
ATOM      3  N   UNL     1       1.315   9.472  19.117  0.00  0.00    +0.000 N 
ATOM      4  C   UNL     1       0.524   9.061  20.280  0.00  0.00    +0.000 C 
ATOM      5  C   UNL     1       1.309   8.141  21.201  0.00  0.00    +0.000 C 
ATOM      6  C   UNL     1       1.834   6.932  20.445  0.00  0.00    +0.000 C 
ATOM      7  C   UNL     1       2.613   7.341  19.185  0.00  0.00    +0.000 C 
ATOM      8  C   UNL     1       1.835   8.353  18.322  0.00  0.00    +0.000 C 
ENDROOT
BRANCH   7   9
ATOM      9  C   UNL     1       2.949   6.118  18.378  0.00  0.00    +0.000 A 
ATOM     10  N   UNL     1       2.171   5.061  18.240  0.00  0.00    +0.000 NA
ATOM     11  N   UNL     1       2.814   4.163  17.450  0.00  0.00    +0.000 NA
ATOM     12  C   UNL     1       3.976   4.666  17.096  0.00  0.00    +0.000 A 
ATOM     13  N   UNL     1       4.085   5.927  17.639  0.00  0.00    +0.000 N 
ATOM     14  C   UNL     1       5.172   6.868  17.450  0.00  0.00    +0.000 C 
ATOM     15  C   UNL     1       6.546   6.218  17.544  0.00  0.00    +0.000 C 
ATOM     16  C   UNL     1       6.989   5.547  16.244  0.00  0.00    +0.000 C 
ATOM     17  C   UNL     1       5.884   4.856  15.442  0.00  0.00    +0.000 C 
ATOM     18  C   UNL     1       4.998   3.951  16.284  0.00  0.00    +0.000 C 
ENDBRANCH   7   9
BRANCH   2  19
ATOM     19  C   UNL     1       1.117  11.931  19.510  0.00  0.00    +0.000 A 
ATOM     20  C   UNL     1       2.018  12.705  20.241  0.00  0.00    +0.000 A 
ATOM     21  C   UNL     1       1.594  13.904  20.815  0.00  0.00    +0.000 A 
ATOM     22  C   UNL     1       0.255  14.292  20.711  0.00  0.00    +0.000 A 
ATOM     23  C   UNL     1      -0.694  13.467  20.074  0.00  0.00    +0.000 A 
ATOM     24  C   UNL     1      -0.249  12.266  19.500  0.00  0.00    +0.000 A 
BRANCH  23  25
ATOM     25  C   UNL     1      -2.191  13.817  20.071  0.00  0.00    +0.000 C 
BRANCH  25  26
ATOM     26  N   UNL     1      -2.988  12.683  20.512  0.00  0.00    +0.000 N 
ATOM     27  C   UNL     1      -3.893  12.186  19.608  0.00  0.00    +0.000 C 
ATOM     28  O   UNL     1      -3.721  11.881  18.443  0.00  0.00    +0.000 OA
ATOM     29  C   UNL     1      -5.199  12.314  20.248  0.00  0.00    +0.000 A 
ATOM     30  C   UNL     1      -6.390  12.591  19.606  0.00  0.00    +0.000 A 
ATOM     31  C   UNL     1      -7.387  13.207  20.365  0.00  0.00    +0.000 A 
ATOM     32  C   UNL     1      -7.187  13.492  21.732  0.00  0.00    +0.000 A 
ATOM     33  C   UNL     1      -5.974  13.194  22.361  0.00  0.00    +0.000 A 
ATOM     34  C   UNL     1      -4.986  12.631  21.577  0.00  0.00    +0.000 A 
ATOM     35  C   UNL     1      -3.541  12.749  21.770  0.00  0.00    +0.000 C 
ATOM     36  O   UNL     1      -3.000  13.013  22.827  0.00  0.00    +0.000 OA
ENDBRANCH  25  26
ENDBRANCH  23  25
ENDBRANCH   2  19
TORSDOF 4
ENDMDL
