MODEL 1
REMARK VINA RESULT:      -8.9      0.000      0.000
REMARK  Name = 
REMARK  6 active torsions:
REMARK  status: ('A' for Active; 'I' for Inactive)
REMARK    1  A    between atoms: C_2  and  C_4
REMARK    2  A    between atoms: C_4  and  C_5
REMARK    3  A    between atoms: N_13  and  C_14
REMARK    4  A    between atoms: C_14  and  C_15
REMARK    5  A    between atoms: C_17  and  C_18
REMARK    6  A    between atoms: C_22  and  C_23
REMARK                            x       y       z     vdW  Elec       q    Type
REMARK                         _______ _______ _______ _____ _____    ______ ____
ROOT
ATOM      1  C   UNL     1       3.784   3.817  18.163  0.00  0.00    +0.000 C 
ATOM      2  C   UNL     1       4.162   3.875  19.666  0.00  0.00    +0.000 C 
ATOM      3  C   UNL     1       2.924   4.421  20.348  0.00  0.00    +0.000 C 
ATOM      4  N   UNL     1       2.413   5.447  19.433  0.00  0.00    +0.000 NA
ATOM      5  C   UNL     1       2.669   4.905  18.079  0.00  0.00    +0.000 C 
ENDROOT
BRANCH   1   6
ATOM      6  C   UNL     1       5.011   4.076  17.268  0.00  0.00    +0.000 A 
ATOM      7  C   UNL     1       4.948   3.970  15.869  0.00  0.00    +0.000 A 
ATOM      8  C   UNL     1       6.058   4.266  15.069  0.00  0.00    +0.000 A 
ATOM      9  C   UNL     1       7.260   4.658  15.653  0.00  0.00    +0.000 A 
ATOM     10  C   UNL     1       7.362   4.720  17.037  0.00  0.00    +0.000 A 
ATOM     11  C   UNL     1       6.258   4.413  17.835  0.00  0.00    +0.000 A 
ENDBRANCH   1   6
BRANCH   1  13
ATOM     12  N   UNL     1       3.923   1.326  18.204  0.00  0.00    +0.000 N 
ATOM     13  C   UNL     1       3.194   2.421  17.837  0.00  0.00    +0.000 C 
ATOM     14  O   UNL     1       2.100   2.247  17.305  0.00  0.00    +0.000 OA
ATOM     15  H   UNL     1       3.518   0.419  18.006  0.00  0.00    +0.000 HD
ATOM     16  H   UNL     1       4.770   1.361  18.751  0.00  0.00    +0.000 HD
ENDBRANCH   1  13
BRANCH   4  17
ATOM     17  C   UNL     1       3.069   6.763  19.599  0.00  0.00    +0.000 C 
BRANCH  17  18
ATOM     18  C   UNL     1       2.294   7.907  19.035  0.00  0.00    +0.000 A 
ATOM     19  N   UNL     1       1.224   8.515  19.491  0.00  0.00    +0.000 NA
ATOM     20  C   UNL     1       0.963   9.447  18.512  0.00  0.00    +0.000 A 
ATOM     21  N   UNL     1       1.834   9.417  17.488  0.00  0.00    +0.000 NA
ATOM     22  O   UNL     1       2.718   8.397  17.835  0.00  0.00    +0.000 OA
BRANCH  20  23
ATOM     23  C   UNL     1      -0.177  10.352  18.592  0.00  0.00    +0.000 A 
ATOM     24  C   UNL     1      -0.119  11.474  19.430  0.00  0.00    +0.000 A 
ATOM     25  C   UNL     1      -1.211  12.341  19.535  0.00  0.00    +0.000 A 
ATOM     26  C   UNL     1      -2.368  12.098  18.798  0.00  0.00    +0.000 A 
ATOM     27  C   UNL     1      -2.449  10.989  17.945  0.00  0.00    +0.000 A 
ATOM     28  C   UNL     1      -1.346  10.120  17.850  0.00  0.00    +0.000 A 
BRANCH  27  29
ATOM     29  C   UNL     1      -3.691  10.715  17.135  0.00  0.00    +0.000 C 
ATOM     30  F   UNL     1      -4.778  10.404  17.894  0.00  0.00    +0.000 F 
ATOM     31  F   UNL     1      -4.063  11.781  16.373  0.00  0.00    +0.000 F 
ATOM     32  F   UNL     1      -3.530   9.675  16.270  0.00  0.00    +0.000 F 
ENDBRANCH  27  29
ENDBRANCH  20  23
ENDBRANCH  17  18
ENDBRANCH   4  17
TORSDOF 6
ENDMDL
MODEL 2
REMARK VINA RESULT:      -8.8      2.254      2.755
REMARK  Name = 
REMARK  6 active torsions:
REMARK  status: ('A' for Active; 'I' for Inactive)
REMARK    1  A    between atoms: C_2  and  C_4
REMARK    2  A    between atoms: C_4  and  C_5
REMARK    3  A    between atoms: N_13  and  C_14
REMARK    4  A    between atoms: C_14  and  C_15
REMARK    5  A    between atoms: C_17  and  C_18
REMARK    6  A    between atoms: C_22  and  C_23
REMARK                            x       y       z     vdW  Elec       q    Type
REMARK                         _______ _______ _______ _____ _____    ______ ____
ROOT
ATOM      1  C   UNL     1       3.684   3.814  18.191  0.00  0.00    +0.000 C 
ATOM      2  C   UNL     1       3.981   3.846  19.713  0.00  0.00    +0.000 C 
ATOM      3  C   UNL     1       2.719   4.406  20.335  0.00  0.00    +0.000 C 
ATOM      4  N   UNL     1       2.275   5.452  19.407  0.00  0.00    +0.000 NA
ATOM      5  C   UNL     1       2.594   4.921  18.062  0.00  0.00    +0.000 C 
ENDROOT
BRANCH   1   6
ATOM      6  C   UNL     1       4.962   4.061  17.367  0.00  0.00    +0.000 A 
ATOM      7  C   UNL     1       4.996   3.883  15.974  0.00  0.00    +0.000 A 
ATOM      8  C   UNL     1       6.149   4.170  15.235  0.00  0.00    +0.000 A 
ATOM      9  C   UNL     1       7.299   4.624  15.875  0.00  0.00    +0.000 A 
ATOM     10  C   UNL     1       7.307   4.758  17.258  0.00  0.00    +0.000 A 
ATOM     11  C   UNL     1       6.159   4.461  17.996  0.00  0.00    +0.000 A 
ENDBRANCH   1   6
BRANCH   1  13
ATOM     12  N   UNL     1       3.761   1.319  18.235  0.00  0.00    +0.000 N 
ATOM     13  C   UNL     1       3.089   2.432  17.816  0.00  0.00    +0.000 C 
ATOM     14  O   UNL     1       2.035   2.285  17.200  0.00  0.00    +0.000 OA
ATOM     15  H   UNL     1       3.352   0.422  18.003  0.00  0.00    +0.000 HD
ATOM     16  H   UNL     1       4.563   1.334  18.846  0.00  0.00    +0.000 HD
ENDBRANCH   1  13
BRANCH   4  17
ATOM     17  C   UNL     1       2.944   6.754  19.626  0.00  0.00    +0.000 C 
BRANCH  17  18
ATOM     18  C   UNL     1       2.096   7.938  19.301  0.00  0.00    +0.000 A 
ATOM     19  N   UNL     1       1.274   8.628  20.058  0.00  0.00    +0.000 NA
ATOM     20  C   UNL     1       0.760   9.557  19.181  0.00  0.00    +0.000 A 
ATOM     21  N   UNL     1       1.240   9.446  17.930  0.00  0.00    +0.000 NA
ATOM     22  O   UNL     1       2.127   8.373  18.009  0.00  0.00    +0.000 OA
BRANCH  20  23
ATOM     23  C   UNL     1      -0.233  10.540  19.594  0.00  0.00    +0.000 A 
ATOM     24  C   UNL     1      -0.905  11.301  18.627  0.00  0.00    +0.000 A 
ATOM     25  C   UNL     1      -1.846  12.263  19.008  0.00  0.00    +0.000 A 
ATOM     26  C   UNL     1      -2.129  12.469  20.357  0.00  0.00    +0.000 A 
ATOM     27  C   UNL     1      -1.478  11.715  21.343  0.00  0.00    +0.000 A 
ATOM     28  C   UNL     1      -0.529  10.752  20.950  0.00  0.00    +0.000 A 
BRANCH  27  29
ATOM     29  C   UNL     1      -1.777  11.919  22.807  0.00  0.00    +0.000 C 
ATOM     30  F   UNL     1      -3.044  12.358  23.047  0.00  0.00    +0.000 F 
ATOM     31  F   UNL     1      -1.636  10.776  23.533  0.00  0.00    +0.000 F 
ATOM     32  F   UNL     1      -0.950  12.834  23.385  0.00  0.00    +0.000 F 
ENDBRANCH  27  29
ENDBRANCH  20  23
ENDBRANCH  17  18
ENDBRANCH   4  17
TORSDOF 6
ENDMDL
MODEL 3
REMARK VINA RESULT:      -8.7      2.909      4.326
REMARK  Name = 
REMARK  6 active torsions:
REMARK  status: ('A' for Active; 'I' for Inactive)
REMARK    1  A    between atoms: C_2  and  C_4
REMARK    2  A    between atoms: C_4  and  C_5
REMARK    3  A    between atoms: N_13  and  C_14
REMARK    4  A    between atoms: C_14  and  C_15
REMARK    5  A    between atoms: C_17  and  C_18
REMARK    6  A    between atoms: C_22  and  C_23
REMARK                            x       y       z     vdW  Elec       q    Type
REMARK                         _______ _______ _______ _____ _____    ______ ____
ROOT
ATOM      1  C   UNL     1       4.048   4.949  18.546  0.00  0.00    +0.000 C 
ATOM      2  C   UNL     1       4.175   4.940  17.001  0.00  0.00    +0.000 C 
ATOM      3  C   UNL     1       4.803   6.277  16.664  0.00  0.00    +0.000 C 
ATOM      4  N   UNL     1       4.173   7.230  17.584  0.00  0.00    +0.000 NA
ATOM      5  C   UNL     1       4.005   6.478  18.849  0.00  0.00    +0.000 C 
ENDROOT
BRANCH   1   6
ATOM      6  C   UNL     1       2.807   4.162  19.009  0.00  0.00    +0.000 A 
ATOM      7  C   UNL     1       2.120   3.284  18.154  0.00  0.00    +0.000 A 
ATOM      8  C   UNL     1       1.030   2.533  18.609  0.00  0.00    +0.000 A 
ATOM      9  C   UNL     1       0.592   2.658  19.925  0.00  0.00    +0.000 A 
ATOM     10  C   UNL     1       1.222   3.558  20.775  0.00  0.00    +0.000 A 
ATOM     11  C   UNL     1       2.302   4.316  20.317  0.00  0.00    +0.000 A 
ENDBRANCH   1   6
BRANCH   1  13
ATOM     12  N   UNL     1       5.343   2.959  19.316  0.00  0.00    +0.000 N 
ATOM     13  C   UNL     1       5.320   4.317  19.168  0.00  0.00    +0.000 C 
ATOM     14  O   UNL     1       6.314   4.960  19.496  0.00  0.00    +0.000 OA
ATOM     15  H   UNL     1       6.187   2.555  19.703  0.00  0.00    +0.000 HD
ATOM     16  H   UNL     1       4.631   2.335  18.967  0.00  0.00    +0.000 HD
ENDBRANCH   1  13
BRANCH   4  17
ATOM     17  C   UNL     1       2.868   7.738  17.103  0.00  0.00    +0.000 C 
BRANCH  17  18
ATOM     18  C   UNL     1       2.202   8.691  18.037  0.00  0.00    +0.000 A 
ATOM     19  N   UNL     1       1.663   8.487  19.217  0.00  0.00    +0.000 NA
ATOM     20  C   UNL     1       1.177   9.733  19.548  0.00  0.00    +0.000 A 
ATOM     21  N   UNL     1       1.403  10.670  18.612  0.00  0.00    +0.000 NA
ATOM     22  O   UNL     1       2.083   9.981  17.609  0.00  0.00    +0.000 OA
BRANCH  20  23
ATOM     23  C   UNL     1       0.464   9.975  20.796  0.00  0.00    +0.000 A 
ATOM     24  C   UNL     1       0.679   9.133  21.897  0.00  0.00    +0.000 A 
ATOM     25  C   UNL     1      -0.013   9.339  23.094  0.00  0.00    +0.000 A 
ATOM     26  C   UNL     1      -0.919  10.392  23.206  0.00  0.00    +0.000 A 
ATOM     27  C   UNL     1      -1.144  11.255  22.125  0.00  0.00    +0.000 A 
ATOM     28  C   UNL     1      -0.447  11.037  20.921  0.00  0.00    +0.000 A 
BRANCH  27  29
ATOM     29  C   UNL     1      -2.115  12.403  22.230  0.00  0.00    +0.000 C 
ATOM     30  F   UNL     1      -3.071  12.398  21.259  0.00  0.00    +0.000 F 
ATOM     31  F   UNL     1      -2.788  12.411  23.414  0.00  0.00    +0.000 F 
ATOM     32  F   UNL     1      -1.501  13.615  22.140  0.00  0.00    +0.000 F 
ENDBRANCH  27  29
ENDBRANCH  20  23
ENDBRANCH  17  18
ENDBRANCH   4  17
TORSDOF 6
ENDMDL
MODEL 4
REMARK VINA RESULT:      -8.7      0.697      1.340
REMARK  Name = 
REMARK  6 active torsions:
REMARK  status: ('A' for Active; 'I' for Inactive)
REMARK    1  A    between atoms: C_2  and  C_4
REMARK    2  A    between atoms: C_4  and  C_5
REMARK    3  A    between atoms: N_13  and  C_14
REMARK    4  A    between atoms: C_14  and  C_15
REMARK    5  A    between atoms: C_17  and  C_18
REMARK    6  A    between atoms: C_22  and  C_23
REMARK                            x       y       z     vdW  Elec       q    Type
REMARK                         _______ _______ _______ _____ _____    ______ ____
ROOT
ATOM      1  C   UNL     1       3.622   3.737  18.383  0.00  0.00    +0.000 C 
ATOM      2  C   UNL     1       3.839   3.634  19.916  0.00  0.00    +0.000 C 
ATOM      3  C   UNL     1       2.539   4.129  20.517  0.00  0.00    +0.000 C 
ATOM      4  N   UNL     1       2.134   5.252  19.663  0.00  0.00    +0.000 NA
ATOM      5  C   UNL     1       2.529   4.845  18.295  0.00  0.00    +0.000 C 
ENDROOT
BRANCH   1   6
ATOM      6  C   UNL     1       4.939   4.064  17.653  0.00  0.00    +0.000 A 
ATOM      7  C   UNL     1       6.074   4.531  18.337  0.00  0.00    +0.000 A 
ATOM      8  C   UNL     1       7.278   4.768  17.666  0.00  0.00    +0.000 A 
ATOM      9  C   UNL     1       7.369   4.560  16.293  0.00  0.00    +0.000 A 
ATOM     10  C   UNL     1       6.247   4.149  15.585  0.00  0.00    +0.000 A 
ATOM     11  C   UNL     1       5.041   3.924  16.254  0.00  0.00    +0.000 A 
ENDBRANCH   1   6
BRANCH   1  13
ATOM     12  N   UNL     1       3.746   1.252  18.174  0.00  0.00    +0.000 N 
ATOM     13  C   UNL     1       3.062   2.391  17.855  0.00  0.00    +0.000 C 
ATOM     14  O   UNL     1       2.025   2.289  17.203  0.00  0.00    +0.000 OA
ATOM     15  H   UNL     1       3.360   0.377  17.843  0.00  0.00    +0.000 HD
ATOM     16  H   UNL     1       4.535   1.219  18.803  0.00  0.00    +0.000 HD
ENDBRANCH   1  13
BRANCH   4  17
ATOM     17  C   UNL     1       2.777   6.533  20.032  0.00  0.00    +0.000 C 
BRANCH  17  18
ATOM     18  C   UNL     1       2.237   7.718  19.303  0.00  0.00    +0.000 A 
ATOM     19  N   UNL     1       1.327   8.594  19.663  0.00  0.00    +0.000 NA
ATOM     20  C   UNL     1       1.235   9.408  18.555  0.00  0.00    +0.000 A 
ATOM     21  N   UNL     1       2.052   9.050  17.549  0.00  0.00    +0.000 NA
ATOM     22  O   UNL     1       2.717   7.930  18.044  0.00  0.00    +0.000 OA
BRANCH  20  23
ATOM     23  C   UNL     1       0.308  10.531  18.499  0.00  0.00    +0.000 A 
ATOM     24  C   UNL     1       0.752  11.820  18.827  0.00  0.00    +0.000 A 
ATOM     25  C   UNL     1      -0.129  12.904  18.798  0.00  0.00    +0.000 A 
ATOM     26  C   UNL     1      -1.461  12.713  18.434  0.00  0.00    +0.000 A 
ATOM     27  C   UNL     1      -1.928  11.437  18.092  0.00  0.00    +0.000 A 
ATOM     28  C   UNL     1      -1.035  10.350  18.128  0.00  0.00    +0.000 A 
BRANCH  27  29
ATOM     29  C   UNL     1      -3.364  11.213  17.689  0.00  0.00    +0.000 C 
ATOM     30  F   UNL     1      -3.603  11.459  16.370  0.00  0.00    +0.000 F 
ATOM     31  F   UNL     1      -3.774   9.934  17.908  0.00  0.00    +0.000 F 
ATOM     32  F   UNL     1      -4.230  12.007  18.378  0.00  0.00    +0.000 F 
ENDBRANCH  27  29
ENDBRANCH  20  23
ENDBRANCH  17  18
ENDBRANCH   4  17
TORSDOF 6
ENDMDL
MODEL 5
REMARK VINA RESULT:      -8.6      2.245      2.832
REMARK  Name = 
REMARK  6 active torsions:
REMARK  status: ('A' for Active; 'I' for Inactive)
REMARK    1  A    between atoms: C_2  and  C_4
REMARK    2  A    between atoms: C_4  and  C_5
REMARK    3  A    between atoms: N_13  and  C_14
REMARK    4  A    between atoms: C_14  and  C_15
REMARK    5  A    between atoms: C_17  and  C_18
REMARK    6  A    between atoms: C_22  and  C_23
REMARK                            x       y       z     vdW  Elec       q    Type
REMARK                         _______ _______ _______ _____ _____    ______ ____
ROOT
ATOM      1  C   UNL     1       3.694   3.961  18.169  0.00  0.00    +0.000 C 
ATOM      2  C   UNL     1       3.995   4.048  19.688  0.00  0.00    +0.000 C 
ATOM      3  C   UNL     1       2.724   4.605  20.296  0.00  0.00    +0.000 C 
ATOM      4  N   UNL     1       2.259   5.612  19.336  0.00  0.00    +0.000 NA
ATOM      5  C   UNL     1       2.583   5.044  18.008  0.00  0.00    +0.000 C 
ENDROOT
BRANCH   1   6
ATOM      6  C   UNL     1       4.964   4.206  17.332  0.00  0.00    +0.000 A 
ATOM      7  C   UNL     1       6.196   4.529  17.925  0.00  0.00    +0.000 A 
ATOM      8  C   UNL     1       7.352   4.690  17.153  0.00  0.00    +0.000 A 
ATOM      9  C   UNL     1       7.298   4.549  15.769  0.00  0.00    +0.000 A 
ATOM     10  C   UNL     1       6.081   4.281  15.154  0.00  0.00    +0.000 A 
ATOM     11  C   UNL     1       4.925   4.132  15.925  0.00  0.00    +0.000 A 
ENDBRANCH   1   6
BRANCH   1  13
ATOM     12  N   UNL     1       3.872   1.472  18.195  0.00  0.00    +0.000 N 
ATOM     13  C   UNL     1       3.124   2.558  17.841  0.00  0.00    +0.000 C 
ATOM     14  O   UNL     1       2.028   2.369  17.317  0.00  0.00    +0.000 OA
ATOM     15  H   UNL     1       3.480   0.560  17.996  0.00  0.00    +0.000 HD
ATOM     16  H   UNL     1       4.723   1.518  18.736  0.00  0.00    +0.000 HD
ENDBRANCH   1  13
BRANCH   4  17
ATOM     17  C   UNL     1       2.904   6.933  19.510  0.00  0.00    +0.000 C 
BRANCH  17  18
ATOM     18  C   UNL     1       2.020   8.091  19.187  0.00  0.00    +0.000 A 
ATOM     19  N   UNL     1       1.116   8.699  19.919  0.00  0.00    +0.000 NA
ATOM     20  C   UNL     1       0.615   9.649  19.055  0.00  0.00    +0.000 A 
ATOM     21  N   UNL     1       1.183   9.627  17.837  0.00  0.00    +0.000 NA
ATOM     22  O   UNL     1       2.116   8.595  17.923  0.00  0.00    +0.000 OA
BRANCH  20  23
ATOM     23  C   UNL     1      -0.452  10.561  19.447  0.00  0.00    +0.000 A 
ATOM     24  C   UNL     1      -1.343  11.048  18.481  0.00  0.00    +0.000 A 
ATOM     25  C   UNL     1      -2.359  11.940  18.836  0.00  0.00    +0.000 A 
ATOM     26  C   UNL     1      -2.500  12.347  20.161  0.00  0.00    +0.000 A 
ATOM     27  C   UNL     1      -1.629  11.867  21.149  0.00  0.00    +0.000 A 
ATOM     28  C   UNL     1      -0.606  10.973  20.781  0.00  0.00    +0.000 A 
BRANCH  27  29
ATOM     29  C   UNL     1      -1.771  12.292  22.589  0.00  0.00    +0.000 C 
ATOM     30  F   UNL     1      -0.623  12.798  23.122  0.00  0.00    +0.000 F 
ATOM     31  F   UNL     1      -2.717  13.256  22.759  0.00  0.00    +0.000 F 
ATOM     32  F   UNL     1      -2.136  11.262  23.402  0.00  0.00    +0.000 F 
ENDBRANCH  27  29
ENDBRANCH  20  23
ENDBRANCH  17  18
ENDBRANCH   4  17
TORSDOF 6
ENDMDL
MODEL 6
REMARK VINA RESULT:      -8.6      3.132      4.568
REMARK  Name = 
REMARK  6 active torsions:
REMARK  status: ('A' for Active; 'I' for Inactive)
REMARK    1  A    between atoms: C_2  and  C_4
REMARK    2  A    between atoms: C_4  and  C_5
REMARK    3  A    between atoms: N_13  and  C_14
REMARK    4  A    between atoms: C_14  and  C_15
REMARK    5  A    between atoms: C_17  and  C_18
REMARK    6  A    between atoms: C_22  and  C_23
REMARK                            x       y       z     vdW  Elec       q    Type
REMARK                         _______ _______ _______ _____ _____    ______ ____
ROOT
ATOM      1  C   UNL     1       4.049   4.925  18.529  0.00  0.00    +0.000 C 
ATOM      2  C   UNL     1       4.174   4.931  16.983  0.00  0.00    +0.000 C 
ATOM      3  C   UNL     1       4.781   6.279  16.656  0.00  0.00    +0.000 C 
ATOM      4  N   UNL     1       4.139   7.216  17.585  0.00  0.00    +0.000 NA
ATOM      5  C   UNL     1       3.985   6.451  18.844  0.00  0.00    +0.000 C 
ENDROOT
BRANCH   1   6
ATOM      6  C   UNL     1       2.821   4.116  18.988  0.00  0.00    +0.000 A 
ATOM      7  C   UNL     1       2.206   4.336  20.232  0.00  0.00    +0.000 A 
ATOM      8  C   UNL     1       1.056   3.632  20.607  0.00  0.00    +0.000 A 
ATOM      9  C   UNL     1       0.505   2.681  19.752  0.00  0.00    +0.000 A 
ATOM     10  C   UNL     1       1.124   2.408  18.538  0.00  0.00    +0.000 A 
ATOM     11  C   UNL     1       2.279   3.103  18.170  0.00  0.00    +0.000 A 
ENDBRANCH   1   6
BRANCH   1  13
ATOM     12  N   UNL     1       5.358   2.953  19.321  0.00  0.00    +0.000 N 
ATOM     13  C   UNL     1       5.331   4.307  19.143  0.00  0.00    +0.000 C 
ATOM     14  O   UNL     1       6.330   4.958  19.442  0.00  0.00    +0.000 OA
ATOM     15  H   UNL     1       6.209   2.557  19.702  0.00  0.00    +0.000 HD
ATOM     16  H   UNL     1       4.641   2.321  18.996  0.00  0.00    +0.000 HD
ENDBRANCH   1  13
BRANCH   4  17
ATOM     17  C   UNL     1       2.826   7.708  17.110  0.00  0.00    +0.000 C 
BRANCH  17  18
ATOM     18  C   UNL     1       2.171   8.684  18.029  0.00  0.00    +0.000 A 
ATOM     19  N   UNL     1       1.631   8.505  19.212  0.00  0.00    +0.000 NA
ATOM     20  C   UNL     1       1.160   9.762  19.524  0.00  0.00    +0.000 A 
ATOM     21  N   UNL     1       1.395  10.681  18.571  0.00  0.00    +0.000 NA
ATOM     22  O   UNL     1       2.067   9.967  17.580  0.00  0.00    +0.000 OA
BRANCH  20  23
ATOM     23  C   UNL     1       0.451  10.033  20.768  0.00  0.00    +0.000 A 
ATOM     24  C   UNL     1       0.208   8.991  21.673  0.00  0.00    +0.000 A 
ATOM     25  C   UNL     1      -0.489   9.229  22.861  0.00  0.00    +0.000 A 
ATOM     26  C   UNL     1      -0.943  10.512  23.160  0.00  0.00    +0.000 A 
ATOM     27  C   UNL     1      -0.706  11.574  22.276  0.00  0.00    +0.000 A 
ATOM     28  C   UNL     1      -0.007  11.323  21.080  0.00  0.00    +0.000 A 
BRANCH  27  29
ATOM     29  C   UNL     1      -1.183  12.971  22.586  0.00  0.00    +0.000 C 
ATOM     30  F   UNL     1      -0.172  13.845  22.849  0.00  0.00    +0.000 F 
ATOM     31  F   UNL     1      -1.892  13.519  21.561  0.00  0.00    +0.000 F 
ATOM     32  F   UNL     1      -2.004  13.012  23.672  0.00  0.00    +0.000 F 
ENDBRANCH  27  29
ENDBRANCH  20  23
ENDBRANCH  17  18
ENDBRANCH   4  17
TORSDOF 6
ENDMDL
MODEL 7
REMARK VINA RESULT:      -8.4      2.251      2.747
REMARK  Name = 
REMARK  6 active torsions:
REMARK  status: ('A' for Active; 'I' for Inactive)
REMARK    1  A    between atoms: C_2  and  C_4
REMARK    2  A    between atoms: C_4  and  C_5
REMARK    3  A    between atoms: N_13  and  C_14
REMARK    4  A    between atoms: C_14  and  C_15
REMARK    5  A    between atoms: C_17  and  C_18
REMARK    6  A    between atoms: C_22  and  C_23
REMARK                            x       y       z     vdW  Elec       q    Type
REMARK                         _______ _______ _______ _____ _____    ______ ____
ROOT
ATOM      1  C   UNL     1       3.926   4.221  18.143  0.00  0.00    +0.000 C 
ATOM      2  C   UNL     1       4.326   4.922  19.468  0.00  0.00    +0.000 C 
ATOM      3  C   UNL     1       3.029   5.498  19.998  0.00  0.00    +0.000 C 
ATOM      4  N   UNL     1       2.323   5.990  18.810  0.00  0.00    +0.000 NA
ATOM      5  C   UNL     1       2.636   5.004  17.751  0.00  0.00    +0.000 C 
ENDROOT
BRANCH   1   6
ATOM      6  C   UNL     1       5.066   4.290  17.109  0.00  0.00    +0.000 A 
ATOM      7  C   UNL     1       4.845   4.062  15.740  0.00  0.00    +0.000 A 
ATOM      8  C   UNL     1       5.881   4.187  14.808  0.00  0.00    +0.000 A 
ATOM      9  C   UNL     1       7.165   4.525  15.226  0.00  0.00    +0.000 A 
ATOM     10  C   UNL     1       7.421   4.704  16.580  0.00  0.00    +0.000 A 
ATOM     11  C   UNL     1       6.389   4.568  17.511  0.00  0.00    +0.000 A 
ENDBRANCH   1   6
BRANCH   1  13
ATOM     12  N   UNL     1       4.400   2.055  19.290  0.00  0.00    +0.000 N 
ATOM     13  C   UNL     1       3.583   2.737  18.433  0.00  0.00    +0.000 C 
ATOM     14  O   UNL     1       2.605   2.157  17.968  0.00  0.00    +0.000 OA
ATOM     15  H   UNL     1       4.154   1.093  19.489  0.00  0.00    +0.000 HD
ATOM     16  H   UNL     1       5.152   2.475  19.815  0.00  0.00    +0.000 HD
ENDBRANCH   1  13
BRANCH   4  17
ATOM     17  C   UNL     1       2.741   7.349  18.398  0.00  0.00    +0.000 C 
BRANCH  17  18
ATOM     18  C   UNL     1       1.824   8.434  18.854  0.00  0.00    +0.000 A 
ATOM     19  N   UNL     1       1.341   8.693  20.047  0.00  0.00    +0.000 NA
ATOM     20  C   UNL     1       0.529   9.781  19.816  0.00  0.00    +0.000 A 
ATOM     21  N   UNL     1       0.507  10.180  18.532  0.00  0.00    +0.000 NA
ATOM     22  O   UNL     1       1.366   9.288  17.893  0.00  0.00    +0.000 OA
BRANCH  20  23
ATOM     23  C   UNL     1      -0.245  10.405  20.882  0.00  0.00    +0.000 A 
ATOM     24  C   UNL     1      -0.179   9.891  22.184  0.00  0.00    +0.000 A 
ATOM     25  C   UNL     1      -0.931  10.465  23.214  0.00  0.00    +0.000 A 
ATOM     26  C   UNL     1      -1.749  11.563  22.954  0.00  0.00    +0.000 A 
ATOM     27  C   UNL     1      -1.825  12.103  21.663  0.00  0.00    +0.000 A 
ATOM     28  C   UNL     1      -1.068  11.515  20.632  0.00  0.00    +0.000 A 
BRANCH  27  29
ATOM     29  C   UNL     1      -2.699  13.295  21.365  0.00  0.00    +0.000 C 
ATOM     30  F   UNL     1      -2.155  14.154  20.457  0.00  0.00    +0.000 F 
ATOM     31  F   UNL     1      -3.912  12.940  20.860  0.00  0.00    +0.000 F 
ATOM     32  F   UNL     1      -2.958  14.042  22.474  0.00  0.00    +0.000 F 
ENDBRANCH  27  29
ENDBRANCH  20  23
ENDBRANCH  17  18
ENDBRANCH   4  17
TORSDOF 6
ENDMDL
MODEL 8
REMARK VINA RESULT:      -8.4      2.587      3.087
REMARK  Name = 
REMARK  6 active torsions:
REMARK  status: ('A' for Active; 'I' for Inactive)
REMARK    1  A    between atoms: C_2  and  C_4
REMARK    2  A    between atoms: C_4  and  C_5
REMARK    3  A    between atoms: N_13  and  C_14
REMARK    4  A    between atoms: C_14  and  C_15
REMARK    5  A    between atoms: C_17  and  C_18
REMARK    6  A    between atoms: C_22  and  C_23
REMARK                            x       y       z     vdW  Elec       q    Type
REMARK                         _______ _______ _______ _____ _____    ______ ____
ROOT
ATOM      1  C   UNL     1       3.699   3.881  18.090  0.00  0.00    +0.000 C 
ATOM      2  C   UNL     1       4.013   4.087  19.595  0.00  0.00    +0.000 C 
ATOM      3  C   UNL     1       2.713   4.589  20.189  0.00  0.00    +0.000 C 
ATOM      4  N   UNL     1       2.162   5.496  19.175  0.00  0.00    +0.000 NA
ATOM      5  C   UNL     1       2.510   4.868  17.880  0.00  0.00    +0.000 C 
ENDROOT
BRANCH   1   6
ATOM      6  C   UNL     1       4.937   4.161  17.217  0.00  0.00    +0.000 A 
ATOM      7  C   UNL     1       4.893   4.086  15.815  0.00  0.00    +0.000 A 
ATOM      8  C   UNL     1       6.012   4.402  15.037  0.00  0.00    +0.000 A 
ATOM      9  C   UNL     1       7.205   4.783  15.644  0.00  0.00    +0.000 A 
ATOM     10  C   UNL     1       7.290   4.814  17.030  0.00  0.00    +0.000 A 
ATOM     11  C   UNL     1       6.175   4.488  17.807  0.00  0.00    +0.000 A 
ENDBRANCH   1   6
BRANCH   1  13
ATOM     12  N   UNL     1       4.043   1.418  18.303  0.00  0.00    +0.000 N 
ATOM     13  C   UNL     1       3.228   2.421  17.862  0.00  0.00    +0.000 C 
ATOM     14  O   UNL     1       2.154   2.121  17.345  0.00  0.00    +0.000 OA
ATOM     15  H   UNL     1       3.716   0.469  18.168  0.00  0.00    +0.000 HD
ATOM     16  H   UNL     1       4.882   1.561  18.845  0.00  0.00    +0.000 HD
ENDBRANCH   1  13
BRANCH   4  17
ATOM     17  C   UNL     1       2.711   6.868  19.253  0.00  0.00    +0.000 C 
BRANCH  17  18
ATOM     18  C   UNL     1       1.812   7.847  19.932  0.00  0.00    +0.000 A 
ATOM     19  N   UNL     1       1.323   8.988  19.504  0.00  0.00    +0.000 NA
ATOM     20  C   UNL     1       0.612   9.440  20.594  0.00  0.00    +0.000 A 
ATOM     21  N   UNL     1       0.660   8.615  21.654  0.00  0.00    +0.000 NA
ATOM     22  O   UNL     1       1.455   7.558  21.216  0.00  0.00    +0.000 OA
BRANCH  20  23
ATOM     23  C   UNL     1      -0.096  10.714  20.577  0.00  0.00    +0.000 A 
ATOM     24  C   UNL     1      -0.118  11.485  19.406  0.00  0.00    +0.000 A 
ATOM     25  C   UNL     1      -0.775  12.719  19.380  0.00  0.00    +0.000 A 
ATOM     26  C   UNL     1      -1.422  13.191  20.520  0.00  0.00    +0.000 A 
ATOM     27  C   UNL     1      -1.424  12.436  21.701  0.00  0.00    +0.000 A 
ATOM     28  C   UNL     1      -0.756  11.197  21.719  0.00  0.00    +0.000 A 
BRANCH  27  29
ATOM     29  C   UNL     1      -2.125  12.927  22.942  0.00  0.00    +0.000 C 
ATOM     30  F   UNL     1      -1.303  13.586  23.806  0.00  0.00    +0.000 F 
ATOM     31  F   UNL     1      -3.139  13.793  22.661  0.00  0.00    +0.000 F 
ATOM     32  F   UNL     1      -2.686  11.915  23.660  0.00  0.00    +0.000 F 
ENDBRANCH  27  29
ENDBRANCH  20  23
ENDBRANCH  17  18
ENDBRANCH   4  17
TORSDOF 6
ENDMDL
MODEL 9
REMARK VINA RESULT:      -8.4      2.573      3.261
REMARK  Name = 
REMARK  6 active torsions:
REMARK  status: ('A' for Active; 'I' for Inactive)
REMARK    1  A    between atoms: C_2  and  C_4
REMARK    2  A    between atoms: C_4  and  C_5
REMARK    3  A    between atoms: N_13  and  C_14
REMARK    4  A    between atoms: C_14  and  C_15
REMARK    5  A    between atoms: C_17  and  C_18
REMARK    6  A    between atoms: C_22  and  C_23
REMARK                            x       y       z     vdW  Elec       q    Type
REMARK                         _______ _______ _______ _____ _____    ______ ____
ROOT
ATOM      1  C   UNL     1       3.676   3.937  18.118  0.00  0.00    +0.000 C 
ATOM      2  C   UNL     1       3.984   4.121  19.626  0.00  0.00    +0.000 C 
ATOM      3  C   UNL     1       2.681   4.611  20.223  0.00  0.00    +0.000 C 
ATOM      4  N   UNL     1       2.132   5.532  19.222  0.00  0.00    +0.000 NA
ATOM      5  C   UNL     1       2.486   4.924  17.918  0.00  0.00    +0.000 C 
ENDROOT
BRANCH   1   6
ATOM      6  C   UNL     1       4.916   4.234  17.254  0.00  0.00    +0.000 A 
ATOM      7  C   UNL     1       6.168   4.525  17.822  0.00  0.00    +0.000 A 
ATOM      8  C   UNL     1       7.296   4.734  17.021  0.00  0.00    +0.000 A 
ATOM      9  C   UNL     1       7.194   4.674  15.634  0.00  0.00    +0.000 A 
ATOM     10  C   UNL     1       5.957   4.439  15.046  0.00  0.00    +0.000 A 
ATOM     11  C   UNL     1       4.829   4.242  15.846  0.00  0.00    +0.000 A 
ENDBRANCH   1   6
BRANCH   1  13
ATOM     12  N   UNL     1       4.032   1.472  18.280  0.00  0.00    +0.000 N 
ATOM     13  C   UNL     1       3.209   2.480  17.866  0.00  0.00    +0.000 C 
ATOM     14  O   UNL     1       2.132   2.185  17.351  0.00  0.00    +0.000 OA
ATOM     15  H   UNL     1       3.707   0.524  18.131  0.00  0.00    +0.000 HD
ATOM     16  H   UNL     1       4.874   1.608  18.819  0.00  0.00    +0.000 HD
ENDBRANCH   1  13
BRANCH   4  17
ATOM     17  C   UNL     1       2.677   6.904  19.323  0.00  0.00    +0.000 C 
BRANCH  17  18
ATOM     18  C   UNL     1       1.770   7.873  20.005  0.00  0.00    +0.000 A 
ATOM     19  N   UNL     1       1.103   8.895  19.522  0.00  0.00    +0.000 NA
ATOM     20  C   UNL     1       0.494   9.416  20.642  0.00  0.00    +0.000 A 
ATOM     21  N   UNL     1       0.775   8.747  21.774  0.00  0.00    +0.000 NA
ATOM     22  O   UNL     1       1.620   7.722  21.352  0.00  0.00    +0.000 OA
BRANCH  20  23
ATOM     23  C   UNL     1      -0.351  10.603  20.579  0.00  0.00    +0.000 A 
ATOM     24  C   UNL     1      -0.696  11.147  19.334  0.00  0.00    +0.000 A 
ATOM     25  C   UNL     1      -1.487  12.297  19.256  0.00  0.00    +0.000 A 
ATOM     26  C   UNL     1      -1.948  12.909  20.421  0.00  0.00    +0.000 A 
ATOM     27  C   UNL     1      -1.626  12.379  21.677  0.00  0.00    +0.000 A 
ATOM     28  C   UNL     1      -0.824  11.224  21.746  0.00  0.00    +0.000 A 
BRANCH  27  29
ATOM     29  C   UNL     1      -2.121  13.023  22.948  0.00  0.00    +0.000 C 
ATOM     30  F   UNL     1      -2.884  14.132  22.733  0.00  0.00    +0.000 F 
ATOM     31  F   UNL     1      -2.889  12.183  23.695  0.00  0.00    +0.000 F 
ATOM     32  F   UNL     1      -1.104  13.423  23.760  0.00  0.00    +0.000 F 
ENDBRANCH  27  29
ENDBRANCH  20  23
ENDBRANCH  17  18
ENDBRANCH   4  17
TORSDOF 6
ENDMDL
