MODEL 1
REMARK VINA RESULT:      -9.2      0.000      0.000
REMARK  Name = 
REMARK  5 active torsions:
REMARK  status: ('A' for Active; 'I' for Inactive)
REMARK    1  A    between atoms: C_1  and  N_2
REMARK    2  A    between atoms: N_7  and  C_8
REMARK    3  A    between atoms: C_8  and  C_9
REMARK    4  A    between atoms: C_13  and  N_14
REMARK    5  A    between atoms: C_22  and  C_23
REMARK                            x       y       z     vdW  Elec       q    Type
REMARK                         _______ _______ _______ _____ _____    ______ ____
ROOT
ATOM      1  C   UNL     1       2.563   6.000  18.935  0.00  0.00    +0.000 A 
ATOM      2  C   UNL     1       2.467   6.774  17.758  0.00  0.00    +0.000 A 
ATOM      3  C   UNL     1       2.245   8.152  17.793  0.00  0.00    +0.000 A 
ATOM      4  C   UNL     1       1.991   8.780  19.003  0.00  0.00    +0.000 A 
ATOM      5  C   UNL     1       1.836   7.997  20.154  0.00  0.00    +0.000 A 
ATOM      6  C   UNL     1       2.302   6.676  20.143  0.00  0.00    +0.000 A 
ENDROOT
BRANCH   5   7
ATOM      7  N   UNL     1       0.782   8.334  21.107  0.00  0.00    +0.000 N 
ATOM      8  C   UNL     1      -0.495   8.599  20.396  0.00  0.00    +0.000 C 
ATOM      9  C   UNL     1      -0.431  10.083  20.184  0.00  0.00    +0.000 A 
ATOM     10  C   UNL     1       0.371  10.613  21.202  0.00  0.00    +0.000 A 
ATOM     11  C   UNL     1       0.779  11.932  21.230  0.00  0.00    +0.000 A 
ATOM     12  C   UNL     1       0.363  12.732  20.177  0.00  0.00    +0.000 A 
ATOM     13  F   UNL     1       0.799  13.994  20.102  0.00  0.00    +0.000 F 
ATOM     14  C   UNL     1      -0.432  12.225  19.136  0.00  0.00    +0.000 A 
ATOM     15  C   UNL     1      -0.848  10.878  19.120  0.00  0.00    +0.000 A 
ATOM     16  C   UNL     1       1.023   9.483  21.897  0.00  0.00    +0.000 C 
ATOM     17  O   UNL     1       1.790   9.619  22.837  0.00  0.00    +0.000 OA
BRANCH  15  18
ATOM     18  C   UNL     1      -1.602  10.356  17.924  0.00  0.00    +0.000 C 
ATOM     19  F   UNL     1      -2.738   9.679  18.237  0.00  0.00    +0.000 F 
ATOM     20  F   UNL     1      -1.985  11.355  17.084  0.00  0.00    +0.000 F 
ATOM     21  F   UNL     1      -0.851   9.501  17.176  0.00  0.00    +0.000 F 
ENDBRANCH  15  18
ENDBRANCH   5   7
BRANCH   1  22
ATOM     22  C   UNL     1       2.837   4.428  18.894  0.00  0.00    +0.000 C 
ATOM     23  C   UNL     1       2.956   3.624  20.223  0.00  0.00    +0.000 C 
ATOM     24  O   UNL     1       1.831   2.778  19.890  0.00  0.00    +0.000 OA
ATOM     25  C   UNL     1       1.606   3.502  18.665  0.00  0.00    +0.000 C 
BRANCH  22  32
ATOM     26  C   UNL     1       5.976   3.935  15.790  0.00  0.00    +0.000 C 
ATOM     27  N   UNL     1       6.147   4.326  17.160  0.00  0.00    +0.000 N 
ATOM     28  C   UNL     1       7.331   4.642  17.752  0.00  0.00    +0.000 A 
ATOM     29  N   UNL     1       7.123   4.940  19.012  0.00  0.00    +0.000 NA
ATOM     30  N   UNL     1       5.776   4.808  19.251  0.00  0.00    +0.000 NA
ATOM     31  C   UNL     1       5.189   4.430  18.136  0.00  0.00    +0.000 A 
ATOM     32  N   UNL     1       3.880   4.147  17.916  0.00  0.00    +0.000 N 
ATOM     33  H   UNL     1       3.534   4.168  16.963  0.00  0.00    +0.000 HD
ENDBRANCH  22  32
ENDBRANCH   1  22
TORSDOF 4
ENDMDL
MODEL 2
REMARK VINA RESULT:      -8.7      2.297      3.301
REMARK  Name = 
REMARK  5 active torsions:
REMARK  status: ('A' for Active; 'I' for Inactive)
REMARK    1  A    between atoms: C_1  and  N_2
REMARK    2  A    between atoms: N_7  and  C_8
REMARK    3  A    between atoms: C_8  and  C_9
REMARK    4  A    between atoms: C_13  and  N_14
REMARK    5  A    between atoms: C_22  and  C_23
REMARK                            x       y       z     vdW  Elec       q    Type
REMARK                         _______ _______ _______ _____ _____    ______ ____
ROOT
ATOM      1  C   UNL     1       2.921   4.263  19.250  0.00  0.00    +0.000 A 
ATOM      2  C   UNL     1       2.317   4.045  20.507  0.00  0.00    +0.000 A 
ATOM      3  C   UNL     1       1.468   4.985  21.095  0.00  0.00    +0.000 A 
ATOM      4  C   UNL     1       1.294   6.224  20.500  0.00  0.00    +0.000 A 
ATOM      5  C   UNL     1       2.072   6.557  19.385  0.00  0.00    +0.000 A 
ATOM      6  C   UNL     1       2.716   5.533  18.677  0.00  0.00    +0.000 A 
ENDROOT
BRANCH   5   7
ATOM      7  N   UNL     1       2.630   7.903  19.281  0.00  0.00    +0.000 N 
ATOM      8  C   UNL     1       2.242   8.716  20.463  0.00  0.00    +0.000 C 
ATOM      9  C   UNL     1       0.980   9.374  19.988  0.00  0.00    +0.000 A 
ATOM     10  C   UNL     1       1.056   9.461  18.593  0.00  0.00    +0.000 A 
ATOM     11  C   UNL     1      -0.001   9.868  17.804  0.00  0.00    +0.000 A 
ATOM     12  C   UNL     1      -1.179  10.185  18.462  0.00  0.00    +0.000 A 
ATOM     13  F   UNL     1      -2.264  10.501  17.747  0.00  0.00    +0.000 F 
ATOM     14  C   UNL     1      -1.289  10.096  19.860  0.00  0.00    +0.000 A 
ATOM     15  C   UNL     1      -0.201   9.685  20.657  0.00  0.00    +0.000 A 
ATOM     16  C   UNL     1       2.211   8.648  18.154  0.00  0.00    +0.000 C 
ATOM     17  O   UNL     1       2.542   8.520  16.986  0.00  0.00    +0.000 OA
BRANCH  15  18
ATOM     18  C   UNL     1      -0.405   9.496  22.138  0.00  0.00    +0.000 C 
ATOM     19  F   UNL     1      -1.242  10.405  22.703  0.00  0.00    +0.000 F 
ATOM     20  F   UNL     1      -0.930   8.275  22.431  0.00  0.00    +0.000 F 
ATOM     21  F   UNL     1       0.763   9.580  22.832  0.00  0.00    +0.000 F 
ENDBRANCH  15  18
ENDBRANCH   5   7
BRANCH   1  22
ATOM     22  C   UNL     1       3.875   3.179  18.569  0.00  0.00    +0.000 C 
ATOM     23  C   UNL     1       4.355   1.943  19.387  0.00  0.00    +0.000 C 
ATOM     24  O   UNL     1       3.730   1.012  18.473  0.00  0.00    +0.000 OA
ATOM     25  C   UNL     1       3.193   2.093  17.686  0.00  0.00    +0.000 C 
BRANCH  22  32
ATOM     26  C   UNL     1       6.857   5.579  16.315  0.00  0.00    +0.000 C 
ATOM     27  N   UNL     1       6.797   5.355  17.731  0.00  0.00    +0.000 N 
ATOM     28  C   UNL     1       7.654   5.873  18.652  0.00  0.00    +0.000 A 
ATOM     29  N   UNL     1       7.316   5.454  19.848  0.00  0.00    +0.000 NA
ATOM     30  N   UNL     1       6.218   4.640  19.705  0.00  0.00    +0.000 NA
ATOM     31  C   UNL     1       5.910   4.574  18.427  0.00  0.00    +0.000 A 
ATOM     32  N   UNL     1       4.925   3.862  17.824  0.00  0.00    +0.000 N 
ATOM     33  H   UNL     1       4.622   4.143  16.897  0.00  0.00    +0.000 HD
ENDBRANCH  22  32
ENDBRANCH   1  22
TORSDOF 4
ENDMDL
MODEL 3
REMARK VINA RESULT:      -8.7      5.872      9.106
REMARK  Name = 
REMARK  5 active torsions:
REMARK  status: ('A' for Active; 'I' for Inactive)
REMARK    1  A    between atoms: C_1  and  N_2
REMARK    2  A    between atoms: N_7  and  C_8
REMARK    3  A    between atoms: C_8  and  C_9
REMARK    4  A    between atoms: C_13  and  N_14
REMARK    5  A    between atoms: C_22  and  C_23
REMARK                            x       y       z     vdW  Elec       q    Type
REMARK                         _______ _______ _______ _____ _____    ______ ____
ROOT
ATOM      1  C   UNL     1      -3.901  11.335  17.884  0.00  0.00    +0.000 A 
ATOM      2  C   UNL     1      -3.840  10.652  16.650  0.00  0.00    +0.000 A 
ATOM      3  C   UNL     1      -2.749   9.856  16.296  0.00  0.00    +0.000 A 
ATOM      4  C   UNL     1      -1.630   9.816  17.114  0.00  0.00    +0.000 A 
ATOM      5  C   UNL     1      -1.566  10.675  18.217  0.00  0.00    +0.000 A 
ATOM      6  C   UNL     1      -2.746  11.266  18.687  0.00  0.00    +0.000 A 
ENDROOT
BRANCH   5   7
ATOM      7  N   UNL     1      -0.306  11.348  18.524  0.00  0.00    +0.000 N 
ATOM      8  C   UNL     1       0.444  10.594  19.562  0.00  0.00    +0.000 C 
ATOM      9  C   UNL     1      -0.031  11.248  20.826  0.00  0.00    +0.000 A 
ATOM     10  C   UNL     1      -0.408  12.556  20.500  0.00  0.00    +0.000 A 
ATOM     11  C   UNL     1      -1.043  13.401  21.388  0.00  0.00    +0.000 A 
ATOM     12  C   UNL     1      -1.313  12.887  22.647  0.00  0.00    +0.000 A 
ATOM     13  F   UNL     1      -2.005  13.627  23.522  0.00  0.00    +0.000 F 
ATOM     14  C   UNL     1      -0.957  11.575  23.000  0.00  0.00    +0.000 A 
ATOM     15  C   UNL     1      -0.303  10.722  22.086  0.00  0.00    +0.000 A 
ATOM     16  C   UNL     1      -0.428  12.665  19.025  0.00  0.00    +0.000 C 
ATOM     17  O   UNL     1      -0.722  13.688  18.427  0.00  0.00    +0.000 OA
BRANCH  15  18
ATOM     18  C   UNL     1      -0.046   9.289  22.474  0.00  0.00    +0.000 C 
ATOM     19  F   UNL     1       1.214   8.858  22.204  0.00  0.00    +0.000 F 
ATOM     20  F   UNL     1      -0.233   9.077  23.805  0.00  0.00    +0.000 F 
ATOM     21  F   UNL     1      -0.882   8.426  21.834  0.00  0.00    +0.000 F 
ENDBRANCH  15  18
ENDBRANCH   5   7
BRANCH   1  22
ATOM     22  C   UNL     1      -5.158  12.228  18.296  0.00  0.00    +0.000 C 
ATOM     23  C   UNL     1      -6.107  12.790  17.196  0.00  0.00    +0.000 C 
ATOM     24  O   UNL     1      -7.253  12.088  17.732  0.00  0.00    +0.000 OA
ATOM     25  C   UNL     1      -6.442  11.474  18.752  0.00  0.00    +0.000 C 
BRANCH  22  32
ATOM     26  C   UNL     1      -4.256  15.357  21.318  0.00  0.00    +0.000 C 
ATOM     27  N   UNL     1      -4.819  14.056  21.540  0.00  0.00    +0.000 N 
ATOM     28  C   UNL     1      -5.203  13.554  22.745  0.00  0.00    +0.000 A 
ATOM     29  N   UNL     1      -5.661  12.335  22.584  0.00  0.00    +0.000 NA
ATOM     30  N   UNL     1      -5.567  12.031  21.247  0.00  0.00    +0.000 NA
ATOM     31  C   UNL     1      -5.052  13.066  20.618  0.00  0.00    +0.000 A 
ATOM     32  N   UNL     1      -4.749  13.200  19.303  0.00  0.00    +0.000 N 
ATOM     33  H   UNL     1      -4.649  14.134  18.921  0.00  0.00    +0.000 HD
ENDBRANCH  22  32
ENDBRANCH   1  22
TORSDOF 4
ENDMDL
MODEL 4
REMARK VINA RESULT:      -8.7      3.847      8.277
REMARK  Name = 
REMARK  5 active torsions:
REMARK  status: ('A' for Active; 'I' for Inactive)
REMARK    1  A    between atoms: C_1  and  N_2
REMARK    2  A    between atoms: N_7  and  C_8
REMARK    3  A    between atoms: C_8  and  C_9
REMARK    4  A    between atoms: C_13  and  N_14
REMARK    5  A    between atoms: C_22  and  C_23
REMARK                            x       y       z     vdW  Elec       q    Type
REMARK                         _______ _______ _______ _____ _____    ______ ____
ROOT
ATOM      1  C   UNL     1       1.498   9.425  19.236  0.00  0.00    +0.000 A 
ATOM      2  C   UNL     1       0.994   8.826  20.412  0.00  0.00    +0.000 A 
ATOM      3  C   UNL     1       1.416   7.566  20.841  0.00  0.00    +0.000 A 
ATOM      4  C   UNL     1       2.264   6.814  20.044  0.00  0.00    +0.000 A 
ATOM      5  C   UNL     1       2.581   7.279  18.763  0.00  0.00    +0.000 A 
ATOM      6  C   UNL     1       2.359   8.628  18.457  0.00  0.00    +0.000 A 
ENDROOT
BRANCH   5   7
ATOM      7  N   UNL     1       2.621   6.333  17.651  0.00  0.00    +0.000 N 
ATOM      8  C   UNL     1       1.646   5.234  17.870  0.00  0.00    +0.000 C 
ATOM      9  C   UNL     1       2.487   4.206  18.568  0.00  0.00    +0.000 A 
ATOM     10  C   UNL     1       3.812   4.412  18.167  0.00  0.00    +0.000 A 
ATOM     11  C   UNL     1       4.883   3.749  18.733  0.00  0.00    +0.000 A 
ATOM     12  C   UNL     1       4.590   2.855  19.751  0.00  0.00    +0.000 A 
ATOM     13  F   UNL     1       5.591   2.249  20.399  0.00  0.00    +0.000 F 
ATOM     14  C   UNL     1       3.271   2.636  20.183  0.00  0.00    +0.000 A 
ATOM     15  C   UNL     1       2.184   3.314  19.593  0.00  0.00    +0.000 A 
ATOM     16  C   UNL     1       3.868   5.698  17.439  0.00  0.00    +0.000 C 
ATOM     17  O   UNL     1       4.892   6.161  16.962  0.00  0.00    +0.000 OA
BRANCH  15  18
ATOM     18  C   UNL     1       0.804   3.130  20.169  0.00  0.00    +0.000 C 
ATOM     19  F   UNL     1      -0.049   2.450  19.358  0.00  0.00    +0.000 F 
ATOM     20  F   UNL     1       0.826   2.443  21.343  0.00  0.00    +0.000 F 
ATOM     21  F   UNL     1       0.197   4.318  20.439  0.00  0.00    +0.000 F 
ENDBRANCH  15  18
ENDBRANCH   5   7
BRANCH   1  22
ATOM     22  C   UNL     1       1.030  10.874  18.757  0.00  0.00    +0.000 C 
ATOM     23  C   UNL     1       0.901  12.031  19.792  0.00  0.00    +0.000 C 
ATOM     24  O   UNL     1       1.889  12.839  19.110  0.00  0.00    +0.000 OA
ATOM     25  C   UNL     1       2.119  11.799  18.140  0.00  0.00    +0.000 C 
BRANCH  22  32
ATOM     26  C   UNL     1      -2.495  10.119  16.160  0.00  0.00    +0.000 C 
ATOM     27  N   UNL     1      -2.457  10.824  17.410  0.00  0.00    +0.000 N 
ATOM     28  C   UNL     1      -3.529  11.377  18.040  0.00  0.00    +0.000 A 
ATOM     29  N   UNL     1      -3.134  11.952  19.150  0.00  0.00    +0.000 NA
ATOM     30  N   UNL     1      -1.773  11.778  19.244  0.00  0.00    +0.000 NA
ATOM     31  C   UNL     1      -1.364  11.105  18.190  0.00  0.00    +0.000 A 
ATOM     32  N   UNL     1      -0.104  10.738  17.850  0.00  0.00    +0.000 N 
ATOM     33  H   UNL     1       0.019   9.979  17.189  0.00  0.00    +0.000 HD
ENDBRANCH  22  32
ENDBRANCH   1  22
TORSDOF 4
ENDMDL
MODEL 5
REMARK VINA RESULT:      -8.6      3.840      7.896
REMARK  Name = 
REMARK  5 active torsions:
REMARK  status: ('A' for Active; 'I' for Inactive)
REMARK    1  A    between atoms: C_1  and  N_2
REMARK    2  A    between atoms: N_7  and  C_8
REMARK    3  A    between atoms: C_8  and  C_9
REMARK    4  A    between atoms: C_13  and  N_14
REMARK    5  A    between atoms: C_22  and  C_23
REMARK                            x       y       z     vdW  Elec       q    Type
REMARK                         _______ _______ _______ _____ _____    ______ ____
ROOT
ATOM      1  C   UNL     1       1.197   9.115  19.229  0.00  0.00    +0.000 A 
ATOM      2  C   UNL     1       1.052   8.504  20.494  0.00  0.00    +0.000 A 
ATOM      3  C   UNL     1       1.811   7.396  20.873  0.00  0.00    +0.000 A 
ATOM      4  C   UNL     1       2.653   6.789  19.955  0.00  0.00    +0.000 A 
ATOM      5  C   UNL     1       2.630   7.222  18.624  0.00  0.00    +0.000 A 
ATOM      6  C   UNL     1       2.065   8.469  18.326  0.00  0.00    +0.000 A 
ENDROOT
BRANCH   5   7
ATOM      7  N   UNL     1       2.685   6.233  17.551  0.00  0.00    +0.000 N 
ATOM      8  C   UNL     1       1.700   5.148  17.797  0.00  0.00    +0.000 C 
ATOM      9  C   UNL     1       2.524   4.145  18.549  0.00  0.00    +0.000 A 
ATOM     10  C   UNL     1       3.858   4.329  18.163  0.00  0.00    +0.000 A 
ATOM     11  C   UNL     1       4.914   3.685  18.774  0.00  0.00    +0.000 A 
ATOM     12  C   UNL     1       4.600   2.833  19.821  0.00  0.00    +0.000 A 
ATOM     13  F   UNL     1       5.587   2.248  20.509  0.00  0.00    +0.000 F 
ATOM     14  C   UNL     1       3.272   2.636  20.238  0.00  0.00    +0.000 A 
ATOM     15  C   UNL     1       2.199   3.295  19.603  0.00  0.00    +0.000 A 
ATOM     16  C   UNL     1       3.932   5.585  17.386  0.00  0.00    +0.000 C 
ATOM     17  O   UNL     1       4.966   6.024  16.910  0.00  0.00    +0.000 OA
BRANCH  15  18
ATOM     18  C   UNL     1       0.809   3.140  20.161  0.00  0.00    +0.000 C 
ATOM     19  F   UNL     1       0.756   2.467  21.341  0.00  0.00    +0.000 F 
ATOM     20  F   UNL     1       0.212   4.341  20.392  0.00  0.00    +0.000 F 
ATOM     21  F   UNL     1      -0.014   2.467  19.310  0.00  0.00    +0.000 F 
ENDBRANCH  15  18
ENDBRANCH   5   7
BRANCH   1  22
ATOM     22  C   UNL     1       0.343  10.395  18.804  0.00  0.00    +0.000 C 
ATOM     23  C   UNL     1      -0.823  10.247  17.781  0.00  0.00    +0.000 C 
ATOM     24  O   UNL     1      -1.806  10.716  18.733  0.00  0.00    +0.000 OA
ATOM     25  C   UNL     1      -0.805  10.828  19.762  0.00  0.00    +0.000 C 
BRANCH  22  32
ATOM     26  C   UNL     1       2.778  14.019  17.986  0.00  0.00    +0.000 C 
ATOM     27  N   UNL     1       2.396  13.485  19.262  0.00  0.00    +0.000 N 
ATOM     28  C   UNL     1       2.705  14.026  20.472  0.00  0.00    +0.000 A 
ATOM     29  N   UNL     1       2.209  13.275  21.426  0.00  0.00    +0.000 NA
ATOM     30  N   UNL     1       1.568  12.216  20.827  0.00  0.00    +0.000 NA
ATOM     31  C   UNL     1       1.688  12.339  19.522  0.00  0.00    +0.000 A 
ATOM     32  N   UNL     1       1.244  11.510  18.544  0.00  0.00    +0.000 N 
ATOM     33  H   UNL     1       1.143  11.880  17.605  0.00  0.00    +0.000 HD
ENDBRANCH  22  32
ENDBRANCH   1  22
TORSDOF 4
ENDMDL
MODEL 6
REMARK VINA RESULT:      -8.5      3.615      8.230
REMARK  Name = 
REMARK  5 active torsions:
REMARK  status: ('A' for Active; 'I' for Inactive)
REMARK    1  A    between atoms: C_1  and  N_2
REMARK    2  A    between atoms: N_7  and  C_8
REMARK    3  A    between atoms: C_8  and  C_9
REMARK    4  A    between atoms: C_13  and  N_14
REMARK    5  A    between atoms: C_22  and  C_23
REMARK                            x       y       z     vdW  Elec       q    Type
REMARK                         _______ _______ _______ _____ _____    ______ ____
ROOT
ATOM      1  C   UNL     1       1.738   8.283  19.528  0.00  0.00    +0.000 A 
ATOM      2  C   UNL     1       2.320   8.864  18.381  0.00  0.00    +0.000 A 
ATOM      3  C   UNL     1       2.953   8.097  17.401  0.00  0.00    +0.000 A 
ATOM      4  C   UNL     1       3.128   6.736  17.597  0.00  0.00    +0.000 A 
ATOM      5  C   UNL     1       2.781   6.178  18.833  0.00  0.00    +0.000 A 
ATOM      6  C   UNL     1       1.935   6.898  19.688  0.00  0.00    +0.000 A 
ENDROOT
BRANCH   5   7
ATOM      7  N   UNL     1       3.658   5.179  19.436  0.00  0.00    +0.000 N 
ATOM      8  C   UNL     1       5.053   5.687  19.502  0.00  0.00    +0.000 C 
ATOM      9  C   UNL     1       5.629   5.183  18.211  0.00  0.00    +0.000 A 
ATOM     10  C   UNL     1       4.911   4.034  17.857  0.00  0.00    +0.000 A 
ATOM     11  C   UNL     1       5.064   3.395  16.643  0.00  0.00    +0.000 A 
ATOM     12  C   UNL     1       5.971   3.956  15.757  0.00  0.00    +0.000 A 
ATOM     13  F   UNL     1       6.098   3.433  14.532  0.00  0.00    +0.000 F 
ATOM     14  C   UNL     1       6.697   5.114  16.080  0.00  0.00    +0.000 A 
ATOM     15  C   UNL     1       6.538   5.756  17.326  0.00  0.00    +0.000 A 
ATOM     16  C   UNL     1       3.735   3.945  18.749  0.00  0.00    +0.000 C 
ATOM     17  O   UNL     1       2.909   3.049  18.689  0.00  0.00    +0.000 OA
BRANCH  15  18
ATOM     18  C   UNL     1       7.253   7.058  17.578  0.00  0.00    +0.000 C 
ATOM     19  F   UNL     1       8.014   7.064  18.704  0.00  0.00    +0.000 F 
ATOM     20  F   UNL     1       8.094   7.386  16.560  0.00  0.00    +0.000 F 
ATOM     21  F   UNL     1       6.389   8.102  17.705  0.00  0.00    +0.000 F 
ENDBRANCH  15  18
ENDBRANCH   5   7
BRANCH   1  22
ATOM     22  C   UNL     1       0.997   9.160  20.638  0.00  0.00    +0.000 C 
ATOM     23  C   UNL     1      -0.259   8.595  21.365  0.00  0.00    +0.000 C 
ATOM     24  O   UNL     1       0.377   8.671  22.663  0.00  0.00    +0.000 OA
ATOM     25  C   UNL     1       1.603   9.143  22.072  0.00  0.00    +0.000 C 
BRANCH  22  32
ATOM     26  C   UNL     1       0.761  13.220  18.849  0.00  0.00    +0.000 C 
ATOM     27  N   UNL     1      -0.203  12.160  18.757  0.00  0.00    +0.000 N 
ATOM     28  C   UNL     1      -1.375  12.213  18.069  0.00  0.00    +0.000 A 
ATOM     29  N   UNL     1      -2.016  11.078  18.210  0.00  0.00    +0.000 NA
ATOM     30  N   UNL     1      -1.249  10.267  19.013  0.00  0.00    +0.000 NA
ATOM     31  C   UNL     1      -0.159  10.924  19.350  0.00  0.00    +0.000 A 
ATOM     32  N   UNL     1       0.858  10.529  20.155  0.00  0.00    +0.000 N 
ATOM     33  H   UNL     1       1.751  11.005  20.077  0.00  0.00    +0.000 HD
ENDBRANCH  22  32
ENDBRANCH   1  22
TORSDOF 4
ENDMDL
MODEL 7
REMARK VINA RESULT:      -8.2      1.084      1.573
REMARK  Name = 
REMARK  5 active torsions:
REMARK  status: ('A' for Active; 'I' for Inactive)
REMARK    1  A    between atoms: C_1  and  N_2
REMARK    2  A    between atoms: N_7  and  C_8
REMARK    3  A    between atoms: C_8  and  C_9
REMARK    4  A    between atoms: C_13  and  N_14
REMARK    5  A    between atoms: C_22  and  C_23
REMARK                            x       y       z     vdW  Elec       q    Type
REMARK                         _______ _______ _______ _____ _____    ______ ____
ROOT
ATOM      1  C   UNL     1       2.544   6.942  19.117  0.00  0.00    +0.000 A 
ATOM      2  C   UNL     1       2.494   7.551  17.844  0.00  0.00    +0.000 A 
ATOM      3  C   UNL     1       2.059   8.866  17.667  0.00  0.00    +0.000 A 
ATOM      4  C   UNL     1       1.547   9.573  18.743  0.00  0.00    +0.000 A 
ATOM      5  C   UNL     1       1.356   8.911  19.962  0.00  0.00    +0.000 A 
ATOM      6  C   UNL     1       2.017   7.696  20.184  0.00  0.00    +0.000 A 
ENDROOT
BRANCH   5   7
ATOM      7  N   UNL     1       0.142   9.169  20.731  0.00  0.00    +0.000 N 
ATOM      8  C   UNL     1      -1.053   9.091  19.852  0.00  0.00    +0.000 C 
ATOM      9  C   UNL     1      -1.215  10.518  19.419  0.00  0.00    +0.000 A 
ATOM     10  C   UNL     1      -0.660  11.323  20.422  0.00  0.00    +0.000 A 
ATOM     11  C   UNL     1      -0.489  12.686  20.287  0.00  0.00    +0.000 A 
ATOM     12  C   UNL     1      -0.888  13.244  19.082  0.00  0.00    +0.000 A 
ATOM     13  F   UNL     1      -0.667  14.544  18.858  0.00  0.00    +0.000 F 
ATOM     14  C   UNL     1      -1.437  12.461  18.053  0.00  0.00    +0.000 A 
ATOM     15  C   UNL     1      -1.613  11.070  18.204  0.00  0.00    +0.000 A 
ATOM     16  C   UNL     1       0.075  10.439  21.352  0.00  0.00    +0.000 C 
ATOM     17  O   UNL     1       0.674  10.842  22.336  0.00  0.00    +0.000 OA
BRANCH  15  18
ATOM     18  C   UNL     1      -2.099  10.259  17.030  0.00  0.00    +0.000 C 
ATOM     19  F   UNL     1      -3.258   9.589  17.261  0.00  0.00    +0.000 F 
ATOM     20  F   UNL     1      -2.328  11.032  15.934  0.00  0.00    +0.000 F 
ATOM     21  F   UNL     1      -1.193   9.318  16.645  0.00  0.00    +0.000 F 
ENDBRANCH  15  18
ENDBRANCH   5   7
BRANCH   1  22
ATOM     22  C   UNL     1       3.059   5.445  19.319  0.00  0.00    +0.000 C 
ATOM     23  C   UNL     1       2.641   4.643  20.587  0.00  0.00    +0.000 C 
ATOM     24  O   UNL     1       1.984   3.619  19.805  0.00  0.00    +0.000 OA
ATOM     25  C   UNL     1       2.275   4.321  18.581  0.00  0.00    +0.000 C 
BRANCH  22  32
ATOM     26  C   UNL     1       7.380   4.873  18.457  0.00  0.00    +0.000 C 
ATOM     27  N   UNL     1       6.272   4.690  17.563  0.00  0.00    +0.000 N 
ATOM     28  C   UNL     1       6.358   4.278  16.269  0.00  0.00    +0.000 A 
ATOM     29  N   UNL     1       5.158   4.233  15.744  0.00  0.00    +0.000 NA
ATOM     30  N   UNL     1       4.268   4.631  16.714  0.00  0.00    +0.000 NA
ATOM     31  C   UNL     1       4.941   4.915  17.808  0.00  0.00    +0.000 A 
ATOM     32  N   UNL     1       4.480   5.378  18.997  0.00  0.00    +0.000 N 
ATOM     33  H   UNL     1       5.059   5.259  19.821  0.00  0.00    +0.000 HD
ENDBRANCH  22  32
ENDBRANCH   1  22
TORSDOF 4
ENDMDL
MODEL 8
REMARK VINA RESULT:      -8.1      1.865      2.918
REMARK  Name = 
REMARK  5 active torsions:
REMARK  status: ('A' for Active; 'I' for Inactive)
REMARK    1  A    between atoms: C_1  and  N_2
REMARK    2  A    between atoms: N_7  and  C_8
REMARK    3  A    between atoms: C_8  and  C_9
REMARK    4  A    between atoms: C_13  and  N_14
REMARK    5  A    between atoms: C_22  and  C_23
REMARK                            x       y       z     vdW  Elec       q    Type
REMARK                         _______ _______ _______ _____ _____    ______ ____
ROOT
ATOM      1  C   UNL     1       2.799   7.022  18.593  0.00  0.00    +0.000 A 
ATOM      2  C   UNL     1       2.533   7.852  17.482  0.00  0.00    +0.000 A 
ATOM      3  C   UNL     1       1.993   9.132  17.625  0.00  0.00    +0.000 A 
ATOM      4  C   UNL     1       1.590   9.575  18.875  0.00  0.00    +0.000 A 
ATOM      5  C   UNL     1       1.615   8.681  19.952  0.00  0.00    +0.000 A 
ATOM      6  C   UNL     1       2.378   7.511  19.845  0.00  0.00    +0.000 A 
ENDROOT
BRANCH   5   7
ATOM      7  N   UNL     1       0.505   8.678  20.901  0.00  0.00    +0.000 N 
ATOM      8  C   UNL     1      -0.785   8.878  20.190  0.00  0.00    +0.000 C 
ATOM      9  C   UNL     1      -0.945  10.369  20.250  0.00  0.00    +0.000 A 
ATOM     10  C   UNL     1      -0.253  10.816  21.382  0.00  0.00    +0.000 A 
ATOM     11  C   UNL     1      -0.052  12.152  21.664  0.00  0.00    +0.000 A 
ATOM     12  C   UNL     1      -0.565  13.062  20.752  0.00  0.00    +0.000 A 
ATOM     13  F   UNL     1      -0.327  14.367  20.923  0.00  0.00    +0.000 F 
ATOM     14  C   UNL     1      -1.254  12.643  19.601  0.00  0.00    +0.000 A 
ATOM     15  C   UNL     1      -1.459  11.275  19.327  0.00  0.00    +0.000 A 
ATOM     16  C   UNL     1       0.552   9.686  21.893  0.00  0.00    +0.000 C 
ATOM     17  O   UNL     1       1.272   9.759  22.876  0.00  0.00    +0.000 OA
BRANCH  15  18
ATOM     18  C   UNL     1      -2.102  10.876  18.024  0.00  0.00    +0.000 C 
ATOM     19  F   UNL     1      -1.309  10.116  17.223  0.00  0.00    +0.000 F 
ATOM     20  F   UNL     1      -3.239  10.152  18.214  0.00  0.00    +0.000 F 
ATOM     21  F   UNL     1      -2.463  11.955  17.277  0.00  0.00    +0.000 F 
ENDBRANCH  15  18
ENDBRANCH   5   7
BRANCH   1  22
ATOM     22  C   UNL     1       3.434   5.567  18.429  0.00  0.00    +0.000 C 
ATOM     23  C   UNL     1       4.404   5.270  17.247  0.00  0.00    +0.000 C 
ATOM     24  O   UNL     1       5.493   4.934  18.138  0.00  0.00    +0.000 OA
ATOM     25  C   UNL     1       4.688   5.243  19.293  0.00  0.00    +0.000 C 
BRANCH  22  32
ATOM     26  C   UNL     1       0.543   2.241  18.986  0.00  0.00    +0.000 C 
ATOM     27  N   UNL     1       1.320   2.908  19.991  0.00  0.00    +0.000 N 
ATOM     28  C   UNL     1       1.320   2.613  21.319  0.00  0.00    +0.000 A 
ATOM     29  N   UNL     1       2.133   3.426  21.947  0.00  0.00    +0.000 NA
ATOM     30  N   UNL     1       2.672   4.277  21.011  0.00  0.00    +0.000 NA
ATOM     31  C   UNL     1       2.175   3.969  19.832  0.00  0.00    +0.000 A 
ATOM     32  N   UNL     1       2.397   4.563  18.633  0.00  0.00    +0.000 N 
ATOM     33  H   UNL     1       2.192   4.040  17.788  0.00  0.00    +0.000 HD
ENDBRANCH  22  32
ENDBRANCH   1  22
TORSDOF 4
ENDMDL
MODEL 9
REMARK VINA RESULT:      -8.0      0.784      1.450
REMARK  Name = 
REMARK  5 active torsions:
REMARK  status: ('A' for Active; 'I' for Inactive)
REMARK    1  A    between atoms: C_1  and  N_2
REMARK    2  A    between atoms: N_7  and  C_8
REMARK    3  A    between atoms: C_8  and  C_9
REMARK    4  A    between atoms: C_13  and  N_14
REMARK    5  A    between atoms: C_22  and  C_23
REMARK                            x       y       z     vdW  Elec       q    Type
REMARK                         _______ _______ _______ _____ _____    ______ ____
ROOT
ATOM      1  C   UNL     1       2.678   6.609  19.102  0.00  0.00    +0.000 A 
ATOM      2  C   UNL     1       2.494   7.291  17.879  0.00  0.00    +0.000 A 
ATOM      3  C   UNL     1       2.014   8.601  17.826  0.00  0.00    +0.000 A 
ATOM      4  C   UNL     1       1.588   9.227  18.987  0.00  0.00    +0.000 A 
ATOM      5  C   UNL     1       1.529   8.488  20.174  0.00  0.00    +0.000 A 
ATOM      6  C   UNL     1       2.236   7.281  20.258  0.00  0.00    +0.000 A 
ENDROOT
BRANCH   5   7
ATOM      7  N   UNL     1       0.386   8.663  21.066  0.00  0.00    +0.000 N 
ATOM      8  C   UNL     1      -0.851   8.911  20.281  0.00  0.00    +0.000 C 
ATOM      9  C   UNL     1      -0.879  10.409  20.209  0.00  0.00    +0.000 A 
ATOM     10  C   UNL     1      -0.195  10.892  21.331  0.00  0.00    +0.000 A 
ATOM     11  C   UNL     1       0.113  12.225  21.510  0.00  0.00    +0.000 A 
ATOM     12  C   UNL     1      -0.279  13.093  20.502  0.00  0.00    +0.000 A 
ATOM     13  F   UNL     1       0.068  14.383  20.576  0.00  0.00    +0.000 F 
ATOM     14  C   UNL     1      -0.957  12.636  19.360  0.00  0.00    +0.000 A 
ATOM     15  C   UNL     1      -1.272  11.272  19.190  0.00  0.00    +0.000 A 
ATOM     16  C   UNL     1       0.484   9.745  21.973  0.00  0.00    +0.000 C 
ATOM     17  O   UNL     1       1.167   9.842  22.979  0.00  0.00    +0.000 OA
BRANCH  15  18
ATOM     18  C   UNL     1      -1.896  10.818  17.896  0.00  0.00    +0.000 C 
ATOM     19  F   UNL     1      -2.154  11.825  17.020  0.00  0.00    +0.000 F 
ATOM     20  F   UNL     1      -1.104   9.938  17.226  0.00  0.00    +0.000 F 
ATOM     21  F   UNL     1      -3.083  10.182  18.093  0.00  0.00    +0.000 F 
ENDBRANCH  15  18
ENDBRANCH   5   7
BRANCH   1  22
ATOM     22  C   UNL     1       3.247   5.119  19.162  0.00  0.00    +0.000 C 
ATOM     23  C   UNL     1       2.877   4.193  20.359  0.00  0.00    +0.000 C 
ATOM     24  O   UNL     1       2.241   3.221  19.497  0.00  0.00    +0.000 OA
ATOM     25  C   UNL     1       2.487   4.039  18.337  0.00  0.00    +0.000 C 
BRANCH  22  32
ATOM     26  C   UNL     1       7.569   4.776  18.195  0.00  0.00    +0.000 C 
ATOM     27  N   UNL     1       6.454   4.621  17.306  0.00  0.00    +0.000 N 
ATOM     28  C   UNL     1       6.532   4.313  15.983  0.00  0.00    +0.000 A 
ATOM     29  N   UNL     1       5.325   4.263  15.474  0.00  0.00    +0.000 NA
ATOM     30  N   UNL     1       4.438   4.552  16.484  0.00  0.00    +0.000 NA
ATOM     31  C   UNL     1       5.120   4.776  17.587  0.00  0.00    +0.000 A 
ATOM     32  N   UNL     1       4.663   5.129  18.814  0.00  0.00    +0.000 N 
ATOM     33  H   UNL     1       5.260   4.970  19.618  0.00  0.00    +0.000 HD
ENDBRANCH  22  32
ENDBRANCH   1  22
TORSDOF 4
ENDMDL
