MODEL 1
REMARK VINA RESULT:      -8.2      0.000      0.000
REMARK  Name = 
REMARK  7 active torsions:
REMARK  status: ('A' for Active; 'I' for Inactive)
REMARK    1  A    between atoms: C_1  and  O_2
REMARK    2  A    between atoms: O_2  and  C_3
REMARK    3  A    between atoms: C_6  and  C_7
REMARK    4  A    between atoms: C_7  and  N_8
REMARK    5  A    between atoms: C_12  and  C_14
REMARK    6  A    between atoms: N_21  and  C_22
REMARK    7  A    between atoms: C_22  and  C_23
REMARK                            x       y       z     vdW  Elec       q    Type
REMARK                         _______ _______ _______ _____ _____    ______ ____
ROOT
ATOM      1  N   UNL     1       2.173  15.193  19.534  0.00  0.00    +0.000 NA
ATOM      2  C   UNL     1       2.688  14.054  20.288  0.00  0.00    +0.000 C 
ATOM      3  C   UNL     1       2.212  12.697  19.759  0.00  0.00    +0.000 C 
ATOM      4  N   UNL     1       0.762  12.555  19.634  0.00  0.00    +0.000 N 
ATOM      5  C   UNL     1       0.095  11.346  19.331  0.00  0.00    +0.000 C 
ATOM      6  O   UNL     1      -1.119  11.328  19.115  0.00  0.00    +0.000 OA
ATOM      7  C   UNL     1       0.007  13.775  19.305  0.00  0.00    +0.000 C 
ATOM      8  C   UNL     1       0.703  15.137  19.552  0.00  0.00    +0.000 C 
ENDROOT
BRANCH   5   9
ATOM      9  C   UNL     1       0.821  10.050  19.139  0.00  0.00    +0.000 A 
ATOM     10  C   UNL     1       1.488   9.856  17.923  0.00  0.00    +0.000 A 
ATOM     11  N   UNL     1       2.242   8.773  17.568  0.00  0.00    +0.000 NA
ATOM     12  C   UNL     1       2.331   7.856  18.554  0.00  0.00    +0.000 A 
ATOM     13  C   UNL     1       1.712   7.913  19.790  0.00  0.00    +0.000 A 
ATOM     14  C   UNL     1       2.144   6.756  20.468  0.00  0.00    +0.000 A 
ATOM     15  N   UNL     1       2.934   5.983  19.719  0.00  0.00    +0.000 NA
ATOM     16  N   UNL     1       3.031   6.675  18.551  0.00  0.00    +0.000 N 
ATOM     17  C   UNL     1       0.875   9.005  20.061  0.00  0.00    +0.000 A 
BRANCH  16  18
ATOM     18  C   UNL     1       3.829   6.147  17.457  0.00  0.00    +0.000 C 
BRANCH  18  19
ATOM     19  C   UNL     1       5.292   6.206  17.808  0.00  0.00    +0.000 A 
ATOM     20  C   UNL     1       5.800   5.441  18.868  0.00  0.00    +0.000 A 
ATOM     21  C   UNL     1       7.125   5.590  19.270  0.00  0.00    +0.000 A 
ATOM     22  C   UNL     1       7.951   6.504  18.619  0.00  0.00    +0.000 A 
ATOM     23  C   UNL     1       7.459   7.261  17.556  0.00  0.00    +0.000 A 
ATOM     24  C   UNL     1       6.136   7.107  17.147  0.00  0.00    +0.000 A 
ENDBRANCH  18  19
ENDBRANCH  16  18
ENDBRANCH   5   9
BRANCH   1  25
ATOM     25  C   UNL     1       2.774  15.305  18.197  0.00  0.00    +0.000 C 
BRANCH  25  29
ATOM     26  C   UNL     1       7.067  16.014  18.498  0.00  0.00    +0.000 A 
ATOM     27  C   UNL     1       6.158  16.976  18.963  0.00  0.00    +0.000 A 
ATOM     28  C   UNL     1       4.770  16.781  18.849  0.00  0.00    +0.000 A 
ATOM     29  C   UNL     1       4.266  15.606  18.275  0.00  0.00    +0.000 A 
ATOM     30  C   UNL     1       5.181  14.661  17.793  0.00  0.00    +0.000 A 
ATOM     31  C   UNL     1       6.558  14.860  17.901  0.00  0.00    +0.000 A 
ATOM     32  F   UNL     1       7.359  13.896  17.435  0.00  0.00    +0.000 F 
BRANCH  26  34
ATOM     33  C   UNL     1       8.734  17.695  18.692  0.00  0.00    +0.000 C 
ATOM     34  O   UNL     1       8.383  16.314  18.718  0.00  0.00    +0.000 OA
ENDBRANCH  26  34
ENDBRANCH  25  29
ENDBRANCH   1  25
TORSDOF 6
ENDMDL
MODEL 2
REMARK VINA RESULT:      -8.1      4.554      7.137
REMARK  Name = 
REMARK  7 active torsions:
REMARK  status: ('A' for Active; 'I' for Inactive)
REMARK    1  A    between atoms: C_1  and  O_2
REMARK    2  A    between atoms: O_2  and  C_3
REMARK    3  A    between atoms: C_6  and  C_7
REMARK    4  A    between atoms: C_7  and  N_8
REMARK    5  A    between atoms: C_12  and  C_14
REMARK    6  A    between atoms: N_21  and  C_22
REMARK    7  A    between atoms: C_22  and  C_23
REMARK                            x       y       z     vdW  Elec       q    Type
REMARK                         _______ _______ _______ _____ _____    ______ ____
ROOT
ATOM      1  N   UNL     1      -1.961  12.606  19.891  0.00  0.00    +0.000 NA
ATOM      2  C   UNL     1      -2.095  11.299  19.256  0.00  0.00    +0.000 C 
ATOM      3  C   UNL     1      -0.795  10.489  19.231  0.00  0.00    +0.000 C 
ATOM      4  N   UNL     1       0.354  11.177  18.642  0.00  0.00    +0.000 N 
ATOM      5  C   UNL     1       1.599  10.571  18.363  0.00  0.00    +0.000 C 
ATOM      6  O   UNL     1       2.562  11.243  17.985  0.00  0.00    +0.000 OA
ATOM      7  C   UNL     1       0.404  12.639  18.815  0.00  0.00    +0.000 C 
ATOM      8  C   UNL     1      -0.915  13.362  19.185  0.00  0.00    +0.000 C 
ENDROOT
BRANCH   5   9
ATOM      9  C   UNL     1       1.864   9.118  18.614  0.00  0.00    +0.000 A 
ATOM     10  C   UNL     1       2.523   8.398  17.610  0.00  0.00    +0.000 A 
ATOM     11  N   UNL     1       2.898   7.084  17.658  0.00  0.00    +0.000 NA
ATOM     12  C   UNL     1       2.597   6.501  18.837  0.00  0.00    +0.000 A 
ATOM     13  C   UNL     1       1.936   7.088  19.902  0.00  0.00    +0.000 A 
ATOM     14  C   UNL     1       1.901   6.096  20.902  0.00  0.00    +0.000 A 
ATOM     15  N   UNL     1       2.445   4.944  20.504  0.00  0.00    +0.000 NA
ATOM     16  N   UNL     1       2.860   5.214  19.237  0.00  0.00    +0.000 N 
ATOM     17  C   UNL     1       1.492   8.410  19.757  0.00  0.00    +0.000 A 
BRANCH  16  18
ATOM     18  C   UNL     1       3.522   4.185  18.453  0.00  0.00    +0.000 C 
BRANCH  18  19
ATOM     19  C   UNL     1       4.978   4.522  18.278  0.00  0.00    +0.000 A 
ATOM     20  C   UNL     1       5.703   5.107  19.327  0.00  0.00    +0.000 A 
ATOM     21  C   UNL     1       7.014   5.531  19.125  0.00  0.00    +0.000 A 
ATOM     22  C   UNL     1       7.610   5.378  17.874  0.00  0.00    +0.000 A 
ATOM     23  C   UNL     1       6.902   4.787  16.828  0.00  0.00    +0.000 A 
ATOM     24  C   UNL     1       5.593   4.354  17.032  0.00  0.00    +0.000 A 
ENDBRANCH  18  19
ENDBRANCH  16  18
ENDBRANCH   5   9
BRANCH   1  25
ATOM     25  C   UNL     1      -1.785  12.514  21.347  0.00  0.00    +0.000 C 
BRANCH  25  29
ATOM     26  C   UNL     1      -5.391  13.691  23.502  0.00  0.00    +0.000 A 
ATOM     27  C   UNL     1      -5.089  14.269  22.260  0.00  0.00    +0.000 A 
ATOM     28  C   UNL     1      -3.918  13.926  21.562  0.00  0.00    +0.000 A 
ATOM     29  C   UNL     1      -3.028  12.982  22.094  0.00  0.00    +0.000 A 
ATOM     30  C   UNL     1      -3.325  12.427  23.346  0.00  0.00    +0.000 A 
ATOM     31  C   UNL     1      -4.485  12.773  24.039  0.00  0.00    +0.000 A 
ATOM     32  F   UNL     1      -4.701  12.178  25.217  0.00  0.00    +0.000 F 
BRANCH  26  34
ATOM     33  C   UNL     1      -7.650  13.137  23.980  0.00  0.00    +0.000 C 
ATOM     34  O   UNL     1      -6.585  14.081  24.043  0.00  0.00    +0.000 OA
ENDBRANCH  26  34
ENDBRANCH  25  29
ENDBRANCH   1  25
TORSDOF 6
ENDMDL
MODEL 3
REMARK VINA RESULT:      -8.1      0.966      1.516
REMARK  Name = 
REMARK  7 active torsions:
REMARK  status: ('A' for Active; 'I' for Inactive)
REMARK    1  A    between atoms: C_1  and  O_2
REMARK    2  A    between atoms: O_2  and  C_3
REMARK    3  A    between atoms: C_6  and  C_7
REMARK    4  A    between atoms: C_7  and  N_8
REMARK    5  A    between atoms: C_12  and  C_14
REMARK    6  A    between atoms: N_21  and  C_22
REMARK    7  A    between atoms: C_22  and  C_23
REMARK                            x       y       z     vdW  Elec       q    Type
REMARK                         _______ _______ _______ _____ _____    ______ ____
ROOT
ATOM      1  N   UNL     1       2.207  15.171  19.300  0.00  0.00    +0.000 NA
ATOM      2  C   UNL     1       2.617  14.054  20.146  0.00  0.00    +0.000 C 
ATOM      3  C   UNL     1       2.174  12.686  19.618  0.00  0.00    +0.000 C 
ATOM      4  N   UNL     1       0.743  12.561  19.342  0.00  0.00    +0.000 N 
ATOM      5  C   UNL     1       0.089  11.352  19.013  0.00  0.00    +0.000 C 
ATOM      6  O   UNL     1      -1.095  11.344  18.668  0.00  0.00    +0.000 OA
ATOM      7  C   UNL     1       0.051  13.780  18.890  0.00  0.00    +0.000 C 
ATOM      8  C   UNL     1       0.743  15.139  19.162  0.00  0.00    +0.000 C 
ENDROOT
BRANCH   5   9
ATOM      9  C   UNL     1       0.806  10.039  18.947  0.00  0.00    +0.000 A 
ATOM     10  C   UNL     1       1.550   9.765  17.793  0.00  0.00    +0.000 A 
ATOM     11  N   UNL     1       2.309   8.654  17.553  0.00  0.00    +0.000 NA
ATOM     12  C   UNL     1       2.318   7.797  18.595  0.00  0.00    +0.000 A 
ATOM     13  C   UNL     1       1.619   7.935  19.781  0.00  0.00    +0.000 A 
ATOM     14  C   UNL     1       1.987   6.815  20.554  0.00  0.00    +0.000 A 
ATOM     15  N   UNL     1       2.813   5.990  19.906  0.00  0.00    +0.000 NA
ATOM     16  N   UNL     1       2.998   6.609  18.709  0.00  0.00    +0.000 N 
ATOM     17  C   UNL     1       0.783   9.050  19.931  0.00  0.00    +0.000 A 
BRANCH  16  18
ATOM     18  C   UNL     1       3.859   6.008  17.704  0.00  0.00    +0.000 C 
BRANCH  18  19
ATOM     19  C   UNL     1       5.304   6.262  18.041  0.00  0.00    +0.000 A 
ATOM     20  C   UNL     1       6.062   7.166  17.282  0.00  0.00    +0.000 A 
ATOM     21  C   UNL     1       7.428   7.307  17.517  0.00  0.00    +0.000 A 
ATOM     22  C   UNL     1       8.047   6.547  18.508  0.00  0.00    +0.000 A 
ATOM     23  C   UNL     1       7.300   5.654  19.275  0.00  0.00    +0.000 A 
ATOM     24  C   UNL     1       5.932   5.518  19.048  0.00  0.00    +0.000 A 
ENDBRANCH  18  19
ENDBRANCH  16  18
ENDBRANCH   5   9
BRANCH   1  25
ATOM     25  C   UNL     1       2.949  15.224  18.032  0.00  0.00    +0.000 C 
BRANCH  25  29
ATOM     26  C   UNL     1       7.167  16.171  18.619  0.00  0.00    +0.000 A 
ATOM     27  C   UNL     1       6.793  15.011  17.924  0.00  0.00    +0.000 A 
ATOM     28  C   UNL     1       5.440  14.672  17.749  0.00  0.00    +0.000 A 
ATOM     29  C   UNL     1       4.431  15.500  18.260  0.00  0.00    +0.000 A 
ATOM     30  C   UNL     1       4.814  16.644  18.972  0.00  0.00    +0.000 A 
ATOM     31  C   UNL     1       6.157  16.976  19.149  0.00  0.00    +0.000 A 
ATOM     32  F   UNL     1       6.432  18.098  19.822  0.00  0.00    +0.000 F 
BRANCH  26  34
ATOM     33  C   UNL     1       9.350  15.423  18.059  0.00  0.00    +0.000 C 
ATOM     34  O   UNL     1       8.514  16.401  18.670  0.00  0.00    +0.000 OA
ENDBRANCH  26  34
ENDBRANCH  25  29
ENDBRANCH   1  25
TORSDOF 6
ENDMDL
MODEL 4
REMARK VINA RESULT:      -8.0      1.641      2.285
REMARK  Name = 
REMARK  7 active torsions:
REMARK  status: ('A' for Active; 'I' for Inactive)
REMARK    1  A    between atoms: C_1  and  O_2
REMARK    2  A    between atoms: O_2  and  C_3
REMARK    3  A    between atoms: C_6  and  C_7
REMARK    4  A    between atoms: C_7  and  N_8
REMARK    5  A    between atoms: C_12  and  C_14
REMARK    6  A    between atoms: N_21  and  C_22
REMARK    7  A    between atoms: C_22  and  C_23
REMARK                            x       y       z     vdW  Elec       q    Type
REMARK                         _______ _______ _______ _____ _____    ______ ____
ROOT
ATOM      1  N   UNL     1       2.880  15.777  19.192  0.00  0.00    +0.000 NA
ATOM      2  C   UNL     1       3.133  14.649  20.084  0.00  0.00    +0.000 C 
ATOM      3  C   UNL     1       2.499  13.336  19.613  0.00  0.00    +0.000 C 
ATOM      4  N   UNL     1       1.063  13.404  19.344  0.00  0.00    +0.000 N 
ATOM      5  C   UNL     1       0.243  12.287  19.065  0.00  0.00    +0.000 C 
ATOM      6  O   UNL     1      -0.933  12.432  18.722  0.00  0.00    +0.000 OA
ATOM      7  C   UNL     1       0.547  14.689  18.842  0.00  0.00    +0.000 C 
ATOM      8  C   UNL     1       1.425  15.946  19.057  0.00  0.00    +0.000 C 
ENDROOT
BRANCH   5   9
ATOM      9  C   UNL     1       0.767  10.884  19.053  0.00  0.00    +0.000 A 
ATOM     10  C   UNL     1       1.459  10.462  17.912  0.00  0.00    +0.000 A 
ATOM     11  N   UNL     1       2.052   9.246  17.718  0.00  0.00    +0.000 NA
ATOM     12  C   UNL     1       1.945   8.438  18.794  0.00  0.00    +0.000 A 
ATOM     13  C   UNL     1       1.278   8.721  19.973  0.00  0.00    +0.000 A 
ATOM     14  C   UNL     1       1.487   7.593  20.790  0.00  0.00    +0.000 A 
ATOM     15  N   UNL     1       2.186   6.634  20.177  0.00  0.00    +0.000 NA
ATOM     16  N   UNL     1       2.451   7.172  18.957  0.00  0.00    +0.000 N 
ATOM     17  C   UNL     1       0.608   9.948  20.076  0.00  0.00    +0.000 A 
BRANCH  16  18
ATOM     18  C   UNL     1       3.215   6.416  17.978  0.00  0.00    +0.000 C 
BRANCH  18  19
ATOM     19  C   UNL     1       3.084   4.941  18.247  0.00  0.00    +0.000 A 
ATOM     20  C   UNL     1       4.159   4.219  18.788  0.00  0.00    +0.000 A 
ATOM     21  C   UNL     1       4.080   2.835  18.921  0.00  0.00    +0.000 A 
ATOM     22  C   UNL     1       2.929   2.161  18.514  0.00  0.00    +0.000 A 
ATOM     23  C   UNL     1       1.851   2.870  17.986  0.00  0.00    +0.000 A 
ATOM     24  C   UNL     1       1.925   4.256  17.860  0.00  0.00    +0.000 A 
ENDBRANCH  18  19
ENDBRANCH  16  18
ENDBRANCH   5   9
BRANCH   1  25
ATOM     25  C   UNL     1       3.614  15.673  17.924  0.00  0.00    +0.000 C 
BRANCH  25  29
ATOM     26  C   UNL     1       7.921  15.674  18.620  0.00  0.00    +0.000 A 
ATOM     27  C   UNL     1       7.138  16.766  19.025  0.00  0.00    +0.000 A 
ATOM     28  C   UNL     1       5.754  16.799  18.785  0.00  0.00    +0.000 A 
ATOM     29  C   UNL     1       5.122  15.727  18.140  0.00  0.00    +0.000 A 
ATOM     30  C   UNL     1       5.914  14.651  17.718  0.00  0.00    +0.000 A 
ATOM     31  C   UNL     1       7.289  14.623  17.953  0.00  0.00    +0.000 A 
ATOM     32  F   UNL     1       7.964  13.546  17.537  0.00  0.00    +0.000 F 
BRANCH  26  34
ATOM     33  C   UNL     1      10.152  16.077  17.915  0.00  0.00    +0.000 C 
ATOM     34  O   UNL     1       9.242  15.755  18.962  0.00  0.00    +0.000 OA
ENDBRANCH  26  34
ENDBRANCH  25  29
ENDBRANCH   1  25
TORSDOF 6
ENDMDL
MODEL 5
REMARK VINA RESULT:      -8.0      2.082      3.152
REMARK  Name = 
REMARK  7 active torsions:
REMARK  status: ('A' for Active; 'I' for Inactive)
REMARK    1  A    between atoms: C_1  and  O_2
REMARK    2  A    between atoms: O_2  and  C_3
REMARK    3  A    between atoms: C_6  and  C_7
REMARK    4  A    between atoms: C_7  and  N_8
REMARK    5  A    between atoms: C_12  and  C_14
REMARK    6  A    between atoms: N_21  and  C_22
REMARK    7  A    between atoms: C_22  and  C_23
REMARK                            x       y       z     vdW  Elec       q    Type
REMARK                         _______ _______ _______ _____ _____    ______ ____
ROOT
ATOM      1  N   UNL     1       1.322  15.312  20.027  0.00  0.00    +0.000 NA
ATOM      2  C   UNL     1       2.029  14.265  20.760  0.00  0.00    +0.000 C 
ATOM      3  C   UNL     1       1.719  12.849  20.266  0.00  0.00    +0.000 C 
ATOM      4  N   UNL     1       0.298  12.506  20.219  0.00  0.00    +0.000 N 
ATOM      5  C   UNL     1      -0.209  11.212  19.960  0.00  0.00    +0.000 C 
ATOM      6  O   UNL     1      -1.419  11.024  19.809  0.00  0.00    +0.000 OA
ATOM      7  C   UNL     1      -0.635  13.606  19.923  0.00  0.00    +0.000 C 
ATOM      8  C   UNL     1      -0.122  15.054  20.125  0.00  0.00    +0.000 C 
ENDROOT
BRANCH   5   9
ATOM      9  C   UNL     1       0.678  10.027  19.738  0.00  0.00    +0.000 A 
ATOM     10  C   UNL     1       0.819   9.117  20.793  0.00  0.00    +0.000 A 
ATOM     11  N   UNL     1       1.539   7.955  20.780  0.00  0.00    +0.000 NA
ATOM     12  C   UNL     1       2.116   7.715  19.585  0.00  0.00    +0.000 A 
ATOM     13  C   UNL     1       2.073   8.533  18.469  0.00  0.00    +0.000 A 
ATOM     14  C   UNL     1       2.784   7.833  17.475  0.00  0.00    +0.000 A 
ATOM     15  N   UNL     1       3.293   6.681  17.918  0.00  0.00    +0.000 NA
ATOM     16  N   UNL     1       2.875   6.633  19.212  0.00  0.00    +0.000 N 
ATOM     17  C   UNL     1       1.397   9.757  18.573  0.00  0.00    +0.000 A 
BRANCH  16  18
ATOM     18  C   UNL     1       3.233   5.500  20.051  0.00  0.00    +0.000 C 
BRANCH  18  19
ATOM     19  C   UNL     1       2.651   4.233  19.485  0.00  0.00    +0.000 A 
ATOM     20  C   UNL     1       1.267   4.006  19.528  0.00  0.00    +0.000 A 
ATOM     21  C   UNL     1       0.743   2.782  19.118  0.00  0.00    +0.000 A 
ATOM     22  C   UNL     1       1.595   1.776  18.665  0.00  0.00    +0.000 A 
ATOM     23  C   UNL     1       2.971   1.996  18.608  0.00  0.00    +0.000 A 
ATOM     24  C   UNL     1       3.496   3.222  19.010  0.00  0.00    +0.000 A 
ENDBRANCH  18  19
ENDBRANCH  16  18
ENDBRANCH   5   9
BRANCH   1  25
ATOM     25  C   UNL     1       1.831  15.488  18.660  0.00  0.00    +0.000 C 
BRANCH  25  29
ATOM     26  C   UNL     1       6.164  15.974  18.530  0.00  0.00    +0.000 A 
ATOM     27  C   UNL     1       5.559  14.864  17.922  0.00  0.00    +0.000 A 
ATOM     28  C   UNL     1       4.168  14.673  17.977  0.00  0.00    +0.000 A 
ATOM     29  C   UNL     1       3.351  15.602  18.636  0.00  0.00    +0.000 A 
ATOM     30  C   UNL     1       3.966  16.695  19.260  0.00  0.00    +0.000 A 
ATOM     31  C   UNL     1       5.348  16.880  19.209  0.00  0.00    +0.000 A 
ATOM     32  F   UNL     1       5.848  17.964  19.813  0.00  0.00    +0.000 F 
BRANCH  26  34
ATOM     33  C   UNL     1       8.327  15.723  19.479  0.00  0.00    +0.000 C 
ATOM     34  O   UNL     1       7.518  16.058  18.355  0.00  0.00    +0.000 OA
ENDBRANCH  26  34
ENDBRANCH  25  29
ENDBRANCH   1  25
TORSDOF 6
ENDMDL
MODEL 6
REMARK VINA RESULT:      -7.7      1.637      2.267
REMARK  Name = 
REMARK  7 active torsions:
REMARK  status: ('A' for Active; 'I' for Inactive)
REMARK    1  A    between atoms: C_1  and  O_2
REMARK    2  A    between atoms: O_2  and  C_3
REMARK    3  A    between atoms: C_6  and  C_7
REMARK    4  A    between atoms: C_7  and  N_8
REMARK    5  A    between atoms: C_12  and  C_14
REMARK    6  A    between atoms: N_21  and  C_22
REMARK    7  A    between atoms: C_22  and  C_23
REMARK                            x       y       z     vdW  Elec       q    Type
REMARK                         _______ _______ _______ _____ _____    ______ ____
ROOT
ATOM      1  N   UNL     1       2.389  15.746  19.911  0.00  0.00    +0.000 NA
ATOM      2  C   UNL     1       2.862  14.569  20.635  0.00  0.00    +0.000 C 
ATOM      3  C   UNL     1       2.228  13.258  20.161  0.00  0.00    +0.000 C 
ATOM      4  N   UNL     1       0.765  13.243  20.154  0.00  0.00    +0.000 N 
ATOM      5  C   UNL     1      -0.026  12.096  19.919  0.00  0.00    +0.000 C 
ATOM      6  O   UNL     1      -1.251  12.184  19.800  0.00  0.00    +0.000 OA
ATOM      7  C   UNL     1       0.096  14.524  19.872  0.00  0.00    +0.000 C 
ATOM      8  C   UNL     1       0.926  15.820  20.047  0.00  0.00    +0.000 C 
ENDROOT
BRANCH   5   9
ATOM      9  C   UNL     1       0.565  10.741  19.684  0.00  0.00    +0.000 A 
ATOM     10  C   UNL     1       1.137  10.492  18.431  0.00  0.00    +0.000 A 
ATOM     11  N   UNL     1       1.766   9.346  18.031  0.00  0.00    +0.000 NA
ATOM     12  C   UNL     1       1.831   8.421  19.011  0.00  0.00    +0.000 A 
ATOM     13  C   UNL     1       1.297   8.529  20.283  0.00  0.00    +0.000 A 
ATOM     14  C   UNL     1       1.662   7.334  20.935  0.00  0.00    +0.000 A 
ATOM     15  N   UNL     1       2.332   6.496  20.140  0.00  0.00    +0.000 NA
ATOM     16  N   UNL     1       2.419   7.181  18.967  0.00  0.00    +0.000 N 
ATOM     17  C   UNL     1       0.581   9.691  20.603  0.00  0.00    +0.000 A 
BRANCH  16  18
ATOM     18  C   UNL     1       3.098   6.587  17.827  0.00  0.00    +0.000 C 
BRANCH  18  19
ATOM     19  C   UNL     1       2.945   5.090  17.855  0.00  0.00    +0.000 A 
ATOM     20  C   UNL     1       1.670   4.506  17.832  0.00  0.00    +0.000 A 
ATOM     21  C   UNL     1       1.526   3.128  17.983  0.00  0.00    +0.000 A 
ATOM     22  C   UNL     1       2.652   2.326  18.160  0.00  0.00    +0.000 A 
ATOM     23  C   UNL     1       3.924   2.896  18.172  0.00  0.00    +0.000 A 
ATOM     24  C   UNL     1       4.071   4.272  18.013  0.00  0.00    +0.000 A 
ENDBRANCH  18  19
ENDBRANCH  16  18
ENDBRANCH   5   9
BRANCH   1  25
ATOM     25  C   UNL     1       2.888  15.799  18.530  0.00  0.00    +0.000 C 
BRANCH  25  29
ATOM     26  C   UNL     1       7.241  16.079  18.477  0.00  0.00    +0.000 A 
ATOM     27  C   UNL     1       6.472  17.121  19.018  0.00  0.00    +0.000 A 
ATOM     28  C   UNL     1       5.068  17.064  19.019  0.00  0.00    +0.000 A 
ATOM     29  C   UNL     1       4.404  15.951  18.485  0.00  0.00    +0.000 A 
ATOM     30  C   UNL     1       5.178  14.926  17.926  0.00  0.00    +0.000 A 
ATOM     31  C   UNL     1       6.572  14.987  17.921  0.00  0.00    +0.000 A 
ATOM     32  F   UNL     1       7.233  13.954  17.388  0.00  0.00    +0.000 F 
BRANCH  26  34
ATOM     33  C   UNL     1       9.329  16.310  17.370  0.00  0.00    +0.000 C 
ATOM     34  O   UNL     1       8.594  16.246  18.589  0.00  0.00    +0.000 OA
ENDBRANCH  26  34
ENDBRANCH  25  29
ENDBRANCH   1  25
TORSDOF 6
ENDMDL
MODEL 7
REMARK VINA RESULT:      -7.6      1.165      1.427
REMARK  Name = 
REMARK  7 active torsions:
REMARK  status: ('A' for Active; 'I' for Inactive)
REMARK    1  A    between atoms: C_1  and  O_2
REMARK    2  A    between atoms: O_2  and  C_3
REMARK    3  A    between atoms: C_6  and  C_7
REMARK    4  A    between atoms: C_7  and  N_8
REMARK    5  A    between atoms: C_12  and  C_14
REMARK    6  A    between atoms: N_21  and  C_22
REMARK    7  A    between atoms: C_22  and  C_23
REMARK                            x       y       z     vdW  Elec       q    Type
REMARK                         _______ _______ _______ _____ _____    ______ ____
ROOT
ATOM      1  N   UNL     1       1.735  14.605  19.918  0.00  0.00    +0.000 NA
ATOM      2  C   UNL     1       2.363  13.493  20.625  0.00  0.00    +0.000 C 
ATOM      3  C   UNL     1       1.990  12.116  20.065  0.00  0.00    +0.000 C 
ATOM      4  N   UNL     1       0.555  11.855  19.968  0.00  0.00    +0.000 N 
ATOM      5  C   UNL     1      -0.015  10.603  19.643  0.00  0.00    +0.000 C 
ATOM      6  O   UNL     1      -1.228  10.488  19.452  0.00  0.00    +0.000 OA
ATOM      7  C   UNL     1      -0.309  13.016  19.693  0.00  0.00    +0.000 C 
ATOM      8  C   UNL     1       0.276  14.424  19.967  0.00  0.00    +0.000 C 
ENDROOT
BRANCH   5   9
ATOM      9  C   UNL     1       0.813   9.380  19.395  0.00  0.00    +0.000 A 
ATOM     10  C   UNL     1       1.491   9.294  18.173  0.00  0.00    +0.000 A 
ATOM     11  N   UNL     1       2.329   8.292  17.771  0.00  0.00    +0.000 NA
ATOM     12  C   UNL     1       2.494   7.342  18.716  0.00  0.00    +0.000 A 
ATOM     13  C   UNL     1       1.874   7.295  19.953  0.00  0.00    +0.000 A 
ATOM     14  C   UNL     1       2.399   6.147  20.579  0.00  0.00    +0.000 A 
ATOM     15  N   UNL     1       3.248   5.474  19.798  0.00  0.00    +0.000 NA
ATOM     16  N   UNL     1       3.286   6.222  18.662  0.00  0.00    +0.000 N 
ATOM     17  C   UNL     1       0.952   8.302  20.270  0.00  0.00    +0.000 A 
BRANCH  16  18
ATOM     18  C   UNL     1       4.123   5.810  17.547  0.00  0.00    +0.000 C 
BRANCH  18  19
ATOM     19  C   UNL     1       5.570   6.089  17.854  0.00  0.00    +0.000 A 
ATOM     20  C   UNL     1       6.232   5.376  18.865  0.00  0.00    +0.000 A 
ATOM     21  C   UNL     1       7.531   5.720  19.231  0.00  0.00    +0.000 A 
ATOM     22  C   UNL     1       8.177   6.779  18.594  0.00  0.00    +0.000 A 
ATOM     23  C   UNL     1       7.531   7.486  17.581  0.00  0.00    +0.000 A 
ATOM     24  C   UNL     1       6.235   7.138  17.207  0.00  0.00    +0.000 A 
ENDBRANCH  18  19
ENDBRANCH  16  18
ENDBRANCH   5   9
BRANCH   1  25
ATOM     25  C   UNL     1       2.291  14.807  18.572  0.00  0.00    +0.000 C 
BRANCH  25  29
ATOM     26  C   UNL     1       6.360  16.376  18.679  0.00  0.00    +0.000 A 
ATOM     27  C   UNL     1       6.075  15.197  17.973  0.00  0.00    +0.000 A 
ATOM     28  C   UNL     1       4.777  14.658  17.950  0.00  0.00    +0.000 A 
ATOM     29  C   UNL     1       3.732  15.301  18.628  0.00  0.00    +0.000 A 
ATOM     30  C   UNL     1       4.030  16.465  19.349  0.00  0.00    +0.000 A 
ATOM     31  C   UNL     1       5.320  16.994  19.376  0.00  0.00    +0.000 A 
ATOM     32  F   UNL     1       5.510  18.121  20.071  0.00  0.00    +0.000 F 
BRANCH  26  34
ATOM     33  C   UNL     1       8.628  15.829  18.233  0.00  0.00    +0.000 C 
ATOM     34  O   UNL     1       7.653  16.810  18.575  0.00  0.00    +0.000 OA
ENDBRANCH  26  34
ENDBRANCH  25  29
ENDBRANCH   1  25
TORSDOF 6
ENDMDL
MODEL 8
REMARK VINA RESULT:      -7.6      2.471      3.411
REMARK  Name = 
REMARK  7 active torsions:
REMARK  status: ('A' for Active; 'I' for Inactive)
REMARK    1  A    between atoms: C_1  and  O_2
REMARK    2  A    between atoms: O_2  and  C_3
REMARK    3  A    between atoms: C_6  and  C_7
REMARK    4  A    between atoms: C_7  and  N_8
REMARK    5  A    between atoms: C_12  and  C_14
REMARK    6  A    between atoms: N_21  and  C_22
REMARK    7  A    between atoms: C_22  and  C_23
REMARK                            x       y       z     vdW  Elec       q    Type
REMARK                         _______ _______ _______ _____ _____    ______ ____
ROOT
ATOM      1  N   UNL     1       0.619  16.105  20.220  0.00  0.00    +0.000 NA
ATOM      2  C   UNL     1       1.363  15.069  20.929  0.00  0.00    +0.000 C 
ATOM      3  C   UNL     1       1.064  13.649  20.439  0.00  0.00    +0.000 C 
ATOM      4  N   UNL     1      -0.352  13.281  20.431  0.00  0.00    +0.000 N 
ATOM      5  C   UNL     1      -0.844  11.980  20.182  0.00  0.00    +0.000 C 
ATOM      6  O   UNL     1      -2.054  11.772  20.063  0.00  0.00    +0.000 OA
ATOM      7  C   UNL     1      -1.311  14.366  20.164  0.00  0.00    +0.000 C 
ATOM      8  C   UNL     1      -0.818  15.822  20.356  0.00  0.00    +0.000 C 
ENDROOT
BRANCH   5   9
ATOM      9  C   UNL     1       0.057  10.811  19.931  0.00  0.00    +0.000 A 
ATOM     10  C   UNL     1       0.224   9.888  20.971  0.00  0.00    +0.000 A 
ATOM     11  N   UNL     1       0.961   8.738  20.932  0.00  0.00    +0.000 NA
ATOM     12  C   UNL     1       1.525   8.522  19.726  0.00  0.00    +0.000 A 
ATOM     13  C   UNL     1       1.456   9.355  18.623  0.00  0.00    +0.000 A 
ATOM     14  C   UNL     1       2.163   8.679  17.610  0.00  0.00    +0.000 A 
ATOM     15  N   UNL     1       2.694   7.528  18.030  0.00  0.00    +0.000 NA
ATOM     16  N   UNL     1       2.294   7.456  19.329  0.00  0.00    +0.000 N 
ATOM     17  C   UNL     1       0.764  10.568  18.753  0.00  0.00    +0.000 A 
BRANCH  16  18
ATOM     18  C   UNL     1       2.679   6.317  20.146  0.00  0.00    +0.000 C 
BRANCH  18  19
ATOM     19  C   UNL     1       1.999   5.070  19.649  0.00  0.00    +0.000 A 
ATOM     20  C   UNL     1       1.256   4.268  20.528  0.00  0.00    +0.000 A 
ATOM     21  C   UNL     1       0.732   3.051  20.097  0.00  0.00    +0.000 A 
ATOM     22  C   UNL     1       0.947   2.627  18.787  0.00  0.00    +0.000 A 
ATOM     23  C   UNL     1       1.674   3.422  17.902  0.00  0.00    +0.000 A 
ATOM     24  C   UNL     1       2.192   4.643  18.330  0.00  0.00    +0.000 A 
ENDBRANCH  18  19
ENDBRANCH  16  18
ENDBRANCH   5   9
BRANCH   1  25
ATOM     25  C   UNL     1       1.087  16.294  18.839  0.00  0.00    +0.000 C 
BRANCH  25  29
ATOM     26  C   UNL     1       5.408  15.842  18.451  0.00  0.00    +0.000 A 
ATOM     27  C   UNL     1       4.543  14.940  17.813  0.00  0.00    +0.000 A 
ATOM     28  C   UNL     1       3.148  15.050  17.949  0.00  0.00    +0.000 A 
ATOM     29  C   UNL     1       2.591  16.079  18.721  0.00  0.00    +0.000 A 
ATOM     30  C   UNL     1       3.462  16.961  19.373  0.00  0.00    +0.000 A 
ATOM     31  C   UNL     1       4.847  16.847  19.242  0.00  0.00    +0.000 A 
ATOM     32  F   UNL     1       5.603  17.745  19.881  0.00  0.00    +0.000 F 
BRANCH  26  34
ATOM     33  C   UNL     1       7.116  14.338  17.773  0.00  0.00    +0.000 C 
ATOM     34  O   UNL     1       6.736  15.645  18.192  0.00  0.00    +0.000 OA
ENDBRANCH  26  34
ENDBRANCH  25  29
ENDBRANCH   1  25
TORSDOF 6
ENDMDL
MODEL 9
REMARK VINA RESULT:      -7.5      3.409      9.199
REMARK  Name = 
REMARK  7 active torsions:
REMARK  status: ('A' for Active; 'I' for Inactive)
REMARK    1  A    between atoms: C_1  and  O_2
REMARK    2  A    between atoms: O_2  and  C_3
REMARK    3  A    between atoms: C_6  and  C_7
REMARK    4  A    between atoms: C_7  and  N_8
REMARK    5  A    between atoms: C_12  and  C_14
REMARK    6  A    between atoms: N_21  and  C_22
REMARK    7  A    between atoms: C_22  and  C_23
REMARK                            x       y       z     vdW  Elec       q    Type
REMARK                         _______ _______ _______ _____ _____    ______ ____
ROOT
ATOM      1  N   UNL     1       2.938   5.063  19.077  0.00  0.00    +0.000 NA
ATOM      2  C   UNL     1       2.425   6.098  18.183  0.00  0.00    +0.000 C 
ATOM      3  C   UNL     1       2.183   7.444  18.873  0.00  0.00    +0.000 C 
ATOM      4  N   UNL     1       1.330   7.389  20.060  0.00  0.00    +0.000 N 
ATOM      5  C   UNL     1       0.838   8.519  20.751  0.00  0.00    +0.000 C 
ATOM      6  O   UNL     1       0.230   8.396  21.817  0.00  0.00    +0.000 OA
ATOM      7  C   UNL     1       1.398   6.156  20.862  0.00  0.00    +0.000 C 
ATOM      8  C   UNL     1       1.987   4.893  20.186  0.00  0.00    +0.000 C 
ENDROOT
BRANCH   5   9
ATOM      9  C   UNL     1       1.118   9.921  20.307  0.00  0.00    +0.000 A 
ATOM     10  C   UNL     1       0.997  10.939  21.261  0.00  0.00    +0.000 A 
ATOM     11  N   UNL     1       1.250  12.269  21.075  0.00  0.00    +0.000 NA
ATOM     12  C   UNL     1       1.688  12.545  19.829  0.00  0.00    +0.000 A 
ATOM     13  C   UNL     1       1.837  11.644  18.789  0.00  0.00    +0.000 A 
ATOM     14  C   UNL     1       2.356  12.401  17.721  0.00  0.00    +0.000 A 
ATOM     15  N   UNL     1       2.485  13.696  18.021  0.00  0.00    +0.000 NA
ATOM     16  N   UNL     1       2.066  13.760  19.314  0.00  0.00    +0.000 N 
ATOM     17  C   UNL     1       1.471  10.309  19.014  0.00  0.00    +0.000 A 
BRANCH  16  18
ATOM     18  C   UNL     1       2.061  15.034  20.014  0.00  0.00    +0.000 C 
BRANCH  18  19
ATOM     19  C   UNL     1       1.247  16.043  19.249  0.00  0.00    +0.000 A 
ATOM     20  C   UNL     1       1.854  17.192  18.721  0.00  0.00    +0.000 A 
ATOM     21  C   UNL     1       1.080  18.183  18.122  0.00  0.00    +0.000 A 
ATOM     22  C   UNL     1      -0.304  18.036  18.048  0.00  0.00    +0.000 A 
ATOM     23  C   UNL     1      -0.916  16.892  18.559  0.00  0.00    +0.000 A 
ATOM     24  C   UNL     1      -0.142  15.896  19.151  0.00  0.00    +0.000 A 
ENDBRANCH  18  19
ENDBRANCH  16  18
ENDBRANCH   5   9
BRANCH   1  25
ATOM     25  C   UNL     1       4.329   5.304  19.483  0.00  0.00    +0.000 C 
BRANCH  25  29
ATOM     26  C   UNL     1       6.995   5.377  16.030  0.00  0.00    +0.000 A 
ATOM     27  C   UNL     1       6.054   4.347  16.175  0.00  0.00    +0.000 A 
ATOM     28  C   UNL     1       5.206   4.288  17.294  0.00  0.00    +0.000 A 
ATOM     29  C   UNL     1       5.276   5.273  18.289  0.00  0.00    +0.000 A 
ATOM     30  C   UNL     1       6.234   6.286  18.148  0.00  0.00    +0.000 A 
ATOM     31  C   UNL     1       7.080   6.339  17.039  0.00  0.00    +0.000 A 
ATOM     32  F   UNL     1       7.949   7.353  16.974  0.00  0.00    +0.000 F 
BRANCH  26  34
ATOM     33  C   UNL     1       7.096   4.708  13.754  0.00  0.00    +0.000 C 
ATOM     34  O   UNL     1       7.719   5.337  14.871  0.00  0.00    +0.000 OA
ENDBRANCH  26  34
ENDBRANCH  25  29
ENDBRANCH   1  25
TORSDOF 6
ENDMDL
