MODEL 1
REMARK VINA RESULT:      -9.3      0.000      0.000
REMARK  Name = 
REMARK  8 active torsions:
REMARK  status: ('A' for Active; 'I' for Inactive)
REMARK    1  A    between atoms: C_2  and  C_3
REMARK    2  A    between atoms: C_3  and  C_4
REMARK    3  A    between atoms: C_4  and  C_5
REMARK    4  A    between atoms: C_8  and  C_9
REMARK    5  A    between atoms: N_17  and  C_18
REMARK    6  A    between atoms: C_18  and  C_19
REMARK    7  A    between atoms: C_23  and  O_24
REMARK    8  A    between atoms: O_24  and  C_25
REMARK                            x       y       z     vdW  Elec       q    Type
REMARK                         _______ _______ _______ _____ _____    ______ ____
ROOT
ATOM      1  O   UNL     1       7.699   7.281  16.696  0.00  0.00    +0.000 OA
ATOM      2  C   UNL     1       7.915   7.366  17.903  0.00  0.00    +0.000 C 
ATOM      3  N   UNL     1       8.250   8.540  18.537  0.00  0.00    +0.000 N 
ATOM      4  H   UNL     1       8.480   8.525  19.519  0.00  0.00    +0.000 HD
ENDROOT
BRANCH   2   5
ATOM      5  C   UNL     1       7.826   6.162  18.824  0.00  0.00    +0.000 C 
BRANCH   5   6
ATOM      6  C   UNL     1       7.714   4.864  18.034  0.00  0.00    +0.000 C 
BRANCH   6   7
ATOM      7  C   UNL     1       6.307   4.440  17.822  0.00  0.00    +0.000 A 
ATOM      8  N   UNL     1       5.707   4.143  16.687  0.00  0.00    +0.000 NA
ATOM      9  C   UNL     1       4.452   3.755  17.078  0.00  0.00    +0.000 A 
ATOM     10  C   UNL     1       4.320   3.847  18.447  0.00  0.00    +0.000 A 
ATOM     11  O   UNL     1       5.511   4.315  18.929  0.00  0.00    +0.000 OA
BRANCH  10  12
ATOM     12  C   UNL     1       3.266   3.564  19.410  0.00  0.00    +0.000 A 
ATOM     13  C   UNL     1       3.499   2.751  20.533  0.00  0.00    +0.000 A 
ATOM     14  C   UNL     1       2.478   2.506  21.461  0.00  0.00    +0.000 A 
ATOM     15  C   UNL     1       1.214   3.062  21.275  0.00  0.00    +0.000 A 
ATOM     16  C   UNL     1       0.967   3.858  20.162  0.00  0.00    +0.000 A 
ATOM     17  C   UNL     1       1.983   4.101  19.244  0.00  0.00    +0.000 A 
ATOM     18  F   UNL     1       1.701   4.875  18.186  0.00  0.00    +0.000 F 
ENDBRANCH  10  12
ENDBRANCH   6   7
ENDBRANCH   5   6
ENDBRANCH   2   5
BRANCH   3  19
ATOM     19  C   UNL     1       8.444   9.785  17.823  0.00  0.00    +0.000 C 
BRANCH  19  20
ATOM     20  C   UNL     1       9.418  10.667  18.557  0.00  0.00    +0.000 A 
ATOM     21  C   UNL     1       9.360  10.761  19.951  0.00  0.00    +0.000 A 
ATOM     22  C   UNL     1      10.287  11.557  20.600  0.00  0.00    +0.000 A 
ATOM     23  N   UNL     1      11.252  12.261  19.973  0.00  0.00    +0.000 NA
ATOM     24  C   UNL     1      11.297  12.167  18.626  0.00  0.00    +0.000 A 
ATOM     25  C   UNL     1      10.422  11.383  17.886  0.00  0.00    +0.000 A 
BRANCH  24  26
ATOM     26  O   UNL     1      12.271  12.870  17.936  0.00  0.00    +0.000 OA
BRANCH  26  27
ATOM     27  C   UNL     1      12.072  14.291  17.939  0.00  0.00    +0.000 C 
ATOM     28  C   UNL     1      12.330  14.885  19.325  0.00  0.00    +0.000 C 
ATOM     29  C   UNL     1      11.336  16.022  19.518  0.00  0.00    +0.000 C 
ATOM     30  C   UNL     1      10.333  15.939  18.377  0.00  0.00    +0.000 C 
ATOM     31  C   UNL     1      10.605  14.623  17.657  0.00  0.00    +0.000 C 
ENDBRANCH  26  27
ENDBRANCH  24  26
ENDBRANCH  19  20
ENDBRANCH   3  19
TORSDOF 8
ENDMDL
MODEL 2
REMARK VINA RESULT:      -9.1      1.345      1.703
REMARK  Name = 
REMARK  8 active torsions:
REMARK  status: ('A' for Active; 'I' for Inactive)
REMARK    1  A    between atoms: C_2  and  C_3
REMARK    2  A    between atoms: C_3  and  C_4
REMARK    3  A    between atoms: C_4  and  C_5
REMARK    4  A    between atoms: C_8  and  C_9
REMARK    5  A    between atoms: N_17  and  C_18
REMARK    6  A    between atoms: C_18  and  C_19
REMARK    7  A    between atoms: C_23  and  O_24
REMARK    8  A    between atoms: O_24  and  C_25
REMARK                            x       y       z     vdW  Elec       q    Type
REMARK                         _______ _______ _______ _____ _____    ______ ____
ROOT
ATOM      1  O   UNL     1       7.448   7.314  16.669  0.00  0.00    +0.000 OA
ATOM      2  C   UNL     1       7.824   7.395  17.836  0.00  0.00    +0.000 C 
ATOM      3  N   UNL     1       8.312   8.549  18.402  0.00  0.00    +0.000 N 
ATOM      4  H   UNL     1       8.667   8.528  19.346  0.00  0.00    +0.000 HD
ENDROOT
BRANCH   2   5
ATOM      5  C   UNL     1       7.779   6.207  18.781  0.00  0.00    +0.000 C 
BRANCH   5   6
ATOM      6  C   UNL     1       7.697   4.891  18.018  0.00  0.00    +0.000 C 
BRANCH   6   7
ATOM      7  C   UNL     1       6.315   4.555  17.597  0.00  0.00    +0.000 A 
ATOM      8  N   UNL     1       5.867   4.311  16.381  0.00  0.00    +0.000 NA
ATOM      9  C   UNL     1       4.549   3.993  16.580  0.00  0.00    +0.000 A 
ATOM     10  C   UNL     1       4.228   4.072  17.918  0.00  0.00    +0.000 A 
ATOM     11  O   UNL     1       5.362   4.460  18.576  0.00  0.00    +0.000 OA
BRANCH  10  12
ATOM     12  C   UNL     1       3.032   3.836  18.715  0.00  0.00    +0.000 A 
ATOM     13  C   UNL     1       2.685   4.681  19.783  0.00  0.00    +0.000 A 
ATOM     14  C   UNL     1       1.519   4.451  20.526  0.00  0.00    +0.000 A 
ATOM     15  C   UNL     1       0.692   3.373  20.215  0.00  0.00    +0.000 A 
ATOM     16  C   UNL     1       1.031   2.522  19.168  0.00  0.00    +0.000 A 
ATOM     17  C   UNL     1       2.187   2.755  18.433  0.00  0.00    +0.000 A 
ATOM     18  F   UNL     1       2.474   1.910  17.432  0.00  0.00    +0.000 F 
ENDBRANCH  10  12
ENDBRANCH   6   7
ENDBRANCH   5   6
ENDBRANCH   2   5
BRANCH   3  19
ATOM     19  C   UNL     1       8.491   9.773  17.649  0.00  0.00    +0.000 C 
BRANCH  19  20
ATOM     20  C   UNL     1       9.137  10.830  18.504  0.00  0.00    +0.000 A 
ATOM     21  C   UNL     1       9.432  10.558  19.844  0.00  0.00    +0.000 A 
ATOM     22  C   UNL     1      10.052  11.538  20.598  0.00  0.00    +0.000 A 
ATOM     23  N   UNL     1      10.392  12.755  20.125  0.00  0.00    +0.000 NA
ATOM     24  C   UNL     1      10.099  13.010  18.831  0.00  0.00    +0.000 A 
ATOM     25  C   UNL     1       9.493  12.086  17.990  0.00  0.00    +0.000 A 
BRANCH  24  26
ATOM     26  O   UNL     1      10.430  14.245  18.298  0.00  0.00    +0.000 OA
BRANCH  26  27
ATOM     27  C   UNL     1       9.748  15.345  18.918  0.00  0.00    +0.000 C 
ATOM     28  C   UNL     1       8.294  15.432  18.450  0.00  0.00    +0.000 C 
ATOM     29  C   UNL     1       7.938  16.910  18.363  0.00  0.00    +0.000 C 
ATOM     30  C   UNL     1       9.233  17.692  18.523  0.00  0.00    +0.000 C 
ATOM     31  C   UNL     1      10.365  16.672  18.471  0.00  0.00    +0.000 C 
ENDBRANCH  26  27
ENDBRANCH  24  26
ENDBRANCH  19  20
ENDBRANCH   3  19
TORSDOF 8
ENDMDL
MODEL 3
REMARK VINA RESULT:      -8.8      3.126     11.378
REMARK  Name = 
REMARK  8 active torsions:
REMARK  status: ('A' for Active; 'I' for Inactive)
REMARK    1  A    between atoms: C_2  and  C_3
REMARK    2  A    between atoms: C_3  and  C_4
REMARK    3  A    between atoms: C_4  and  C_5
REMARK    4  A    between atoms: C_8  and  C_9
REMARK    5  A    between atoms: N_17  and  C_18
REMARK    6  A    between atoms: C_18  and  C_19
REMARK    7  A    between atoms: C_23  and  O_24
REMARK    8  A    between atoms: O_24  and  C_25
REMARK                            x       y       z     vdW  Elec       q    Type
REMARK                         _______ _______ _______ _____ _____    ______ ____
ROOT
ATOM      1  O   UNL     1       7.877   6.629  18.487  0.00  0.00    +0.000 OA
ATOM      2  C   UNL     1       7.416   7.479  17.729  0.00  0.00    +0.000 C 
ATOM      3  N   UNL     1       6.492   7.207  16.748  0.00  0.00    +0.000 N 
ATOM      4  H   UNL     1       6.208   7.940  16.116  0.00  0.00    +0.000 HD
ENDROOT
BRANCH   2   5
ATOM      5  C   UNL     1       7.829   8.938  17.809  0.00  0.00    +0.000 C 
BRANCH   5   6
ATOM      6  C   UNL     1       9.075   9.117  18.668  0.00  0.00    +0.000 C 
BRANCH   6   7
ATOM      7  C   UNL     1       9.194  10.485  19.232  0.00  0.00    +0.000 A 
ATOM      8  N   UNL     1       9.251  10.843  20.499  0.00  0.00    +0.000 NA
ATOM      9  C   UNL     1       9.426  12.202  20.443  0.00  0.00    +0.000 A 
ATOM     10  C   UNL     1       9.450  12.633  19.134  0.00  0.00    +0.000 A 
ATOM     11  O   UNL     1       9.275  11.528  18.348  0.00  0.00    +0.000 OA
BRANCH  10  12
ATOM     12  C   UNL     1       9.621  13.916  18.466  0.00  0.00    +0.000 A 
ATOM     13  C   UNL     1       8.559  14.829  18.350  0.00  0.00    +0.000 A 
ATOM     14  C   UNL     1       8.747  16.068  17.722  0.00  0.00    +0.000 A 
ATOM     15  C   UNL     1       9.994  16.405  17.199  0.00  0.00    +0.000 A 
ATOM     16  C   UNL     1      11.050  15.505  17.296  0.00  0.00    +0.000 A 
ATOM     17  C   UNL     1      10.860  14.278  17.921  0.00  0.00    +0.000 A 
ATOM     18  F   UNL     1      11.906  13.443  17.994  0.00  0.00    +0.000 F 
ENDBRANCH  10  12
ENDBRANCH   6   7
ENDBRANCH   5   6
ENDBRANCH   2   5
BRANCH   3  19
ATOM     19  C   UNL     1       6.019   5.866  16.471  0.00  0.00    +0.000 C 
BRANCH  19  20
ATOM     20  C   UNL     1       4.645   5.662  17.051  0.00  0.00    +0.000 A 
ATOM     21  C   UNL     1       3.959   6.741  17.616  0.00  0.00    +0.000 A 
ATOM     22  C   UNL     1       2.686   6.529  18.114  0.00  0.00    +0.000 A 
ATOM     23  N   UNL     1       2.054   5.337  18.097  0.00  0.00    +0.000 NA
ATOM     24  C   UNL     1       2.727   4.300  17.552  0.00  0.00    +0.000 A 
ATOM     25  C   UNL     1       4.001   4.415  17.011  0.00  0.00    +0.000 A 
BRANCH  24  26
ATOM     26  O   UNL     1       2.120   3.055  17.508  0.00  0.00    +0.000 OA
BRANCH  26  27
ATOM     27  C   UNL     1       1.999   2.424  18.791  0.00  0.00    +0.000 C 
ATOM     28  C   UNL     1       0.831   3.008  19.589  0.00  0.00    +0.000 C 
ATOM     29  C   UNL     1       1.251   3.027  21.052  0.00  0.00    +0.000 C 
ATOM     30  C   UNL     1       2.738   2.704  21.095  0.00  0.00    +0.000 C 
ATOM     31  C   UNL     1       3.227   2.727  19.651  0.00  0.00    +0.000 C 
ENDBRANCH  26  27
ENDBRANCH  24  26
ENDBRANCH  19  20
ENDBRANCH   3  19
TORSDOF 8
ENDMDL
MODEL 4
REMARK VINA RESULT:      -8.6      5.445      7.397
REMARK  Name = 
REMARK  8 active torsions:
REMARK  status: ('A' for Active; 'I' for Inactive)
REMARK    1  A    between atoms: C_2  and  C_3
REMARK    2  A    between atoms: C_3  and  C_4
REMARK    3  A    between atoms: C_4  and  C_5
REMARK    4  A    between atoms: C_8  and  C_9
REMARK    5  A    between atoms: N_17  and  C_18
REMARK    6  A    between atoms: C_18  and  C_19
REMARK    7  A    between atoms: C_23  and  O_24
REMARK    8  A    between atoms: O_24  and  C_25
REMARK                            x       y       z     vdW  Elec       q    Type
REMARK                         _______ _______ _______ _____ _____    ______ ____
ROOT
ATOM      1  O   UNL     1       5.413   6.862  15.430  0.00  0.00    +0.000 OA
ATOM      2  C   UNL     1       5.579   6.927  16.645  0.00  0.00    +0.000 C 
ATOM      3  N   UNL     1       4.577   7.229  17.537  0.00  0.00    +0.000 N 
ATOM      4  H   UNL     1       4.799   7.332  18.516  0.00  0.00    +0.000 HD
ENDROOT
BRANCH   2   5
ATOM      5  C   UNL     1       6.931   6.670  17.289  0.00  0.00    +0.000 C 
BRANCH   5   6
ATOM      6  C   UNL     1       7.158   5.182  17.530  0.00  0.00    +0.000 C 
BRANCH   6   7
ATOM      7  C   UNL     1       5.897   4.399  17.527  0.00  0.00    +0.000 A 
ATOM      8  N   UNL     1       5.417   3.626  16.573  0.00  0.00    +0.000 NA
ATOM      9  C   UNL     1       4.277   3.104  17.125  0.00  0.00    +0.000 A 
ATOM     10  C   UNL     1       4.086   3.593  18.399  0.00  0.00    +0.000 A 
ATOM     11  O   UNL     1       5.119   4.452  18.653  0.00  0.00    +0.000 OA
BRANCH  10  12
ATOM     12  C   UNL     1       3.099   3.395  19.451  0.00  0.00    +0.000 A 
ATOM     13  C   UNL     1       1.811   3.949  19.361  0.00  0.00    +0.000 A 
ATOM     14  C   UNL     1       0.867   3.730  20.374  0.00  0.00    +0.000 A 
ATOM     15  C   UNL     1       1.200   2.962  21.488  0.00  0.00    +0.000 A 
ATOM     16  C   UNL     1       2.476   2.417  21.595  0.00  0.00    +0.000 A 
ATOM     17  C   UNL     1       3.409   2.635  20.587  0.00  0.00    +0.000 A 
ATOM     18  F   UNL     1       4.625   2.090  20.731  0.00  0.00    +0.000 F 
ENDBRANCH  10  12
ENDBRANCH   6   7
ENDBRANCH   5   6
ENDBRANCH   2   5
BRANCH   3  19
ATOM     19  C   UNL     1       3.233   7.566  17.117  0.00  0.00    +0.000 C 
BRANCH  19  20
ATOM     20  C   UNL     1       2.430   8.083  18.281  0.00  0.00    +0.000 A 
ATOM     21  C   UNL     1       2.350   7.334  19.460  0.00  0.00    +0.000 A 
ATOM     22  C   UNL     1       1.629   7.847  20.523  0.00  0.00    +0.000 A 
ATOM     23  N   UNL     1       0.986   9.033  20.499  0.00  0.00    +0.000 NA
ATOM     24  C   UNL     1       1.066   9.747  19.355  0.00  0.00    +0.000 A 
ATOM     25  C   UNL     1       1.778   9.325  18.240  0.00  0.00    +0.000 A 
BRANCH  24  26
ATOM     26  O   UNL     1       0.424  10.972  19.282  0.00  0.00    +0.000 OA
BRANCH  26  27
ATOM     27  C   UNL     1      -0.522  11.195  20.337  0.00  0.00    +0.000 C 
ATOM     28  C   UNL     1      -1.822  11.799  19.800  0.00  0.00    +0.000 C 
ATOM     29  C   UNL     1      -2.334  12.771  20.854  0.00  0.00    +0.000 C 
ATOM     30  C   UNL     1      -1.227  12.938  21.885  0.00  0.00    +0.000 C 
ATOM     31  C   UNL     1       0.006  12.250  21.311  0.00  0.00    +0.000 C 
ENDBRANCH  26  27
ENDBRANCH  24  26
ENDBRANCH  19  20
ENDBRANCH   3  19
TORSDOF 8
ENDMDL
MODEL 5
REMARK VINA RESULT:      -8.6      3.556      9.429
REMARK  Name = 
REMARK  8 active torsions:
REMARK  status: ('A' for Active; 'I' for Inactive)
REMARK    1  A    between atoms: C_2  and  C_3
REMARK    2  A    between atoms: C_3  and  C_4
REMARK    3  A    between atoms: C_4  and  C_5
REMARK    4  A    between atoms: C_8  and  C_9
REMARK    5  A    between atoms: N_17  and  C_18
REMARK    6  A    between atoms: C_18  and  C_19
REMARK    7  A    between atoms: C_23  and  O_24
REMARK    8  A    between atoms: O_24  and  C_25
REMARK                            x       y       z     vdW  Elec       q    Type
REMARK                         _______ _______ _______ _____ _____    ______ ____
ROOT
ATOM      1  O   UNL     1       5.945   3.907  19.028  0.00  0.00    +0.000 OA
ATOM      2  C   UNL     1       5.974   4.549  17.981  0.00  0.00    +0.000 C 
ATOM      3  N   UNL     1       4.907   4.651  17.119  0.00  0.00    +0.000 N 
ATOM      4  H   UNL     1       5.022   5.139  16.243  0.00  0.00    +0.000 HD
ENDROOT
BRANCH   2   5
ATOM      5  C   UNL     1       7.211   5.309  17.536  0.00  0.00    +0.000 C 
BRANCH   5   6
ATOM      6  C   UNL     1       7.792   6.141  18.672  0.00  0.00    +0.000 C 
BRANCH   6   7
ATOM      7  C   UNL     1       7.973   7.568  18.307  0.00  0.00    +0.000 A 
ATOM      8  N   UNL     1       7.397   8.240  17.330  0.00  0.00    +0.000 NA
ATOM      9  C   UNL     1       7.867   9.516  17.495  0.00  0.00    +0.000 A 
ATOM     10  C   UNL     1       8.736   9.578  18.564  0.00  0.00    +0.000 A 
ATOM     11  O   UNL     1       8.826   8.314  19.075  0.00  0.00    +0.000 OA
BRANCH  10  12
ATOM     12  C   UNL     1       9.507  10.627  19.215  0.00  0.00    +0.000 A 
ATOM     13  C   UNL     1       9.270  10.988  20.552  0.00  0.00    +0.000 A 
ATOM     14  C   UNL     1      10.037  11.986  21.170  0.00  0.00    +0.000 A 
ATOM     15  C   UNL     1      11.042  12.638  20.458  0.00  0.00    +0.000 A 
ATOM     16  C   UNL     1      11.279  12.298  19.130  0.00  0.00    +0.000 A 
ATOM     17  C   UNL     1      10.518  11.307  18.522  0.00  0.00    +0.000 A 
ATOM     18  F   UNL     1      10.782  11.011  17.241  0.00  0.00    +0.000 F 
ENDBRANCH  10  12
ENDBRANCH   6   7
ENDBRANCH   5   6
ENDBRANCH   2   5
BRANCH   3  19
ATOM     19  C   UNL     1       3.659   3.951  17.335  0.00  0.00    +0.000 C 
BRANCH  19  20
ATOM     20  C   UNL     1       2.931   4.523  18.522  0.00  0.00    +0.000 A 
ATOM     21  C   UNL     1       2.274   3.669  19.414  0.00  0.00    +0.000 A 
ATOM     22  C   UNL     1       1.639   4.220  20.512  0.00  0.00    +0.000 A 
ATOM     23  N   UNL     1       1.604   5.541  20.783  0.00  0.00    +0.000 NA
ATOM     24  C   UNL     1       2.238   6.358  19.913  0.00  0.00    +0.000 A 
ATOM     25  C   UNL     1       2.917   5.900  18.792  0.00  0.00    +0.000 A 
BRANCH  24  26
ATOM     26  O   UNL     1       2.233   7.723  20.148  0.00  0.00    +0.000 OA
BRANCH  26  27
ATOM     27  C   UNL     1       1.487   8.475  19.180  0.00  0.00    +0.000 C 
ATOM     28  C   UNL     1       2.414   9.155  18.171  0.00  0.00    +0.000 C 
ATOM     29  C   UNL     1       1.790  10.499  17.822  0.00  0.00    +0.000 C 
ATOM     30  C   UNL     1       0.647  10.730  18.801  0.00  0.00    +0.000 C 
ATOM     31  C   UNL     1       0.756   9.636  19.858  0.00  0.00    +0.000 C 
ENDBRANCH  26  27
ENDBRANCH  24  26
ENDBRANCH  19  20
ENDBRANCH   3  19
TORSDOF 8
ENDMDL
MODEL 6
REMARK VINA RESULT:      -8.5      3.526     10.459
REMARK  Name = 
REMARK  8 active torsions:
REMARK  status: ('A' for Active; 'I' for Inactive)
REMARK    1  A    between atoms: C_2  and  C_3
REMARK    2  A    between atoms: C_3  and  C_4
REMARK    3  A    between atoms: C_4  and  C_5
REMARK    4  A    between atoms: C_8  and  C_9
REMARK    5  A    between atoms: N_17  and  C_18
REMARK    6  A    between atoms: C_18  and  C_19
REMARK    7  A    between atoms: C_23  and  O_24
REMARK    8  A    between atoms: O_24  and  C_25
REMARK                            x       y       z     vdW  Elec       q    Type
REMARK                         _______ _______ _______ _____ _____    ______ ____
ROOT
ATOM      1  O   UNL     1       6.981   6.877  16.383  0.00  0.00    +0.000 OA
ATOM      2  C   UNL     1       7.402   6.693  17.522  0.00  0.00    +0.000 C 
ATOM      3  N   UNL     1       7.198   5.534  18.234  0.00  0.00    +0.000 N 
ATOM      4  H   UNL     1       7.514   5.477  19.191  0.00  0.00    +0.000 HD
ENDROOT
BRANCH   2   5
ATOM      5  C   UNL     1       8.207   7.746  18.264  0.00  0.00    +0.000 C 
BRANCH   5   6
ATOM      6  C   UNL     1       7.940   9.141  17.712  0.00  0.00    +0.000 C 
BRANCH   6   7
ATOM      7  C   UNL     1       8.791  10.182  18.339  0.00  0.00    +0.000 A 
ATOM      8  N   UNL     1       9.557  10.076  19.407  0.00  0.00    +0.000 NA
ATOM      9  C   UNL     1      10.162  11.302  19.494  0.00  0.00    +0.000 A 
ATOM     10  C   UNL     1       9.729  12.129  18.479  0.00  0.00    +0.000 A 
ATOM     11  O   UNL     1       8.823  11.415  17.745  0.00  0.00    +0.000 OA
BRANCH  10  12
ATOM     12  C   UNL     1      10.019  13.491  18.054  0.00  0.00    +0.000 A 
ATOM     13  C   UNL     1       9.107  14.537  18.271  0.00  0.00    +0.000 A 
ATOM     14  C   UNL     1       9.413  15.846  17.873  0.00  0.00    +0.000 A 
ATOM     15  C   UNL     1      10.628  16.122  17.249  0.00  0.00    +0.000 A 
ATOM     16  C   UNL     1      11.535  15.093  17.018  0.00  0.00    +0.000 A 
ATOM     17  C   UNL     1      11.229  13.797  17.415  0.00  0.00    +0.000 A 
ATOM     18  F   UNL     1      12.133  12.837  17.173  0.00  0.00    +0.000 F 
ENDBRANCH  10  12
ENDBRANCH   6   7
ENDBRANCH   5   6
ENDBRANCH   2   5
BRANCH   3  19
ATOM     19  C   UNL     1       6.404   4.435  17.726  0.00  0.00    +0.000 C 
BRANCH  19  20
ATOM     20  C   UNL     1       5.010   4.485  18.293  0.00  0.00    +0.000 A 
ATOM     21  C   UNL     1       4.620   3.557  19.265  0.00  0.00    +0.000 A 
ATOM     22  C   UNL     1       3.343   3.646  19.789  0.00  0.00    +0.000 A 
ATOM     23  N   UNL     1       2.435   4.573  19.420  0.00  0.00    +0.000 NA
ATOM     24  C   UNL     1       2.820   5.461  18.478  0.00  0.00    +0.000 A 
ATOM     25  C   UNL     1       4.085   5.465  17.903  0.00  0.00    +0.000 A 
BRANCH  24  26
ATOM     26  O   UNL     1       1.924   6.435  18.066  0.00  0.00    +0.000 OA
BRANCH  26  27
ATOM     27  C   UNL     1       2.162   7.725  18.649  0.00  0.00    +0.000 C 
ATOM     28  C   UNL     1       1.633   7.792  20.083  0.00  0.00    +0.000 C 
ATOM     29  C   UNL     1       1.097   9.201  20.297  0.00  0.00    +0.000 C 
ATOM     30  C   UNL     1       1.068   9.881  18.936  0.00  0.00    +0.000 C 
ATOM     31  C   UNL     1       1.365   8.799  17.905  0.00  0.00    +0.000 C 
ENDBRANCH  26  27
ENDBRANCH  24  26
ENDBRANCH  19  20
ENDBRANCH   3  19
TORSDOF 8
ENDMDL
MODEL 7
REMARK VINA RESULT:      -8.5      5.019      7.835
REMARK  Name = 
REMARK  8 active torsions:
REMARK  status: ('A' for Active; 'I' for Inactive)
REMARK    1  A    between atoms: C_2  and  C_3
REMARK    2  A    between atoms: C_3  and  C_4
REMARK    3  A    between atoms: C_4  and  C_5
REMARK    4  A    between atoms: C_8  and  C_9
REMARK    5  A    between atoms: N_17  and  C_18
REMARK    6  A    between atoms: C_18  and  C_19
REMARK    7  A    between atoms: C_23  and  O_24
REMARK    8  A    between atoms: O_24  and  C_25
REMARK                            x       y       z     vdW  Elec       q    Type
REMARK                         _______ _______ _______ _____ _____    ______ ____
ROOT
ATOM      1  O   UNL     1       4.900   1.741  20.469  0.00  0.00    +0.000 OA
ATOM      2  C   UNL     1       4.265   2.545  19.791  0.00  0.00    +0.000 C 
ATOM      3  N   UNL     1       4.802   3.700  19.273  0.00  0.00    +0.000 N 
ATOM      4  H   UNL     1       4.205   4.349  18.783  0.00  0.00    +0.000 HD
ENDROOT
BRANCH   2   5
ATOM      5  C   UNL     1       2.800   2.332  19.451  0.00  0.00    +0.000 C 
BRANCH   5   6
ATOM      6  C   UNL     1       1.913   3.359  20.144  0.00  0.00    +0.000 C 
BRANCH   6   7
ATOM      7  C   UNL     1       2.028   4.713  19.547  0.00  0.00    +0.000 A 
ATOM      8  N   UNL     1       2.413   5.040  18.330  0.00  0.00    +0.000 NA
ATOM      9  C   UNL     1       2.264   6.402  18.298  0.00  0.00    +0.000 A 
ATOM     10  C   UNL     1       1.807   6.868  19.513  0.00  0.00    +0.000 A 
ATOM     11  O   UNL     1       1.677   5.780  20.331  0.00  0.00    +0.000 OA
BRANCH  10  12
ATOM     12  C   UNL     1       1.452   8.170  20.059  0.00  0.00    +0.000 A 
ATOM     13  C   UNL     1       1.250   8.357  21.437  0.00  0.00    +0.000 A 
ATOM     14  C   UNL     1       0.929   9.622  21.946  0.00  0.00    +0.000 A 
ATOM     15  C   UNL     1       0.800  10.712  21.087  0.00  0.00    +0.000 A 
ATOM     16  C   UNL     1       0.986  10.538  19.719  0.00  0.00    +0.000 A 
ATOM     17  C   UNL     1       1.306   9.281  19.217  0.00  0.00    +0.000 A 
ATOM     18  F   UNL     1       1.478   9.160  17.893  0.00  0.00    +0.000 F 
ENDBRANCH  10  12
ENDBRANCH   6   7
ENDBRANCH   5   6
ENDBRANCH   2   5
BRANCH   3  19
ATOM     19  C   UNL     1       6.165   4.113  19.536  0.00  0.00    +0.000 C 
BRANCH  19  20
ATOM     20  C   UNL     1       6.620   5.116  18.509  0.00  0.00    +0.000 A 
ATOM     21  C   UNL     1       7.513   6.129  18.873  0.00  0.00    +0.000 A 
ATOM     22  C   UNL     1       7.936   7.018  17.901  0.00  0.00    +0.000 A 
ATOM     23  N   UNL     1       7.539   6.979  16.613  0.00  0.00    +0.000 NA
ATOM     24  C   UNL     1       6.673   5.999  16.273  0.00  0.00    +0.000 A 
ATOM     25  C   UNL     1       6.202   5.050  17.171  0.00  0.00    +0.000 A 
BRANCH  24  26
ATOM     26  O   UNL     1       6.236   5.914  14.961  0.00  0.00    +0.000 OA
BRANCH  26  27
ATOM     27  C   UNL     1       6.699   4.745  14.270  0.00  0.00    +0.000 C 
ATOM     28  C   UNL     1       7.573   5.119  13.071  0.00  0.00    +0.000 C 
ATOM     29  C   UNL     1       7.288   4.103  11.973  0.00  0.00    +0.000 C 
ATOM     30  C   UNL     1       6.077   3.294  12.416  0.00  0.00    +0.000 C 
ATOM     31  C   UNL     1       5.521   3.990  13.652  0.00  0.00    +0.000 C 
ENDBRANCH  26  27
ENDBRANCH  24  26
ENDBRANCH  19  20
ENDBRANCH   3  19
TORSDOF 8
ENDMDL
MODEL 8
REMARK VINA RESULT:      -8.4      2.208      3.289
REMARK  Name = 
REMARK  8 active torsions:
REMARK  status: ('A' for Active; 'I' for Inactive)
REMARK    1  A    between atoms: C_2  and  C_3
REMARK    2  A    between atoms: C_3  and  C_4
REMARK    3  A    between atoms: C_4  and  C_5
REMARK    4  A    between atoms: C_8  and  C_9
REMARK    5  A    between atoms: N_17  and  C_18
REMARK    6  A    between atoms: C_18  and  C_19
REMARK    7  A    between atoms: C_23  and  O_24
REMARK    8  A    between atoms: O_24  and  C_25
REMARK                            x       y       z     vdW  Elec       q    Type
REMARK                         _______ _______ _______ _____ _____    ______ ____
ROOT
ATOM      1  O   UNL     1       7.015   7.687  17.130  0.00  0.00    +0.000 OA
ATOM      2  C   UNL     1       7.898   7.554  17.974  0.00  0.00    +0.000 C 
ATOM      3  N   UNL     1       8.631   8.600  18.484  0.00  0.00    +0.000 N 
ATOM      4  H   UNL     1       9.388   8.411  19.123  0.00  0.00    +0.000 HD
ENDROOT
BRANCH   2   5
ATOM      5  C   UNL     1       8.269   6.197  18.545  0.00  0.00    +0.000 C 
BRANCH   5   6
ATOM      6  C   UNL     1       7.180   5.668  19.473  0.00  0.00    +0.000 C 
BRANCH   6   7
ATOM      7  C   UNL     1       6.089   4.976  18.743  0.00  0.00    +0.000 A 
ATOM      8  N   UNL     1       6.113   4.470  17.526  0.00  0.00    +0.000 NA
ATOM      9  C   UNL     1       4.876   3.896  17.391  0.00  0.00    +0.000 A 
ATOM     10  C   UNL     1       4.125   4.087  18.532  0.00  0.00    +0.000 A 
ATOM     11  O   UNL     1       4.899   4.807  19.399  0.00  0.00    +0.000 OA
BRANCH  10  12
ATOM     12  C   UNL     1       2.793   3.703  18.974  0.00  0.00    +0.000 A 
ATOM     13  C   UNL     1       2.161   4.355  20.047  0.00  0.00    +0.000 A 
ATOM     14  C   UNL     1       0.869   3.985  20.446  0.00  0.00    +0.000 A 
ATOM     15  C   UNL     1       0.198   2.959  19.783  0.00  0.00    +0.000 A 
ATOM     16  C   UNL     1       0.817   2.298  18.727  0.00  0.00    +0.000 A 
ATOM     17  C   UNL     1       2.098   2.669  18.333  0.00  0.00    +0.000 A 
ATOM     18  F   UNL     1       2.655   2.005  17.310  0.00  0.00    +0.000 F 
ENDBRANCH  10  12
ENDBRANCH   6   7
ENDBRANCH   5   6
ENDBRANCH   2   5
BRANCH   3  19
ATOM     19  C   UNL     1       8.471   9.963  18.022  0.00  0.00    +0.000 C 
BRANCH  19  20
ATOM     20  C   UNL     1       9.346  10.896  18.816  0.00  0.00    +0.000 A 
ATOM     21  C   UNL     1      10.415  11.548  18.193  0.00  0.00    +0.000 A 
ATOM     22  C   UNL     1      11.184  12.421  18.941  0.00  0.00    +0.000 A 
ATOM     23  N   UNL     1      10.974  12.688  20.247  0.00  0.00    +0.000 NA
ATOM     24  C   UNL     1       9.942  12.051  20.840  0.00  0.00    +0.000 A 
ATOM     25  C   UNL     1       9.103  11.168  20.172  0.00  0.00    +0.000 A 
BRANCH  24  26
ATOM     26  O   UNL     1       9.684  12.292  22.180  0.00  0.00    +0.000 OA
BRANCH  26  27
ATOM     27  C   UNL     1       8.291  12.239  22.520  0.00  0.00    +0.000 C 
ATOM     28  C   UNL     1       7.702  13.644  22.669  0.00  0.00    +0.000 C 
ATOM     29  C   UNL     1       6.677  13.585  23.793  0.00  0.00    +0.000 C 
ATOM     30  C   UNL     1       6.839  12.234  24.475  0.00  0.00    +0.000 C 
ATOM     31  C   UNL     1       8.104  11.608  23.902  0.00  0.00    +0.000 C 
ENDBRANCH  26  27
ENDBRANCH  24  26
ENDBRANCH  19  20
ENDBRANCH   3  19
TORSDOF 8
ENDMDL
MODEL 9
REMARK VINA RESULT:      -8.2      6.360      8.845
REMARK  Name = 
REMARK  8 active torsions:
REMARK  status: ('A' for Active; 'I' for Inactive)
REMARK    1  A    between atoms: C_2  and  C_3
REMARK    2  A    between atoms: C_3  and  C_4
REMARK    3  A    between atoms: C_4  and  C_5
REMARK    4  A    between atoms: C_8  and  C_9
REMARK    5  A    between atoms: N_17  and  C_18
REMARK    6  A    between atoms: C_18  and  C_19
REMARK    7  A    between atoms: C_23  and  O_24
REMARK    8  A    between atoms: O_24  and  C_25
REMARK                            x       y       z     vdW  Elec       q    Type
REMARK                         _______ _______ _______ _____ _____    ______ ____
ROOT
ATOM      1  O   UNL     1       1.739   2.786  19.203  0.00  0.00    +0.000 OA
ATOM      2  C   UNL     1       1.876   4.006  19.238  0.00  0.00    +0.000 C 
ATOM      3  N   UNL     1       2.608   4.719  18.318  0.00  0.00    +0.000 N 
ATOM      4  H   UNL     1       2.735   5.712  18.446  0.00  0.00    +0.000 HD
ENDROOT
BRANCH   2   5
ATOM      5  C   UNL     1       1.233   4.858  20.319  0.00  0.00    +0.000 C 
BRANCH   5   6
ATOM      6  C   UNL     1       2.184   5.944  20.810  0.00  0.00    +0.000 C 
BRANCH   6   7
ATOM      7  C   UNL     1       1.795   7.300  20.350  0.00  0.00    +0.000 A 
ATOM      8  N   UNL     1       2.106   7.900  19.219  0.00  0.00    +0.000 NA
ATOM      9  C   UNL     1       1.431   9.091  19.288  0.00  0.00    +0.000 A 
ATOM     10  C   UNL     1       0.740   9.188  20.477  0.00  0.00    +0.000 A 
ATOM     11  O   UNL     1       0.993   8.041  21.177  0.00  0.00    +0.000 OA
BRANCH  10  12
ATOM     12  C   UNL     1      -0.142  10.172  21.088  0.00  0.00    +0.000 A 
ATOM     13  C   UNL     1      -0.338  10.216  22.479  0.00  0.00    +0.000 A 
ATOM     14  C   UNL     1      -1.175  11.184  23.051  0.00  0.00    +0.000 A 
ATOM     15  C   UNL     1      -1.829  12.112  22.242  0.00  0.00    +0.000 A 
ATOM     16  C   UNL     1      -1.653  12.071  20.863  0.00  0.00    +0.000 A 
ATOM     17  C   UNL     1      -0.821  11.110  20.299  0.00  0.00    +0.000 A 
ATOM     18  F   UNL     1      -0.679  11.108  18.966  0.00  0.00    +0.000 F 
ENDBRANCH  10  12
ENDBRANCH   6   7
ENDBRANCH   5   6
ENDBRANCH   2   5
BRANCH   3  19
ATOM     19  C   UNL     1       3.347   4.084  17.247  0.00  0.00    +0.000 C 
BRANCH  19  20
ATOM     20  C   UNL     1       4.806   4.450  17.322  0.00  0.00    +0.000 A 
ATOM     21  C   UNL     1       5.432   4.561  18.568  0.00  0.00    +0.000 A 
ATOM     22  C   UNL     1       6.781   4.870  18.605  0.00  0.00    +0.000 A 
ATOM     23  N   UNL     1       7.540   5.078  17.510  0.00  0.00    +0.000 NA
ATOM     24  C   UNL     1       6.925   4.972  16.312  0.00  0.00    +0.000 A 
ATOM     25  C   UNL     1       5.581   4.651  16.170  0.00  0.00    +0.000 A 
BRANCH  24  26
ATOM     26  O   UNL     1       7.662   5.175  15.157  0.00  0.00    +0.000 OA
BRANCH  26  27
ATOM     27  C   UNL     1       6.896   5.049  13.950  0.00  0.00    +0.000 C 
ATOM     28  C   UNL     1       6.345   3.631  13.788  0.00  0.00    +0.000 C 
ATOM     29  C   UNL     1       6.373   3.306  12.301  0.00  0.00    +0.000 C 
ATOM     30  C   UNL     1       7.168   4.409  11.617  0.00  0.00    +0.000 C 
ATOM     31  C   UNL     1       7.795   5.243  12.727  0.00  0.00    +0.000 C 
ENDBRANCH  26  27
ENDBRANCH  24  26
ENDBRANCH  19  20
ENDBRANCH   3  19
TORSDOF 8
ENDMDL
