MODEL 1
REMARK VINA RESULT:      -8.8      0.000      0.000
REMARK  Name = 
REMARK  11 active torsions:
REMARK  status: ('A' for Active; 'I' for Inactive)
REMARK    1  A    between atoms: C_1  and  O_2
REMARK    2  A    between atoms: O_2  and  C_3
REMARK    3  A    between atoms: C_3  and  C_4
REMARK    4  A    between atoms: C_4  and  C_5
REMARK    5  A    between atoms: C_4  and  C_12
REMARK    6  A    between atoms: C_5  and  C_6
REMARK    7  A    between atoms: N_10  and  C_11
REMARK    8  A    between atoms: C_16  and  N_17
REMARK    9  A    between atoms: C_18  and  C_20
REMARK   10  A    between atoms: C_22  and  C_23
REMARK   11  A    between atoms: C_25  and  C_26
REMARK                            x       y       z     vdW  Elec       q    Type
REMARK                         _______ _______ _______ _____ _____    ______ ____
ROOT
ATOM      1  C   UNL     1       4.479   4.824  17.092  0.00  0.00    +0.000 A 
ATOM      2  C   UNL     1       3.773   3.616  17.103  0.00  0.00    +0.000 A 
ATOM      3  C   UNL     1       2.504   3.561  17.660  0.00  0.00    +0.000 A 
ATOM      4  C   UNL     1       1.942   4.694  18.239  0.00  0.00    +0.000 A 
ATOM      5  C   UNL     1       2.630   5.908  18.278  0.00  0.00    +0.000 A 
ATOM      6  C   UNL     1       3.878   5.970  17.660  0.00  0.00    +0.000 A 
ENDROOT
BRANCH   5   7
ATOM      7  N   UNL     1       2.140   7.049  18.955  0.00  0.00    +0.000 N 
ATOM      8  C   UNL     1       1.997   8.296  18.352  0.00  0.00    +0.000 C 
ATOM      9  O   UNL     1       2.282   8.562  17.187  0.00  0.00    +0.000 OA
ATOM     10  H   UNL     1       1.674   6.888  19.840  0.00  0.00    +0.000 HD
BRANCH   8  11
ATOM     11  C   UNL     1       1.397   9.396  19.145  0.00  0.00    +0.000 A 
ATOM     12  C   UNL     1       0.900   9.211  20.433  0.00  0.00    +0.000 A 
ATOM     13  C   UNL     1       0.464  10.334  21.125  0.00  0.00    +0.000 A 
ATOM     14  C   UNL     1      -0.014  10.234  22.541  0.00  0.00    +0.000 C 
ATOM     15  N   UNL     1       0.486  11.579  20.592  0.00  0.00    +0.000 NA
ATOM     16  C   UNL     1       0.972  11.759  19.334  0.00  0.00    +0.000 A 
ATOM     17  C   UNL     1       1.435  10.680  18.589  0.00  0.00    +0.000 A 
BRANCH  16  18
ATOM     18  C   UNL     1       1.035  13.162  18.746  0.00  0.00    +0.000 C 
ATOM     19  F   UNL     1       1.242  14.142  19.672  0.00  0.00    +0.000 F 
ATOM     20  F   UNL     1       2.037  13.306  17.829  0.00  0.00    +0.000 F 
ATOM     21  F   UNL     1      -0.110  13.511  18.090  0.00  0.00    +0.000 F 
ENDBRANCH  16  18
ENDBRANCH   8  11
ENDBRANCH   5   7
BRANCH   1  22
ATOM     22  C   UNL     1       5.917   4.844  16.574  0.00  0.00    +0.000 C 
BRANCH  22  23
ATOM     23  C   UNL     1       6.914   4.510  17.699  0.00  0.00    +0.000 C 
BRANCH  23  25
ATOM     24  C   UNL     1       7.667   5.783  19.503  0.00  0.00    +0.000 C 
ATOM     25  O   UNL     1       7.691   5.640  18.081  0.00  0.00    +0.000 OA
ENDBRANCH  23  25
ENDBRANCH  22  23
BRANCH  22  26
ATOM     26  C   UNL     1       6.066   3.948  15.317  0.00  0.00    +0.000 C 
BRANCH  26  27
ATOM     27  C   UNL     1       6.880   4.569  14.226  0.00  0.00    +0.000 A 
ATOM     28  N   UNL     1       7.802   5.503  14.370  0.00  0.00    +0.000 NA
ATOM     29  N   UNL     1       8.310   5.804  13.132  0.00  0.00    +0.000 NA
ATOM     30  C   UNL     1       7.674   5.067  12.254  0.00  0.00    +0.000 A 
ATOM     31  N   UNL     1       6.789   4.256  12.897  0.00  0.00    +0.000 N 
ATOM     32  C   UNL     1       5.949   3.266  12.278  0.00  0.00    +0.000 C 
ENDBRANCH  26  27
ENDBRANCH  22  26
ENDBRANCH   1  22
TORSDOF 8
ENDMDL
MODEL 2
REMARK VINA RESULT:      -8.8      2.082      2.663
REMARK  Name = 
REMARK  11 active torsions:
REMARK  status: ('A' for Active; 'I' for Inactive)
REMARK    1  A    between atoms: C_1  and  O_2
REMARK    2  A    between atoms: O_2  and  C_3
REMARK    3  A    between atoms: C_3  and  C_4
REMARK    4  A    between atoms: C_4  and  C_5
REMARK    5  A    between atoms: C_4  and  C_12
REMARK    6  A    between atoms: C_5  and  C_6
REMARK    7  A    between atoms: N_10  and  C_11
REMARK    8  A    between atoms: C_16  and  N_17
REMARK    9  A    between atoms: C_18  and  C_20
REMARK   10  A    between atoms: C_22  and  C_23
REMARK   11  A    between atoms: C_25  and  C_26
REMARK                            x       y       z     vdW  Elec       q    Type
REMARK                         _______ _______ _______ _____ _____    ______ ____
ROOT
ATOM      1  C   UNL     1       4.529   5.660  16.890  0.00  0.00    +0.000 A 
ATOM      2  C   UNL     1       4.043   4.354  17.023  0.00  0.00    +0.000 A 
ATOM      3  C   UNL     1       2.905   4.112  17.778  0.00  0.00    +0.000 A 
ATOM      4  C   UNL     1       2.263   5.158  18.434  0.00  0.00    +0.000 A 
ATOM      5  C   UNL     1       2.739   6.468  18.354  0.00  0.00    +0.000 A 
ATOM      6  C   UNL     1       3.844   6.712  17.541  0.00  0.00    +0.000 A 
ENDROOT
BRANCH   5   7
ATOM      7  N   UNL     1       2.180   7.536  19.094  0.00  0.00    +0.000 N 
ATOM      8  C   UNL     1       1.881   8.779  18.542  0.00  0.00    +0.000 C 
ATOM      9  O   UNL     1       2.069   9.103  17.372  0.00  0.00    +0.000 OA
ATOM     10  H   UNL     1       1.785   7.305  19.998  0.00  0.00    +0.000 HD
BRANCH   8  11
ATOM     11  C   UNL     1       1.224   9.791  19.403  0.00  0.00    +0.000 A 
ATOM     12  C   UNL     1       0.944  11.083  18.966  0.00  0.00    +0.000 A 
ATOM     13  C   UNL     1       0.225  11.912  19.819  0.00  0.00    +0.000 A 
ATOM     14  C   UNL     1      -0.183  13.290  19.397  0.00  0.00    +0.000 C 
ATOM     15  N   UNL     1      -0.189  11.520  21.048  0.00  0.00    +0.000 NA
ATOM     16  C   UNL     1       0.085  10.256  21.473  0.00  0.00    +0.000 A 
ATOM     17  C   UNL     1       0.790   9.371  20.667  0.00  0.00    +0.000 A 
BRANCH  16  18
ATOM     18  C   UNL     1      -0.413   9.798  22.837  0.00  0.00    +0.000 C 
ATOM     19  F   UNL     1       0.579   9.606  23.753  0.00  0.00    +0.000 F 
ATOM     20  F   UNL     1      -1.275  10.689  23.411  0.00  0.00    +0.000 F 
ATOM     21  F   UNL     1      -1.096   8.618  22.780  0.00  0.00    +0.000 F 
ENDBRANCH  16  18
ENDBRANCH   8  11
ENDBRANCH   5   7
BRANCH   1  22
ATOM     22  C   UNL     1       5.843   5.896  16.146  0.00  0.00    +0.000 C 
BRANCH  22  23
ATOM     23  C   UNL     1       6.895   6.534  17.072  0.00  0.00    +0.000 C 
BRANCH  23  25
ATOM     24  C   UNL     1       7.621   5.591  19.079  0.00  0.00    +0.000 C 
ATOM     25  O   UNL     1       7.756   5.562  17.656  0.00  0.00    +0.000 OA
ENDBRANCH  23  25
ENDBRANCH  22  23
BRANCH  22  26
ATOM     26  C   UNL     1       6.326   4.598  15.448  0.00  0.00    +0.000 C 
BRANCH  26  27
ATOM     27  C   UNL     1       7.000   4.833  14.134  0.00  0.00    +0.000 A 
ATOM     28  N   UNL     1       8.021   5.639  13.909  0.00  0.00    +0.000 NA
ATOM     29  N   UNL     1       8.338   5.575  12.577  0.00  0.00    +0.000 NA
ATOM     30  C   UNL     1       7.492   4.750  12.009  0.00  0.00    +0.000 A 
ATOM     31  N   UNL     1       6.654   4.238  12.951  0.00  0.00    +0.000 N 
ATOM     32  C   UNL     1       5.627   3.258  12.723  0.00  0.00    +0.000 C 
ENDBRANCH  26  27
ENDBRANCH  22  26
ENDBRANCH   1  22
TORSDOF 8
ENDMDL
MODEL 3
REMARK VINA RESULT:      -8.2      4.108      9.501
REMARK  Name = 
REMARK  11 active torsions:
REMARK  status: ('A' for Active; 'I' for Inactive)
REMARK    1  A    between atoms: C_1  and  O_2
REMARK    2  A    between atoms: O_2  and  C_3
REMARK    3  A    between atoms: C_3  and  C_4
REMARK    4  A    between atoms: C_4  and  C_5
REMARK    5  A    between atoms: C_4  and  C_12
REMARK    6  A    between atoms: C_5  and  C_6
REMARK    7  A    between atoms: N_10  and  C_11
REMARK    8  A    between atoms: C_16  and  N_17
REMARK    9  A    between atoms: C_18  and  C_20
REMARK   10  A    between atoms: C_22  and  C_23
REMARK   11  A    between atoms: C_25  and  C_26
REMARK                            x       y       z     vdW  Elec       q    Type
REMARK                         _______ _______ _______ _____ _____    ______ ____
ROOT
ATOM      1  C   UNL     1      -0.029  10.497  20.032  0.00  0.00    +0.000 A 
ATOM      2  C   UNL     1      -0.233  10.405  21.414  0.00  0.00    +0.000 A 
ATOM      3  C   UNL     1       0.436   9.438  22.150  0.00  0.00    +0.000 A 
ATOM      4  C   UNL     1       1.284   8.536  21.515  0.00  0.00    +0.000 A 
ATOM      5  C   UNL     1       1.485   8.574  20.135  0.00  0.00    +0.000 A 
ATOM      6  C   UNL     1       0.860   9.589  19.412  0.00  0.00    +0.000 A 
ENDROOT
BRANCH   5   7
ATOM      7  N   UNL     1       2.250   7.607  19.441  0.00  0.00    +0.000 N 
ATOM      8  C   UNL     1       2.240   6.251  19.756  0.00  0.00    +0.000 C 
ATOM      9  O   UNL     1       1.590   5.734  20.661  0.00  0.00    +0.000 OA
ATOM     10  H   UNL     1       2.640   7.890  18.550  0.00  0.00    +0.000 HD
BRANCH   8  11
ATOM     11  C   UNL     1       3.023   5.325  18.903  0.00  0.00    +0.000 A 
ATOM     12  C   UNL     1       2.924   3.940  19.006  0.00  0.00    +0.000 A 
ATOM     13  C   UNL     1       3.619   3.172  18.080  0.00  0.00    +0.000 A 
ATOM     14  C   UNL     1       3.507   1.678  18.073  0.00  0.00    +0.000 C 
ATOM     15  N   UNL     1       4.394   3.714  17.110  0.00  0.00    +0.000 NA
ATOM     16  C   UNL     1       4.489   5.068  17.010  0.00  0.00    +0.000 A 
ATOM     17  C   UNL     1       3.812   5.896  17.896  0.00  0.00    +0.000 A 
BRANCH  16  18
ATOM     18  C   UNL     1       5.327   5.681  15.896  0.00  0.00    +0.000 C 
ATOM     19  F   UNL     1       5.308   4.970  14.732  0.00  0.00    +0.000 F 
ATOM     20  F   UNL     1       4.920   6.942  15.563  0.00  0.00    +0.000 F 
ATOM     21  F   UNL     1       6.644   5.802  16.232  0.00  0.00    +0.000 F 
ENDBRANCH  16  18
ENDBRANCH   8  11
ENDBRANCH   5   7
BRANCH   1  22
ATOM     22  C   UNL     1      -0.854  11.494  19.220  0.00  0.00    +0.000 C 
BRANCH  22  23
ATOM     23  C   UNL     1      -0.008  12.719  18.826  0.00  0.00    +0.000 C 
BRANCH  23  25
ATOM     24  C   UNL     1       0.080  15.047  18.957  0.00  0.00    +0.000 C 
ATOM     25  O   UNL     1      -0.288  13.849  19.645  0.00  0.00    +0.000 OA
ENDBRANCH  23  25
ENDBRANCH  22  23
BRANCH  22  26
ATOM     26  C   UNL     1      -1.543  10.795  18.018  0.00  0.00    +0.000 C 
BRANCH  26  27
ATOM     27  C   UNL     1      -2.954  11.236  17.791  0.00  0.00    +0.000 A 
ATOM     28  N   UNL     1      -3.780  11.723  18.699  0.00  0.00    +0.000 NA
ATOM     29  N   UNL     1      -4.977  12.000  18.091  0.00  0.00    +0.000 NA
ATOM     30  C   UNL     1      -4.869  11.657  16.830  0.00  0.00    +0.000 A 
ATOM     31  N   UNL     1      -3.609  11.201  16.590  0.00  0.00    +0.000 N 
ATOM     32  C   UNL     1      -3.092  10.784  15.314  0.00  0.00    +0.000 C 
ENDBRANCH  26  27
ENDBRANCH  22  26
ENDBRANCH   1  22
TORSDOF 8
ENDMDL
MODEL 4
REMARK VINA RESULT:      -8.2      2.465      3.031
REMARK  Name = 
REMARK  11 active torsions:
REMARK  status: ('A' for Active; 'I' for Inactive)
REMARK    1  A    between atoms: C_1  and  O_2
REMARK    2  A    between atoms: O_2  and  C_3
REMARK    3  A    between atoms: C_3  and  C_4
REMARK    4  A    between atoms: C_4  and  C_5
REMARK    5  A    between atoms: C_4  and  C_12
REMARK    6  A    between atoms: C_5  and  C_6
REMARK    7  A    between atoms: N_10  and  C_11
REMARK    8  A    between atoms: C_16  and  N_17
REMARK    9  A    between atoms: C_18  and  C_20
REMARK   10  A    between atoms: C_22  and  C_23
REMARK   11  A    between atoms: C_25  and  C_26
REMARK                            x       y       z     vdW  Elec       q    Type
REMARK                         _______ _______ _______ _____ _____    ______ ____
ROOT
ATOM      1  C   UNL     1       4.771   6.342  17.547  0.00  0.00    +0.000 A 
ATOM      2  C   UNL     1       4.644   5.440  18.610  0.00  0.00    +0.000 A 
ATOM      3  C   UNL     1       3.524   5.488  19.428  0.00  0.00    +0.000 A 
ATOM      4  C   UNL     1       2.542   6.451  19.217  0.00  0.00    +0.000 A 
ATOM      5  C   UNL     1       2.652   7.389  18.190  0.00  0.00    +0.000 A 
ATOM      6  C   UNL     1       3.748   7.293  17.333  0.00  0.00    +0.000 A 
ENDROOT
BRANCH   5   7
ATOM      7  N   UNL     1       1.733   8.450  18.014  0.00  0.00    +0.000 N 
ATOM      8  C   UNL     1       1.186   9.174  19.070  0.00  0.00    +0.000 C 
ATOM      9  O   UNL     1       1.417   8.982  20.261  0.00  0.00    +0.000 OA
ATOM     10  H   UNL     1       1.650   8.830  17.078  0.00  0.00    +0.000 HD
BRANCH   8  11
ATOM     11  C   UNL     1       0.295  10.316  18.753  0.00  0.00    +0.000 A 
ATOM     12  C   UNL     1       0.596  11.628  19.111  0.00  0.00    +0.000 A 
ATOM     13  C   UNL     1      -0.255  12.631  18.662  0.00  0.00    +0.000 A 
ATOM     14  C   UNL     1       0.036  14.074  18.939  0.00  0.00    +0.000 C 
ATOM     15  N   UNL     1      -1.360  12.379  17.920  0.00  0.00    +0.000 NA
ATOM     16  C   UNL     1      -1.652  11.097  17.570  0.00  0.00    +0.000 A 
ATOM     17  C   UNL     1      -0.837  10.046  17.974  0.00  0.00    +0.000 A 
BRANCH  16  18
ATOM     18  C   UNL     1      -2.870  10.814  16.701  0.00  0.00    +0.000 C 
ATOM     19  F   UNL     1      -3.209   9.495  16.635  0.00  0.00    +0.000 F 
ATOM     20  F   UNL     1      -3.992  11.460  17.138  0.00  0.00    +0.000 F 
ATOM     21  F   UNL     1      -2.700  11.216  15.408  0.00  0.00    +0.000 F 
ENDBRANCH  16  18
ENDBRANCH   8  11
ENDBRANCH   5   7
BRANCH   1  22
ATOM     22  C   UNL     1       6.059   6.348  16.723  0.00  0.00    +0.000 C 
BRANCH  22  23
ATOM     23  C   UNL     1       7.243   6.876  17.553  0.00  0.00    +0.000 C 
BRANCH  23  25
ATOM     24  C   UNL     1       8.291   8.881  18.121  0.00  0.00    +0.000 C 
ATOM     25  O   UNL     1       7.744   8.109  17.049  0.00  0.00    +0.000 OA
ENDBRANCH  23  25
ENDBRANCH  22  23
BRANCH  22  26
ATOM     26  C   UNL     1       6.311   4.960  16.079  0.00  0.00    +0.000 C 
BRANCH  26  27
ATOM     27  C   UNL     1       6.971   5.026  14.738  0.00  0.00    +0.000 A 
ATOM     28  N   UNL     1       8.079   5.680  14.441  0.00  0.00    +0.000 NA
ATOM     29  N   UNL     1       8.346   5.494  13.109  0.00  0.00    +0.000 NA
ATOM     30  C   UNL     1       7.387   4.750  12.613  0.00  0.00    +0.000 A 
ATOM     31  N   UNL     1       6.519   4.408  13.604  0.00  0.00    +0.000 N 
ATOM     32  C   UNL     1       5.370   3.555  13.462  0.00  0.00    +0.000 C 
ENDBRANCH  26  27
ENDBRANCH  22  26
ENDBRANCH   1  22
TORSDOF 8
ENDMDL
MODEL 5
REMARK VINA RESULT:      -8.1      2.115      2.753
REMARK  Name = 
REMARK  11 active torsions:
REMARK  status: ('A' for Active; 'I' for Inactive)
REMARK    1  A    between atoms: C_1  and  O_2
REMARK    2  A    between atoms: O_2  and  C_3
REMARK    3  A    between atoms: C_3  and  C_4
REMARK    4  A    between atoms: C_4  and  C_5
REMARK    5  A    between atoms: C_4  and  C_12
REMARK    6  A    between atoms: C_5  and  C_6
REMARK    7  A    between atoms: N_10  and  C_11
REMARK    8  A    between atoms: C_16  and  N_17
REMARK    9  A    between atoms: C_18  and  C_20
REMARK   10  A    between atoms: C_22  and  C_23
REMARK   11  A    between atoms: C_25  and  C_26
REMARK                            x       y       z     vdW  Elec       q    Type
REMARK                         _______ _______ _______ _____ _____    ______ ____
ROOT
ATOM      1  C   UNL     1       4.534   6.062  17.315  0.00  0.00    +0.000 A 
ATOM      2  C   UNL     1       4.286   4.888  18.035  0.00  0.00    +0.000 A 
ATOM      3  C   UNL     1       3.207   4.824  18.905  0.00  0.00    +0.000 A 
ATOM      4  C   UNL     1       2.390   5.935  19.092  0.00  0.00    +0.000 A 
ATOM      5  C   UNL     1       2.628   7.134  18.419  0.00  0.00    +0.000 A 
ATOM      6  C   UNL     1       3.674   7.169  17.498  0.00  0.00    +0.000 A 
ENDROOT
BRANCH   5   7
ATOM      7  N   UNL     1       1.889   8.315  18.666  0.00  0.00    +0.000 N 
ATOM      8  C   UNL     1       1.397   8.664  19.921  0.00  0.00    +0.000 C 
ATOM      9  O   UNL     1       1.527   8.001  20.947  0.00  0.00    +0.000 OA
ATOM     10  H   UNL     1       1.918   9.028  17.947  0.00  0.00    +0.000 HD
BRANCH   8  11
ATOM     11  C   UNL     1       0.706   9.967  20.067  0.00  0.00    +0.000 A 
ATOM     12  C   UNL     1       0.617  10.893  19.030  0.00  0.00    +0.000 A 
ATOM     13  C   UNL     1      -0.151  12.031  19.245  0.00  0.00    +0.000 A 
ATOM     14  C   UNL     1      -0.360  13.039  18.157  0.00  0.00    +0.000 C 
ATOM     15  N   UNL     1      -0.787  12.278  20.415  0.00  0.00    +0.000 NA
ATOM     16  C   UNL     1      -0.700  11.372  21.427  0.00  0.00    +0.000 A 
ATOM     17  C   UNL     1       0.042  10.206  21.277  0.00  0.00    +0.000 A 
BRANCH  16  18
ATOM     18  C   UNL     1      -1.447  11.627  22.729  0.00  0.00    +0.000 C 
ATOM     19  F   UNL     1      -0.957  12.674  23.453  0.00  0.00    +0.000 F 
ATOM     20  F   UNL     1      -2.770  11.903  22.534  0.00  0.00    +0.000 F 
ATOM     21  F   UNL     1      -1.420  10.552  23.571  0.00  0.00    +0.000 F 
ENDBRANCH  16  18
ENDBRANCH   8  11
ENDBRANCH   5   7
BRANCH   1  22
ATOM     22  C   UNL     1       5.787   6.154  16.444  0.00  0.00    +0.000 C 
BRANCH  22  23
ATOM     23  C   UNL     1       6.991   6.660  17.260  0.00  0.00    +0.000 C 
BRANCH  23  25
ATOM     24  C   UNL     1       7.788   5.718  19.240  0.00  0.00    +0.000 C 
ATOM     25  O   UNL     1       7.749   5.591  17.817  0.00  0.00    +0.000 OA
ENDBRANCH  23  25
ENDBRANCH  22  23
BRANCH  22  26
ATOM     26  C   UNL     1       6.047   4.816  15.705  0.00  0.00    +0.000 C 
BRANCH  26  27
ATOM     27  C   UNL     1       6.859   4.962  14.457  0.00  0.00    +0.000 A 
ATOM     28  N   UNL     1       7.961   5.676  14.318  0.00  0.00    +0.000 NA
ATOM     29  N   UNL     1       8.396   5.554  13.023  0.00  0.00    +0.000 NA
ATOM     30  C   UNL     1       7.540   4.787  12.391  0.00  0.00    +0.000 A 
ATOM     31  N   UNL     1       6.577   4.369  13.257  0.00  0.00    +0.000 N 
ATOM     32  C   UNL     1       5.498   3.470  12.948  0.00  0.00    +0.000 C 
ENDBRANCH  26  27
ENDBRANCH  22  26
ENDBRANCH   1  22
TORSDOF 8
ENDMDL
MODEL 6
REMARK VINA RESULT:      -8.0      1.588      2.295
REMARK  Name = 
REMARK  11 active torsions:
REMARK  status: ('A' for Active; 'I' for Inactive)
REMARK    1  A    between atoms: C_1  and  O_2
REMARK    2  A    between atoms: O_2  and  C_3
REMARK    3  A    between atoms: C_3  and  C_4
REMARK    4  A    between atoms: C_4  and  C_5
REMARK    5  A    between atoms: C_4  and  C_12
REMARK    6  A    between atoms: C_5  and  C_6
REMARK    7  A    between atoms: N_10  and  C_11
REMARK    8  A    between atoms: C_16  and  N_17
REMARK    9  A    between atoms: C_18  and  C_20
REMARK   10  A    between atoms: C_22  and  C_23
REMARK   11  A    between atoms: C_25  and  C_26
REMARK                            x       y       z     vdW  Elec       q    Type
REMARK                         _______ _______ _______ _____ _____    ______ ____
ROOT
ATOM      1  C   UNL     1       4.551   5.281  17.135  0.00  0.00    +0.000 A 
ATOM      2  C   UNL     1       3.637   4.244  17.352  0.00  0.00    +0.000 A 
ATOM      3  C   UNL     1       2.397   4.520  17.911  0.00  0.00    +0.000 A 
ATOM      4  C   UNL     1       2.072   5.819  18.287  0.00  0.00    +0.000 A 
ATOM      5  C   UNL     1       2.971   6.873  18.118  0.00  0.00    +0.000 A 
ATOM      6  C   UNL     1       4.189   6.598  17.498  0.00  0.00    +0.000 A 
ENDROOT
BRANCH   5   7
ATOM      7  N   UNL     1       2.720   8.183  18.590  0.00  0.00    +0.000 N 
ATOM      8  C   UNL     1       1.688   8.986  18.112  0.00  0.00    +0.000 C 
ATOM      9  O   UNL     1       0.889   8.672  17.233  0.00  0.00    +0.000 OA
ATOM     10  H   UNL     1       3.173   8.449  19.457  0.00  0.00    +0.000 HD
BRANCH   8  11
ATOM     11  C   UNL     1       1.478  10.311  18.743  0.00  0.00    +0.000 A 
ATOM     12  C   UNL     1       2.079  11.474  18.269  0.00  0.00    +0.000 A 
ATOM     13  C   UNL     1       1.722  12.676  18.868  0.00  0.00    +0.000 A 
ATOM     14  C   UNL     1       2.264  13.980  18.370  0.00  0.00    +0.000 C 
ATOM     15  N   UNL     1       0.841  12.752  19.894  0.00  0.00    +0.000 NA
ATOM     16  C   UNL     1       0.253  11.614  20.356  0.00  0.00    +0.000 A 
ATOM     17  C   UNL     1       0.556  10.379  19.795  0.00  0.00    +0.000 A 
BRANCH  16  18
ATOM     18  C   UNL     1      -0.768  11.700  21.482  0.00  0.00    +0.000 C 
ATOM     19  F   UNL     1      -2.011  12.088  21.074  0.00  0.00    +0.000 F 
ATOM     20  F   UNL     1      -0.948  10.507  22.123  0.00  0.00    +0.000 F 
ATOM     21  F   UNL     1      -0.407  12.585  22.456  0.00  0.00    +0.000 F 
ENDBRANCH  16  18
ENDBRANCH   8  11
ENDBRANCH   5   7
BRANCH   1  22
ATOM     22  C   UNL     1       5.952   4.946  16.620  0.00  0.00    +0.000 C 
BRANCH  22  23
ATOM     23  C   UNL     1       6.806   4.300  17.726  0.00  0.00    +0.000 C 
BRANCH  23  25
ATOM     24  C   UNL     1       7.684   5.968  19.101  0.00  0.00    +0.000 C 
ATOM     25  O   UNL     1       6.667   4.972  18.973  0.00  0.00    +0.000 OA
ENDBRANCH  23  25
ENDBRANCH  22  23
BRANCH  22  26
ATOM     26  C   UNL     1       5.878   4.112  15.315  0.00  0.00    +0.000 C 
BRANCH  26  27
ATOM     27  C   UNL     1       6.767   4.616  14.224  0.00  0.00    +0.000 A 
ATOM     28  N   UNL     1       7.730   5.512  14.348  0.00  0.00    +0.000 NA
ATOM     29  N   UNL     1       8.304   5.704  13.117  0.00  0.00    +0.000 NA
ATOM     30  C   UNL     1       7.668   4.940  12.262  0.00  0.00    +0.000 A 
ATOM     31  N   UNL     1       6.717   4.219  12.915  0.00  0.00    +0.000 N 
ATOM     32  C   UNL     1       5.854   3.231  12.325  0.00  0.00    +0.000 C 
ENDBRANCH  26  27
ENDBRANCH  22  26
ENDBRANCH   1  22
TORSDOF 8
ENDMDL
MODEL 7
REMARK VINA RESULT:      -8.0      2.043      2.387
REMARK  Name = 
REMARK  11 active torsions:
REMARK  status: ('A' for Active; 'I' for Inactive)
REMARK    1  A    between atoms: C_1  and  O_2
REMARK    2  A    between atoms: O_2  and  C_3
REMARK    3  A    between atoms: C_3  and  C_4
REMARK    4  A    between atoms: C_4  and  C_5
REMARK    5  A    between atoms: C_4  and  C_12
REMARK    6  A    between atoms: C_5  and  C_6
REMARK    7  A    between atoms: N_10  and  C_11
REMARK    8  A    between atoms: C_16  and  N_17
REMARK    9  A    between atoms: C_18  and  C_20
REMARK   10  A    between atoms: C_22  and  C_23
REMARK   11  A    between atoms: C_25  and  C_26
REMARK                            x       y       z     vdW  Elec       q    Type
REMARK                         _______ _______ _______ _____ _____    ______ ____
ROOT
ATOM      1  C   UNL     1       4.708   5.182  18.046  0.00  0.00    +0.000 A 
ATOM      2  C   UNL     1       4.432   4.097  18.884  0.00  0.00    +0.000 A 
ATOM      3  C   UNL     1       3.352   4.150  19.754  0.00  0.00    +0.000 A 
ATOM      4  C   UNL     1       2.561   5.292  19.820  0.00  0.00    +0.000 A 
ATOM      5  C   UNL     1       2.826   6.408  19.025  0.00  0.00    +0.000 A 
ATOM      6  C   UNL     1       3.874   6.322  18.109  0.00  0.00    +0.000 A 
ENDROOT
BRANCH   5   7
ATOM      7  N   UNL     1       2.115   7.625  19.144  0.00  0.00    +0.000 N 
ATOM      8  C   UNL     1       2.075   8.591  18.142  0.00  0.00    +0.000 C 
ATOM      9  O   UNL     1       2.647   8.518  17.057  0.00  0.00    +0.000 OA
ATOM     10  H   UNL     1       1.438   7.684  19.895  0.00  0.00    +0.000 HD
BRANCH   8  11
ATOM     11  C   UNL     1       1.228   9.790  18.355  0.00  0.00    +0.000 A 
ATOM     12  C   UNL     1       1.745  11.009  18.788  0.00  0.00    +0.000 A 
ATOM     13  C   UNL     1       0.878  12.094  18.844  0.00  0.00    +0.000 A 
ATOM     14  C   UNL     1       1.369  13.456  19.226  0.00  0.00    +0.000 C 
ATOM     15  N   UNL     1      -0.433  12.004  18.519  0.00  0.00    +0.000 NA
ATOM     16  C   UNL     1      -0.936  10.812  18.095  0.00  0.00    +0.000 A 
ATOM     17  C   UNL     1      -0.124   9.689  18.004  0.00  0.00    +0.000 A 
BRANCH  16  18
ATOM     18  C   UNL     1      -2.401  10.717  17.690  0.00  0.00    +0.000 C 
ATOM     19  F   UNL     1      -3.195  11.673  18.252  0.00  0.00    +0.000 F 
ATOM     20  F   UNL     1      -2.585  10.832  16.342  0.00  0.00    +0.000 F 
ATOM     21  F   UNL     1      -2.966   9.522  18.033  0.00  0.00    +0.000 F 
ENDBRANCH  16  18
ENDBRANCH   8  11
ENDBRANCH   5   7
BRANCH   1  22
ATOM     22  C   UNL     1       5.963   5.153  17.173  0.00  0.00    +0.000 C 
BRANCH  22  23
ATOM     23  C   UNL     1       7.152   4.543  17.937  0.00  0.00    +0.000 C 
BRANCH  23  25
ATOM     24  C   UNL     1       7.811   6.745  18.339  0.00  0.00    +0.000 C 
ATOM     25  O   UNL     1       7.684   5.439  18.906  0.00  0.00    +0.000 OA
ENDBRANCH  23  25
ENDBRANCH  22  23
BRANCH  22  26
ATOM     26  C   UNL     1       5.674   4.470  15.811  0.00  0.00    +0.000 C 
BRANCH  26  27
ATOM     27  C   UNL     1       6.655   4.823  14.738  0.00  0.00    +0.000 A 
ATOM     28  N   UNL     1       7.705   5.615  14.865  0.00  0.00    +0.000 NA
ATOM     29  N   UNL     1       8.344   5.684  13.654  0.00  0.00    +0.000 NA
ATOM     30  C   UNL     1       7.661   4.954  12.805  0.00  0.00    +0.000 A 
ATOM     31  N   UNL     1       6.612   4.371  13.447  0.00  0.00    +0.000 N 
ATOM     32  C   UNL     1       5.669   3.456  12.864  0.00  0.00    +0.000 C 
ENDBRANCH  26  27
ENDBRANCH  22  26
ENDBRANCH   1  22
TORSDOF 8
ENDMDL
MODEL 8
REMARK VINA RESULT:      -8.0      1.986      2.554
REMARK  Name = 
REMARK  11 active torsions:
REMARK  status: ('A' for Active; 'I' for Inactive)
REMARK    1  A    between atoms: C_1  and  O_2
REMARK    2  A    between atoms: O_2  and  C_3
REMARK    3  A    between atoms: C_3  and  C_4
REMARK    4  A    between atoms: C_4  and  C_5
REMARK    5  A    between atoms: C_4  and  C_12
REMARK    6  A    between atoms: C_5  and  C_6
REMARK    7  A    between atoms: N_10  and  C_11
REMARK    8  A    between atoms: C_16  and  N_17
REMARK    9  A    between atoms: C_18  and  C_20
REMARK   10  A    between atoms: C_22  and  C_23
REMARK   11  A    between atoms: C_25  and  C_26
REMARK                            x       y       z     vdW  Elec       q    Type
REMARK                         _______ _______ _______ _____ _____    ______ ____
ROOT
ATOM      1  C   UNL     1       4.628   4.571  16.975  0.00  0.00    +0.000 A 
ATOM      2  C   UNL     1       4.304   3.250  17.305  0.00  0.00    +0.000 A 
ATOM      3  C   UNL     1       3.156   2.981  18.036  0.00  0.00    +0.000 A 
ATOM      4  C   UNL     1       2.342   4.022  18.471  0.00  0.00    +0.000 A 
ATOM      5  C   UNL     1       2.651   5.353  18.191  0.00  0.00    +0.000 A 
ATOM      6  C   UNL     1       3.771   5.611  17.402  0.00  0.00    +0.000 A 
ENDROOT
BRANCH   5   7
ATOM      7  N   UNL     1       1.911   6.441  18.711  0.00  0.00    +0.000 N 
ATOM      8  C   UNL     1       2.268   7.773  18.520  0.00  0.00    +0.000 C 
ATOM      9  O   UNL     1       3.255   8.165  17.902  0.00  0.00    +0.000 OA
ATOM     10  H   UNL     1       0.973   6.238  19.039  0.00  0.00    +0.000 HD
BRANCH   8  11
ATOM     11  C   UNL     1       1.366   8.825  19.047  0.00  0.00    +0.000 A 
ATOM     12  C   UNL     1       0.648   9.685  18.219  0.00  0.00    +0.000 A 
ATOM     13  C   UNL     1      -0.253  10.557  18.819  0.00  0.00    +0.000 A 
ATOM     14  C   UNL     1      -1.118  11.462  17.997  0.00  0.00    +0.000 C 
ATOM     15  N   UNL     1      -0.438  10.613  20.160  0.00  0.00    +0.000 NA
ATOM     16  C   UNL     1       0.263   9.772  20.967  0.00  0.00    +0.000 A 
ATOM     17  C   UNL     1       1.173   8.866  20.433  0.00  0.00    +0.000 A 
BRANCH  16  18
ATOM     18  C   UNL     1       0.028   9.804  22.471  0.00  0.00    +0.000 C 
ATOM     19  F   UNL     1      -0.962   8.966  22.895  0.00  0.00    +0.000 F 
ATOM     20  F   UNL     1       1.137   9.454  23.187  0.00  0.00    +0.000 F 
ATOM     21  F   UNL     1      -0.320  11.044  22.924  0.00  0.00    +0.000 F 
ENDBRANCH  16  18
ENDBRANCH   8  11
ENDBRANCH   5   7
BRANCH   1  22
ATOM     22  C   UNL     1       5.950   4.861  16.265  0.00  0.00    +0.000 C 
BRANCH  22  23
ATOM     23  C   UNL     1       7.116   4.912  17.268  0.00  0.00    +0.000 C 
BRANCH  23  25
ATOM     24  C   UNL     1       7.130   5.426  19.544  0.00  0.00    +0.000 C 
ATOM     25  O   UNL     1       6.729   4.466  18.563  0.00  0.00    +0.000 OA
ENDBRANCH  23  25
ENDBRANCH  22  23
BRANCH  22  26
ATOM     26  C   UNL     1       6.176   3.875  15.089  0.00  0.00    +0.000 C 
BRANCH  26  27
ATOM     27  C   UNL     1       6.882   4.481  13.918  0.00  0.00    +0.000 A 
ATOM     28  N   UNL     1       7.793   5.437  13.961  0.00  0.00    +0.000 NA
ATOM     29  N   UNL     1       8.189   5.714  12.677  0.00  0.00    +0.000 NA
ATOM     30  C   UNL     1       7.497   4.941  11.875  0.00  0.00    +0.000 A 
ATOM     31  N   UNL     1       6.687   4.131  12.610  0.00  0.00    +0.000 N 
ATOM     32  C   UNL     1       5.820   3.109  12.089  0.00  0.00    +0.000 C 
ENDBRANCH  26  27
ENDBRANCH  22  26
ENDBRANCH   1  22
TORSDOF 8
ENDMDL
MODEL 9
REMARK VINA RESULT:      -8.0      4.998      9.899
REMARK  Name = 
REMARK  11 active torsions:
REMARK  status: ('A' for Active; 'I' for Inactive)
REMARK    1  A    between atoms: C_1  and  O_2
REMARK    2  A    between atoms: O_2  and  C_3
REMARK    3  A    between atoms: C_3  and  C_4
REMARK    4  A    between atoms: C_4  and  C_5
REMARK    5  A    between atoms: C_4  and  C_12
REMARK    6  A    between atoms: C_5  and  C_6
REMARK    7  A    between atoms: N_10  and  C_11
REMARK    8  A    between atoms: C_16  and  N_17
REMARK    9  A    between atoms: C_18  and  C_20
REMARK   10  A    between atoms: C_22  and  C_23
REMARK   11  A    between atoms: C_25  and  C_26
REMARK                            x       y       z     vdW  Elec       q    Type
REMARK                         _______ _______ _______ _____ _____    ______ ____
ROOT
ATOM      1  C   UNL     1      -0.486  11.027  20.592  0.00  0.00    +0.000 A 
ATOM      2  C   UNL     1      -0.906  11.321  21.894  0.00  0.00    +0.000 A 
ATOM      3  C   UNL     1      -0.556  10.481  22.941  0.00  0.00    +0.000 A 
ATOM      4  C   UNL     1       0.183   9.327  22.697  0.00  0.00    +0.000 A 
ATOM      5  C   UNL     1       0.589   8.983  21.407  0.00  0.00    +0.000 A 
ATOM      6  C   UNL     1       0.289   9.866  20.371  0.00  0.00    +0.000 A 
ENDROOT
BRANCH   5   7
ATOM      7  N   UNL     1       1.243   7.765  21.105  0.00  0.00    +0.000 N 
ATOM      8  C   UNL     1       1.945   7.544  19.923  0.00  0.00    +0.000 C 
ATOM      9  O   UNL     1       2.074   8.353  19.008  0.00  0.00    +0.000 OA
ATOM     10  H   UNL     1       1.386   7.122  21.875  0.00  0.00    +0.000 HD
BRANCH   8  11
ATOM     11  C   UNL     1       2.655   6.253  19.758  0.00  0.00    +0.000 A 
ATOM     12  C   UNL     1       3.860   6.138  19.070  0.00  0.00    +0.000 A 
ATOM     13  C   UNL     1       4.493   4.901  19.076  0.00  0.00    +0.000 A 
ATOM     14  C   UNL     1       5.828   4.712  18.425  0.00  0.00    +0.000 C 
ATOM     15  N   UNL     1       3.976   3.815  19.699  0.00  0.00    +0.000 NA
ATOM     16  C   UNL     1       2.798   3.928  20.372  0.00  0.00    +0.000 A 
ATOM     17  C   UNL     1       2.118   5.139  20.417  0.00  0.00    +0.000 A 
BRANCH  16  18
ATOM     18  C   UNL     1       2.234   2.720  21.108  0.00  0.00    +0.000 C 
ATOM     19  F   UNL     1       1.537   1.862  20.309  0.00  0.00    +0.000 F 
ATOM     20  F   UNL     1       3.204   1.963  21.702  0.00  0.00    +0.000 F 
ATOM     21  F   UNL     1       1.378   3.067  22.112  0.00  0.00    +0.000 F 
ENDBRANCH  16  18
ENDBRANCH   8  11
ENDBRANCH   5   7
BRANCH   1  22
ATOM     22  C   UNL     1      -0.969  11.902  19.436  0.00  0.00    +0.000 C 
BRANCH  22  23
ATOM     23  C   UNL     1       0.157  12.823  18.931  0.00  0.00    +0.000 C 
BRANCH  23  25
ATOM     24  C   UNL     1      -0.644  14.906  19.615  0.00  0.00    +0.000 C 
ATOM     25  O   UNL     1      -0.338  14.082  18.487  0.00  0.00    +0.000 OA
ENDBRANCH  23  25
ENDBRANCH  22  23
BRANCH  22  26
ATOM     26  C   UNL     1      -1.620  11.039  18.323  0.00  0.00    +0.000 C 
BRANCH  26  27
ATOM     27  C   UNL     1      -3.038  11.409  18.023  0.00  0.00    +0.000 A 
ATOM     28  N   UNL     1      -3.923  11.885  18.880  0.00  0.00    +0.000 NA
ATOM     29  N   UNL     1      -5.104  12.091  18.214  0.00  0.00    +0.000 NA
ATOM     30  C   UNL     1      -4.925  11.717  16.970  0.00  0.00    +0.000 A 
ATOM     31  N   UNL     1      -3.638  11.311  16.797  0.00  0.00    +0.000 N 
ATOM     32  C   UNL     1      -3.048  10.882  15.557  0.00  0.00    +0.000 C 
ENDBRANCH  26  27
ENDBRANCH  22  26
ENDBRANCH   1  22
TORSDOF 8
ENDMDL
