MODEL 1
REMARK VINA RESULT:      -8.8      0.000      0.000
REMARK  Name = 
REMARK  7 active torsions:
REMARK  status: ('A' for Active; 'I' for Inactive)
REMARK    1  A    between atoms: C_2  and  C_4
REMARK    2  A    between atoms: C_8  and  N_9
REMARK    3  A    between atoms: C_14  and  C_15
REMARK    4  A    between atoms: C_15  and  N_16
REMARK    5  A    between atoms: N_16  and  C_17
REMARK    6  A    between atoms: C_18  and  C_19
REMARK    7  A    between atoms: C_21  and  C_22
REMARK                            x       y       z     vdW  Elec       q    Type
REMARK                         _______ _______ _______ _____ _____    ______ ____
ROOT
ATOM      1  N   UNL     1       4.193   4.632  18.938  0.00  0.00    +0.000 N 
ATOM      2  C   UNL     1       5.528   5.240  19.163  0.00  0.00    +0.000 C 
ATOM      3  C   UNL     1       6.144   5.151  17.797  0.00  0.00    +0.000 A 
ATOM      4  C   UNL     1       5.557   4.060  17.148  0.00  0.00    +0.000 A 
ATOM      5  C   UNL     1       5.740   3.793  15.801  0.00  0.00    +0.000 A 
ATOM      6  C   UNL     1       6.536   4.679  15.066  0.00  0.00    +0.000 A 
ATOM      7  C   UNL     1       7.134   5.785  15.721  0.00  0.00    +0.000 A 
ATOM      8  C   UNL     1       6.951   6.041  17.098  0.00  0.00    +0.000 A 
ATOM      9  C   UNL     1       4.405   3.614  17.973  0.00  0.00    +0.000 C 
ATOM     10  O   UNL     1       3.686   2.676  17.684  0.00  0.00    +0.000 OA
ENDROOT
BRANCH   1  15
ATOM     11  C   UNL     1       2.120   7.612  19.478  0.00  0.00    +0.000 A 
ATOM     12  C   UNL     1       2.583   8.349  18.379  0.00  0.00    +0.000 A 
ATOM     13  C   UNL     1       3.174   7.714  17.290  0.00  0.00    +0.000 A 
ATOM     14  C   UNL     1       3.417   6.350  17.341  0.00  0.00    +0.000 A 
ATOM     15  C   UNL     1       3.232   5.664  18.549  0.00  0.00    +0.000 A 
ATOM     16  C   UNL     1       2.452   6.253  19.556  0.00  0.00    +0.000 A 
BRANCH  11  18
ATOM     17  C   UNL     1       0.676   9.371  20.487  0.00  0.00    +0.000 C 
ATOM     18  C   UNL     1       1.403   8.250  20.585  0.00  0.00    +0.000 C 
ATOM     19  F   UNL     1       1.446   7.630  21.798  0.00  0.00    +0.000 F 
ENDBRANCH  11  18
ENDBRANCH   1  15
BRANCH   8  20
ATOM     20  C   UNL     1       7.521   7.304  17.691  0.00  0.00    +0.000 C 
ATOM     21  F   UNL     1       6.590   8.239  18.016  0.00  0.00    +0.000 F 
ATOM     22  F   UNL     1       8.217   7.064  18.835  0.00  0.00    +0.000 F 
ATOM     23  F   UNL     1       8.392   7.923  16.847  0.00  0.00    +0.000 F 
ENDBRANCH   8  20
BRANCH   6  24
ATOM     24  C   UNL     1       6.668   4.526  13.567  0.00  0.00    +0.000 C 
BRANCH  24  25
ATOM     25  N   UNL     1       6.300   3.185  13.173  0.00  0.00    +0.000 N 
ATOM     26  H   UNL     1       6.760   2.415  13.649  0.00  0.00    +0.000 HD
BRANCH  25  27
ATOM     27  C   UNL     1       5.483   2.851  12.132  0.00  0.00    +0.000 C 
ATOM     28  C   UNL     1       4.417   3.559  11.739  0.00  0.00    +0.000 C 
ATOM     29  C   UNL     1       3.528   3.177  10.604  0.00  0.00    +0.000 C 
ENDBRANCH  25  27
ENDBRANCH  24  25
ENDBRANCH   6  24
TORSDOF 6
ENDMDL
MODEL 2
REMARK VINA RESULT:      -8.0      0.592      1.106
REMARK  Name = 
REMARK  7 active torsions:
REMARK  status: ('A' for Active; 'I' for Inactive)
REMARK    1  A    between atoms: C_2  and  C_4
REMARK    2  A    between atoms: C_8  and  N_9
REMARK    3  A    between atoms: C_14  and  C_15
REMARK    4  A    between atoms: C_15  and  N_16
REMARK    5  A    between atoms: N_16  and  C_17
REMARK    6  A    between atoms: C_18  and  C_19
REMARK    7  A    between atoms: C_21  and  C_22
REMARK                            x       y       z     vdW  Elec       q    Type
REMARK                         _______ _______ _______ _____ _____    ______ ____
ROOT
ATOM      1  N   UNL     1       4.268   4.665  19.026  0.00  0.00    +0.000 N 
ATOM      2  C   UNL     1       5.591   5.304  19.234  0.00  0.00    +0.000 C 
ATOM      3  C   UNL     1       6.207   5.197  17.869  0.00  0.00    +0.000 A 
ATOM      4  C   UNL     1       5.640   4.081  17.245  0.00  0.00    +0.000 A 
ATOM      5  C   UNL     1       5.826   3.789  15.904  0.00  0.00    +0.000 A 
ATOM      6  C   UNL     1       6.604   4.675  15.148  0.00  0.00    +0.000 A 
ATOM      7  C   UNL     1       7.181   5.806  15.779  0.00  0.00    +0.000 A 
ATOM      8  C   UNL     1       6.995   6.088  17.149  0.00  0.00    +0.000 A 
ATOM      9  C   UNL     1       4.499   3.631  18.082  0.00  0.00    +0.000 C 
ATOM     10  O   UNL     1       3.798   2.673  17.815  0.00  0.00    +0.000 OA
ENDROOT
BRANCH   1  15
ATOM     11  C   UNL     1       2.119   7.599  19.513  0.00  0.00    +0.000 A 
ATOM     12  C   UNL     1       2.575   8.336  18.410  0.00  0.00    +0.000 A 
ATOM     13  C   UNL     1       3.191   7.703  17.333  0.00  0.00    +0.000 A 
ATOM     14  C   UNL     1       3.466   6.346  17.402  0.00  0.00    +0.000 A 
ATOM     15  C   UNL     1       3.286   5.668  18.616  0.00  0.00    +0.000 A 
ATOM     16  C   UNL     1       2.482   6.250  19.609  0.00  0.00    +0.000 A 
BRANCH  11  18
ATOM     17  C   UNL     1       0.955   9.504  20.616  0.00  0.00    +0.000 C 
ATOM     18  C   UNL     1       1.376   8.232  20.606  0.00  0.00    +0.000 C 
ATOM     19  F   UNL     1       1.054   7.452  21.676  0.00  0.00    +0.000 F 
ENDBRANCH  11  18
ENDBRANCH   1  15
BRANCH   8  20
ATOM     20  C   UNL     1       7.541   7.374  17.714  0.00  0.00    +0.000 C 
ATOM     21  F   UNL     1       8.385   8.037  16.880  0.00  0.00    +0.000 F 
ATOM     22  F   UNL     1       6.554   8.260  18.019  0.00  0.00    +0.000 F 
ATOM     23  F   UNL     1       8.236   7.178  18.868  0.00  0.00    +0.000 F 
ENDBRANCH   8  20
BRANCH   6  24
ATOM     24  C   UNL     1       6.736   4.492  13.653  0.00  0.00    +0.000 C 
BRANCH  24  25
ATOM     25  N   UNL     1       5.509   3.955  13.110  0.00  0.00    +0.000 N 
ATOM     26  H   UNL     1       4.636   4.335  13.464  0.00  0.00    +0.000 HD
BRANCH  25  27
ATOM     27  C   UNL     1       5.406   2.893  12.259  0.00  0.00    +0.000 C 
ATOM     28  C   UNL     1       6.440   2.180  11.797  0.00  0.00    +0.000 C 
ATOM     29  C   UNL     1       6.313   1.028  10.858  0.00  0.00    +0.000 C 
ENDBRANCH  25  27
ENDBRANCH  24  25
ENDBRANCH   6  24
TORSDOF 6
ENDMDL
MODEL 3
REMARK VINA RESULT:      -7.8      1.156      1.454
REMARK  Name = 
REMARK  7 active torsions:
REMARK  status: ('A' for Active; 'I' for Inactive)
REMARK    1  A    between atoms: C_2  and  C_4
REMARK    2  A    between atoms: C_8  and  N_9
REMARK    3  A    between atoms: C_14  and  C_15
REMARK    4  A    between atoms: C_15  and  N_16
REMARK    5  A    between atoms: N_16  and  C_17
REMARK    6  A    between atoms: C_18  and  C_19
REMARK    7  A    between atoms: C_21  and  C_22
REMARK                            x       y       z     vdW  Elec       q    Type
REMARK                         _______ _______ _______ _____ _____    ______ ____
ROOT
ATOM      1  N   UNL     1       3.646   4.754  19.484  0.00  0.00    +0.000 N 
ATOM      2  C   UNL     1       5.044   5.250  19.455  0.00  0.00    +0.000 C 
ATOM      3  C   UNL     1       5.425   5.024  18.020  0.00  0.00    +0.000 A 
ATOM      4  C   UNL     1       4.654   3.956  17.551  0.00  0.00    +0.000 A 
ATOM      5  C   UNL     1       4.597   3.595  16.215  0.00  0.00    +0.000 A 
ATOM      6  C   UNL     1       5.335   4.359  15.303  0.00  0.00    +0.000 A 
ATOM      7  C   UNL     1       6.118   5.443  15.777  0.00  0.00    +0.000 A 
ATOM      8  C   UNL     1       6.179   5.794  17.142  0.00  0.00    +0.000 A 
ATOM      9  C   UNL     1       3.617   3.666  18.573  0.00  0.00    +0.000 C 
ATOM     10  O   UNL     1       2.788   2.783  18.468  0.00  0.00    +0.000 OA
ENDROOT
BRANCH   1  15
ATOM     11  C   UNL     1       1.761   7.817  20.214  0.00  0.00    +0.000 A 
ATOM     12  C   UNL     1       2.207   8.564  19.114  0.00  0.00    +0.000 A 
ATOM     13  C   UNL     1       2.708   7.934  17.978  0.00  0.00    +0.000 A 
ATOM     14  C   UNL     1       2.882   6.559  17.978  0.00  0.00    +0.000 A 
ATOM     15  C   UNL     1       2.722   5.845  19.174  0.00  0.00    +0.000 A 
ATOM     16  C   UNL     1       2.024   6.442  20.236  0.00  0.00    +0.000 A 
BRANCH  11  18
ATOM     17  C   UNL     1      -0.186   8.610  21.548  0.00  0.00    +0.000 C 
ATOM     18  C   UNL     1       1.134   8.456  21.374  0.00  0.00    +0.000 C 
ATOM     19  F   UNL     1       1.957   8.890  22.370  0.00  0.00    +0.000 F 
ENDBRANCH  11  18
ENDBRANCH   1  15
BRANCH   8  20
ATOM     20  C   UNL     1       6.937   7.032  17.548  0.00  0.00    +0.000 C 
ATOM     21  F   UNL     1       7.622   6.911  18.716  0.00  0.00    +0.000 F 
ATOM     22  F   UNL     1       7.860   7.396  16.616  0.00  0.00    +0.000 F 
ATOM     23  F   UNL     1       6.120   8.110  17.705  0.00  0.00    +0.000 F 
ENDBRANCH   8  20
BRANCH   6  24
ATOM     24  C   UNL     1       5.212   4.107  13.817  0.00  0.00    +0.000 C 
BRANCH  24  25
ATOM     25  N   UNL     1       6.522   4.109  13.206  0.00  0.00    +0.000 N 
ATOM     26  H   UNL     1       7.150   4.869  13.449  0.00  0.00    +0.000 HD
BRANCH  25  27
ATOM     27  C   UNL     1       6.953   3.255  12.232  0.00  0.00    +0.000 C 
ATOM     28  C   UNL     1       6.261   2.204  11.775  0.00  0.00    +0.000 C 
ATOM     29  C   UNL     1       6.750   1.274  10.717  0.00  0.00    +0.000 C 
ENDBRANCH  25  27
ENDBRANCH  24  25
ENDBRANCH   6  24
TORSDOF 6
ENDMDL
MODEL 4
REMARK VINA RESULT:      -7.8      0.942      1.317
REMARK  Name = 
REMARK  7 active torsions:
REMARK  status: ('A' for Active; 'I' for Inactive)
REMARK    1  A    between atoms: C_2  and  C_4
REMARK    2  A    between atoms: C_8  and  N_9
REMARK    3  A    between atoms: C_14  and  C_15
REMARK    4  A    between atoms: C_15  and  N_16
REMARK    5  A    between atoms: N_16  and  C_17
REMARK    6  A    between atoms: C_18  and  C_19
REMARK    7  A    between atoms: C_21  and  C_22
REMARK                            x       y       z     vdW  Elec       q    Type
REMARK                         _______ _______ _______ _____ _____    ______ ____
ROOT
ATOM      1  N   UNL     1       3.105   4.179  18.640  0.00  0.00    +0.000 N 
ATOM      2  C   UNL     1       4.478   4.254  19.198  0.00  0.00    +0.000 C 
ATOM      3  C   UNL     1       5.319   4.263  17.954  0.00  0.00    +0.000 A 
ATOM      4  C   UNL     1       4.598   3.591  16.962  0.00  0.00    +0.000 A 
ATOM      5  C   UNL     1       4.980   3.574  15.630  0.00  0.00    +0.000 A 
ATOM      6  C   UNL     1       6.132   4.286  15.276  0.00  0.00    +0.000 A 
ATOM      7  C   UNL     1       6.865   4.968  16.280  0.00  0.00    +0.000 A 
ATOM      8  C   UNL     1       6.474   4.968  17.636  0.00  0.00    +0.000 A 
ATOM      9  C   UNL     1       3.220   3.380  17.473  0.00  0.00    +0.000 C 
ATOM     10  O   UNL     1       2.343   2.814  16.848  0.00  0.00    +0.000 OA
ENDROOT
BRANCH   1  15
ATOM     11  C   UNL     1       2.036   7.536  19.666  0.00  0.00    +0.000 A 
ATOM     12  C   UNL     1       2.848   8.258  18.779  0.00  0.00    +0.000 A 
ATOM     13  C   UNL     1       3.342   7.666  17.620  0.00  0.00    +0.000 A 
ATOM     14  C   UNL     1       3.130   6.315  17.397  0.00  0.00    +0.000 A 
ATOM     15  C   UNL     1       2.581   5.526  18.418  0.00  0.00    +0.000 A 
ATOM     16  C   UNL     1       1.905   6.155  19.476  0.00  0.00    +0.000 A 
BRANCH  11  18
ATOM     17  C   UNL     1       0.976   9.433  20.881  0.00  0.00    +0.000 C 
ATOM     18  C   UNL     1       1.421   8.170  20.835  0.00  0.00    +0.000 C 
ATOM     19  F   UNL     1       1.253   7.401  21.947  0.00  0.00    +0.000 F 
ENDBRANCH  11  18
ENDBRANCH   1  15
BRANCH   8  20
ATOM     20  C   UNL     1       7.239   5.816  18.620  0.00  0.00    +0.000 C 
ATOM     21  F   UNL     1       8.379   5.241  19.085  0.00  0.00    +0.000 F 
ATOM     22  F   UNL     1       7.621   7.007  18.082  0.00  0.00    +0.000 F 
ATOM     23  F   UNL     1       6.500   6.124  19.721  0.00  0.00    +0.000 F 
ENDBRANCH   8  20
BRANCH   6  24
ATOM     24  C   UNL     1       6.530   4.423  13.823  0.00  0.00    +0.000 C 
BRANCH  24  25
ATOM     25  N   UNL     1       6.437   3.141  13.162  0.00  0.00    +0.000 N 
ATOM     26  H   UNL     1       7.169   2.463  13.352  0.00  0.00    +0.000 HD
BRANCH  25  27
ATOM     27  C   UNL     1       5.525   2.797  12.206  0.00  0.00    +0.000 C 
ATOM     28  C   UNL     1       4.567   3.604  11.737  0.00  0.00    +0.000 C 
ATOM     29  C   UNL     1       3.571   3.210  10.698  0.00  0.00    +0.000 C 
ENDBRANCH  25  27
ENDBRANCH  24  25
ENDBRANCH   6  24
TORSDOF 6
ENDMDL
MODEL 5
REMARK VINA RESULT:      -7.4      2.579      5.952
REMARK  Name = 
REMARK  7 active torsions:
REMARK  status: ('A' for Active; 'I' for Inactive)
REMARK    1  A    between atoms: C_2  and  C_4
REMARK    2  A    between atoms: C_8  and  N_9
REMARK    3  A    between atoms: C_14  and  C_15
REMARK    4  A    between atoms: C_15  and  N_16
REMARK    5  A    between atoms: N_16  and  C_17
REMARK    6  A    between atoms: C_18  and  C_19
REMARK    7  A    between atoms: C_21  and  C_22
REMARK                            x       y       z     vdW  Elec       q    Type
REMARK                         _______ _______ _______ _____ _____    ______ ____
ROOT
ATOM      1  N   UNL     1       6.337   5.931  15.378  0.00  0.00    +0.000 N 
ATOM      2  C   UNL     1       5.090   6.629  15.778  0.00  0.00    +0.000 C 
ATOM      3  C   UNL     1       4.331   5.537  16.474  0.00  0.00    +0.000 A 
ATOM      4  C   UNL     1       4.752   4.323  15.922  0.00  0.00    +0.000 A 
ATOM      5  C   UNL     1       4.409   3.091  16.455  0.00  0.00    +0.000 A 
ATOM      6  C   UNL     1       3.621   3.080  17.612  0.00  0.00    +0.000 A 
ATOM      7  C   UNL     1       3.192   4.310  18.173  0.00  0.00    +0.000 A 
ATOM      8  C   UNL     1       3.537   5.560  17.615  0.00  0.00    +0.000 A 
ATOM      9  C   UNL     1       5.939   4.603  15.075  0.00  0.00    +0.000 C 
ATOM     10  O   UNL     1       6.540   3.752  14.447  0.00  0.00    +0.000 OA
ENDROOT
BRANCH   1  15
ATOM     11  C   UNL     1       8.101   7.645  18.101  0.00  0.00    +0.000 A 
ATOM     12  C   UNL     1       7.935   6.648  19.073  0.00  0.00    +0.000 A 
ATOM     13  C   UNL     1       7.681   5.329  18.708  0.00  0.00    +0.000 A 
ATOM     14  C   UNL     1       7.471   5.016  17.374  0.00  0.00    +0.000 A 
ATOM     15  C   UNL     1       7.339   6.050  16.437  0.00  0.00    +0.000 A 
ATOM     16  C   UNL     1       7.799   7.334  16.769  0.00  0.00    +0.000 A 
BRANCH  11  18
ATOM     17  C   UNL     1       8.054  10.119  17.825  0.00  0.00    +0.000 C 
ATOM     18  C   UNL     1       8.472   9.016  18.461  0.00  0.00    +0.000 C 
ATOM     19  F   UNL     1       9.273   9.181  19.551  0.00  0.00    +0.000 F 
ENDBRANCH  11  18
ENDBRANCH   1  15
BRANCH   8  20
ATOM     20  C   UNL     1       3.143   6.821  18.341  0.00  0.00    +0.000 C 
ATOM     21  F   UNL     1       4.013   7.853  18.182  0.00  0.00    +0.000 F 
ATOM     22  F   UNL     1       1.934   7.292  17.931  0.00  0.00    +0.000 F 
ATOM     23  F   UNL     1       3.033   6.630  19.685  0.00  0.00    +0.000 F 
ENDBRANCH   8  20
BRANCH   6  24
ATOM     24  C   UNL     1       3.324   1.779  18.323  0.00  0.00    +0.000 C 
BRANCH  24  25
ATOM     25  N   UNL     1       1.906   1.672  18.584  0.00  0.00    +0.000 N 
ATOM     26  H   UNL     1       1.298   1.480  17.794  0.00  0.00    +0.000 HD
BRANCH  25  27
ATOM     27  C   UNL     1       1.289   1.932  19.774  0.00  0.00    +0.000 C 
ATOM     28  C   UNL     1       1.884   2.478  20.841  0.00  0.00    +0.000 C 
ATOM     29  C   UNL     1       1.198   2.747  22.138  0.00  0.00    +0.000 C 
ENDBRANCH  25  27
ENDBRANCH  24  25
ENDBRANCH   6  24
TORSDOF 6
ENDMDL
MODEL 6
REMARK VINA RESULT:      -7.3      4.495      8.075
REMARK  Name = 
REMARK  7 active torsions:
REMARK  status: ('A' for Active; 'I' for Inactive)
REMARK    1  A    between atoms: C_2  and  C_4
REMARK    2  A    between atoms: C_8  and  N_9
REMARK    3  A    between atoms: C_14  and  C_15
REMARK    4  A    between atoms: C_15  and  N_16
REMARK    5  A    between atoms: N_16  and  C_17
REMARK    6  A    between atoms: C_18  and  C_19
REMARK    7  A    between atoms: C_21  and  C_22
REMARK                            x       y       z     vdW  Elec       q    Type
REMARK                         _______ _______ _______ _____ _____    ______ ____
ROOT
ATOM      1  N   UNL     1       2.551   7.900  19.295  0.00  0.00    +0.000 N 
ATOM      2  C   UNL     1       2.215   8.677  20.514  0.00  0.00    +0.000 C 
ATOM      3  C   UNL     1       0.961   9.388  20.094  0.00  0.00    +0.000 A 
ATOM      4  C   UNL     1       1.017   9.540  18.705  0.00  0.00    +0.000 A 
ATOM      5  C   UNL     1      -0.058   9.979  17.949  0.00  0.00    +0.000 A 
ATOM      6  C   UNL     1      -1.254  10.258  18.620  0.00  0.00    +0.000 A 
ATOM      7  C   UNL     1      -1.313  10.105  20.029  0.00  0.00    +0.000 A 
ATOM      8  C   UNL     1      -0.208   9.669  20.792  0.00  0.00    +0.000 A 
ATOM      9  C   UNL     1       2.151   8.721  18.209  0.00  0.00    +0.000 C 
ATOM     10  O   UNL     1       2.472   8.644  17.038  0.00  0.00    +0.000 OA
ENDROOT
BRANCH   1  15
ATOM     11  C   UNL     1       2.322   4.292  18.667  0.00  0.00    +0.000 A 
ATOM     12  C   UNL     1       2.073   3.899  19.990  0.00  0.00    +0.000 A 
ATOM     13  C   UNL     1       1.551   4.798  20.916  0.00  0.00    +0.000 A 
ATOM     14  C   UNL     1       1.386   6.128  20.562  0.00  0.00    +0.000 A 
ATOM     15  C   UNL     1       1.911   6.587  19.346  0.00  0.00    +0.000 A 
ATOM     16  C   UNL     1       2.237   5.654  18.349  0.00  0.00    +0.000 A 
BRANCH  11  18
ATOM     17  C   UNL     1       2.511   2.022  17.663  0.00  0.00    +0.000 C 
ATOM     18  C   UNL     1       2.772   3.336  17.652  0.00  0.00    +0.000 C 
ATOM     19  F   UNL     1       3.477   3.831  16.596  0.00  0.00    +0.000 F 
ENDBRANCH  11  18
ENDBRANCH   1  15
BRANCH   8  20
ATOM     20  C   UNL     1      -0.389   9.417  22.267  0.00  0.00    +0.000 C 
ATOM     21  F   UNL     1       0.758   9.495  22.992  0.00  0.00    +0.000 F 
ATOM     22  F   UNL     1      -1.247  10.305  22.837  0.00  0.00    +0.000 F 
ATOM     23  F   UNL     1      -0.906   8.183  22.519  0.00  0.00    +0.000 F 
ENDBRANCH   8  20
BRANCH   6  24
ATOM     24  C   UNL     1      -2.504  10.608  17.844  0.00  0.00    +0.000 C 
BRANCH  24  25
ATOM     25  N   UNL     1      -2.157  10.973  16.489  0.00  0.00    +0.000 N 
ATOM     26  H   UNL     1      -1.245  11.395  16.337  0.00  0.00    +0.000 HD
BRANCH  25  27
ATOM     27  C   UNL     1      -2.989  10.922  15.408  0.00  0.00    +0.000 C 
ATOM     28  C   UNL     1      -2.977   9.959  14.479  0.00  0.00    +0.000 C 
ATOM     29  C   UNL     1      -3.886   9.922  13.297  0.00  0.00    +0.000 C 
ENDBRANCH  25  27
ENDBRANCH  24  25
ENDBRANCH   6  24
TORSDOF 6
ENDMDL
MODEL 7
REMARK VINA RESULT:      -7.2      1.255      1.861
REMARK  Name = 
REMARK  7 active torsions:
REMARK  status: ('A' for Active; 'I' for Inactive)
REMARK    1  A    between atoms: C_2  and  C_4
REMARK    2  A    between atoms: C_8  and  N_9
REMARK    3  A    between atoms: C_14  and  C_15
REMARK    4  A    between atoms: C_15  and  N_16
REMARK    5  A    between atoms: N_16  and  C_17
REMARK    6  A    between atoms: C_18  and  C_19
REMARK    7  A    between atoms: C_21  and  C_22
REMARK                            x       y       z     vdW  Elec       q    Type
REMARK                         _______ _______ _______ _____ _____    ______ ____
ROOT
ATOM      1  N   UNL     1       3.644   4.732  19.564  0.00  0.00    +0.000 N 
ATOM      2  C   UNL     1       5.041   5.228  19.520  0.00  0.00    +0.000 C 
ATOM      3  C   UNL     1       5.431   4.935  18.100  0.00  0.00    +0.000 A 
ATOM      4  C   UNL     1       4.665   3.844  17.677  0.00  0.00    +0.000 A 
ATOM      5  C   UNL     1       4.617   3.419  16.360  0.00  0.00    +0.000 A 
ATOM      6  C   UNL     1       5.359   4.141  15.417  0.00  0.00    +0.000 A 
ATOM      7  C   UNL     1       6.137   5.247  15.843  0.00  0.00    +0.000 A 
ATOM      8  C   UNL     1       6.189   5.664  17.191  0.00  0.00    +0.000 A 
ATOM      9  C   UNL     1       3.623   3.602  18.707  0.00  0.00    +0.000 C 
ATOM     10  O   UNL     1       2.796   2.712  18.639  0.00  0.00    +0.000 OA
ENDROOT
BRANCH   1  15
ATOM     11  C   UNL     1       1.775   7.840  20.123  0.00  0.00    +0.000 A 
ATOM     12  C   UNL     1       2.212   8.516  18.975  0.00  0.00    +0.000 A 
ATOM     13  C   UNL     1       2.700   7.816  17.876  0.00  0.00    +0.000 A 
ATOM     14  C   UNL     1       2.870   6.443  17.958  0.00  0.00    +0.000 A 
ATOM     15  C   UNL     1       2.720   5.804  19.197  0.00  0.00    +0.000 A 
ATOM     16  C   UNL     1       2.035   6.468  20.228  0.00  0.00    +0.000 A 
BRANCH  11  18
ATOM     17  C   UNL     1      -0.132   8.890  21.330  0.00  0.00    +0.000 C 
ATOM     18  C   UNL     1       1.161   8.551  21.248  0.00  0.00    +0.000 C 
ATOM     19  F   UNL     1       1.962   8.853  22.308  0.00  0.00    +0.000 F 
ENDBRANCH  11  18
ENDBRANCH   1  15
BRANCH   8  20
ATOM     20  C   UNL     1       6.943   6.921  17.540  0.00  0.00    +0.000 C 
ATOM     21  F   UNL     1       7.891   7.275  16.633  0.00  0.00    +0.000 F 
ATOM     22  F   UNL     1       6.119   7.999  17.651  0.00  0.00    +0.000 F 
ATOM     23  F   UNL     1       7.589   6.821  18.735  0.00  0.00    +0.000 F 
ENDBRANCH   8  20
BRANCH   6  24
ATOM     24  C   UNL     1       5.245   3.817  13.944  0.00  0.00    +0.000 C 
BRANCH  24  25
ATOM     25  N   UNL     1       6.559   3.603  13.383  0.00  0.00    +0.000 N 
ATOM     26  H   UNL     1       7.124   2.860  13.784  0.00  0.00    +0.000 HD
BRANCH  25  27
ATOM     27  C   UNL     1       7.168   4.387  12.446  0.00  0.00    +0.000 C 
ATOM     28  C   UNL     1       7.835   5.517  12.711  0.00  0.00    +0.000 C 
ATOM     29  C   UNL     1       8.488   6.369  11.675  0.00  0.00    +0.000 C 
ENDBRANCH  25  27
ENDBRANCH  24  25
ENDBRANCH   6  24
TORSDOF 6
ENDMDL
MODEL 8
REMARK VINA RESULT:      -7.2      8.097     11.302
REMARK  Name = 
REMARK  7 active torsions:
REMARK  status: ('A' for Active; 'I' for Inactive)
REMARK    1  A    between atoms: C_2  and  C_4
REMARK    2  A    between atoms: C_8  and  N_9
REMARK    3  A    between atoms: C_14  and  C_15
REMARK    4  A    between atoms: C_15  and  N_16
REMARK    5  A    between atoms: N_16  and  C_17
REMARK    6  A    between atoms: C_18  and  C_19
REMARK    7  A    between atoms: C_21  and  C_22
REMARK                            x       y       z     vdW  Elec       q    Type
REMARK                         _______ _______ _______ _____ _____    ______ ____
ROOT
ATOM      1  N   UNL     1      -0.241  11.572  18.640  0.00  0.00    +0.000 N 
ATOM      2  C   UNL     1       0.529  10.840  19.676  0.00  0.00    +0.000 C 
ATOM      3  C   UNL     1      -0.025  11.422  20.945  0.00  0.00    +0.000 A 
ATOM      4  C   UNL     1      -0.467  12.715  20.649  0.00  0.00    +0.000 A 
ATOM      5  C   UNL     1      -1.213  13.479  21.531  0.00  0.00    +0.000 A 
ATOM      6  C   UNL     1      -1.550  12.906  22.763  0.00  0.00    +0.000 A 
ATOM      7  C   UNL     1      -1.102  11.595  23.066  0.00  0.00    +0.000 A 
ATOM      8  C   UNL     1      -0.332  10.829  22.164  0.00  0.00    +0.000 A 
ATOM      9  C   UNL     1      -0.439  12.872  19.173  0.00  0.00    +0.000 C 
ATOM     10  O   UNL     1      -0.760  13.892  18.592  0.00  0.00    +0.000 OA
ENDROOT
BRANCH   1  15
ATOM     11  C   UNL     1      -3.824  11.259  17.915  0.00  0.00    +0.000 A 
ATOM     12  C   UNL     1      -3.698  10.562  16.705  0.00  0.00    +0.000 A 
ATOM     13  C   UNL     1      -2.543   9.844  16.411  0.00  0.00    +0.000 A 
ATOM     14  C   UNL     1      -1.455   9.914  17.268  0.00  0.00    +0.000 A 
ATOM     15  C   UNL     1      -1.467  10.842  18.319  0.00  0.00    +0.000 A 
ATOM     16  C   UNL     1      -2.691  11.396  18.726  0.00  0.00    +0.000 A 
BRANCH  11  18
ATOM     17  C   UNL     1      -6.299  11.532  17.934  0.00  0.00    +0.000 C 
ATOM     18  C   UNL     1      -5.071  11.934  18.288  0.00  0.00    +0.000 C 
ATOM     19  F   UNL     1      -4.972  13.031  19.089  0.00  0.00    +0.000 F 
ENDBRANCH  11  18
ENDBRANCH   1  15
BRANCH   8  20
ATOM     20  C   UNL     1       0.000   9.401  22.513  0.00  0.00    +0.000 C 
ATOM     21  F   UNL     1      -0.719   8.476  21.824  0.00  0.00    +0.000 F 
ATOM     22  F   UNL     1       1.306   9.105  22.274  0.00  0.00    +0.000 F 
ATOM     23  F   UNL     1      -0.209   9.129  23.831  0.00  0.00    +0.000 F 
ENDBRANCH   8  20
BRANCH   6  24
ATOM     24  C   UNL     1      -2.475  13.630  23.716  0.00  0.00    +0.000 C 
BRANCH  24  25
ATOM     25  N   UNL     1      -3.650  12.827  23.968  0.00  0.00    +0.000 N 
ATOM     26  H   UNL     1      -3.515  11.931  24.426  0.00  0.00    +0.000 HD
BRANCH  25  27
ATOM     27  C   UNL     1      -4.915  13.100  23.533  0.00  0.00    +0.000 C 
ATOM     28  C   UNL     1      -5.386  12.805  22.316  0.00  0.00    +0.000 C 
ATOM     29  C   UNL     1      -6.769  13.119  21.852  0.00  0.00    +0.000 C 
ENDBRANCH  25  27
ENDBRANCH  24  25
ENDBRANCH   6  24
TORSDOF 6
ENDMDL
MODEL 9
REMARK VINA RESULT:      -7.2      1.735      2.340
REMARK  Name = 
REMARK  7 active torsions:
REMARK  status: ('A' for Active; 'I' for Inactive)
REMARK    1  A    between atoms: C_2  and  C_4
REMARK    2  A    between atoms: C_8  and  N_9
REMARK    3  A    between atoms: C_14  and  C_15
REMARK    4  A    between atoms: C_15  and  N_16
REMARK    5  A    between atoms: N_16  and  C_17
REMARK    6  A    between atoms: C_18  and  C_19
REMARK    7  A    between atoms: C_21  and  C_22
REMARK                            x       y       z     vdW  Elec       q    Type
REMARK                         _______ _______ _______ _____ _____    ______ ____
ROOT
ATOM      1  N   UNL     1       3.860   3.639  19.613  0.00  0.00    +0.000 N 
ATOM      2  C   UNL     1       5.337   3.659  19.751  0.00  0.00    +0.000 C 
ATOM      3  C   UNL     1       5.772   4.110  18.386  0.00  0.00    +0.000 A 
ATOM      4  C   UNL     1       4.783   3.708  17.483  0.00  0.00    +0.000 A 
ATOM      5  C   UNL     1       4.752   4.123  16.162  0.00  0.00    +0.000 A 
ATOM      6  C   UNL     1       5.754   5.003  15.734  0.00  0.00    +0.000 A 
ATOM      7  C   UNL     1       6.758   5.412  16.648  0.00  0.00    +0.000 A 
ATOM      8  C   UNL     1       6.787   4.973  17.989  0.00  0.00    +0.000 A 
ATOM      9  C   UNL     1       3.617   3.239  18.273  0.00  0.00    +0.000 C 
ATOM     10  O   UNL     1       2.589   2.815  17.780  0.00  0.00    +0.000 OA
ENDROOT
BRANCH   1  15
ATOM     11  C   UNL     1       2.490   6.974  18.931  0.00  0.00    +0.000 A 
ATOM     12  C   UNL     1       1.308   6.834  19.674  0.00  0.00    +0.000 A 
ATOM     13  C   UNL     1       1.215   5.893  20.696  0.00  0.00    +0.000 A 
ATOM     14  C   UNL     1       2.256   5.003  20.906  0.00  0.00    +0.000 A 
ATOM     15  C   UNL     1       3.306   4.942  19.979  0.00  0.00    +0.000 A 
ATOM     16  C   UNL     1       3.496   6.014  19.092  0.00  0.00    +0.000 A 
BRANCH  11  18
ATOM     17  C   UNL     1       1.982   9.191  17.919  0.00  0.00    +0.000 C 
ATOM     18  C   UNL     1       2.644   8.026  17.923  0.00  0.00    +0.000 C 
ATOM     19  F   UNL     1       3.561   7.818  16.937  0.00  0.00    +0.000 F 
ENDBRANCH  11  18
ENDBRANCH   1  15
BRANCH   8  20
ATOM     20  C   UNL     1       7.817   5.549  18.927  0.00  0.00    +0.000 C 
ATOM     21  F   UNL     1       8.326   6.745  18.531  0.00  0.00    +0.000 F 
ATOM     22  F   UNL     1       7.315   5.756  20.175  0.00  0.00    +0.000 F 
ATOM     23  F   UNL     1       8.888   4.723  19.088  0.00  0.00    +0.000 F 
ENDBRANCH   8  20
BRANCH   6  24
ATOM     24  C   UNL     1       5.704   5.602  14.346  0.00  0.00    +0.000 C 
BRANCH  24  25
ATOM     25  N   UNL     1       6.769   5.058  13.535  0.00  0.00    +0.000 N 
ATOM     26  H   UNL     1       7.559   5.663  13.331  0.00  0.00    +0.000 HD
BRANCH  25  27
ATOM     27  C   UNL     1       6.758   3.846  12.907  0.00  0.00    +0.000 C 
ATOM     28  C   UNL     1       5.727   3.354  12.210  0.00  0.00    +0.000 C 
ATOM     29  C   UNL     1       5.726   2.023  11.537  0.00  0.00    +0.000 C 
ENDBRANCH  25  27
ENDBRANCH  24  25
ENDBRANCH   6  24
TORSDOF 6
ENDMDL
