MODEL 1
REMARK VINA RESULT:      -9.3      0.000      0.000
REMARK  Name = 
REMARK  10 active torsions:
REMARK  status: ('A' for Active; 'I' for Inactive)
REMARK    1  A    between atoms: C_1  and  C_2
REMARK    2  A    between atoms: C_5  and  C_6
REMARK    3  A    between atoms: N_8  and  C_9
REMARK    4  A    between atoms: N_16  and  C_17
REMARK    5  A    between atoms: C_17  and  C_18
REMARK    6  A    between atoms: C_17  and  C_19
REMARK    7  A    between atoms: C_22  and  S_23
REMARK    8  A    between atoms: S_23  and  N_26
REMARK    9  A    between atoms: N_26  and  C_27
REMARK   10  A    between atoms: C_27  and  C_28
REMARK                            x       y       z     vdW  Elec       q    Type
REMARK                         _______ _______ _______ _____ _____    ______ ____
ROOT
ATOM      1  C   UNL     1       4.458   2.469  19.240  0.00  0.00    +0.000 C 
ATOM      2  C   UNL     1       3.873   3.836  19.455  0.00  0.00    +0.000 A 
ATOM      3  C   UNL     1       2.558   3.934  19.968  0.00  0.00    +0.000 A 
ATOM      4  C   UNL     1       1.925   5.178  20.131  0.00  0.00    +0.000 A 
ATOM      5  C   UNL     1       2.595   6.349  19.781  0.00  0.00    +0.000 A 
ATOM      6  C   UNL     1       3.915   6.268  19.311  0.00  0.00    +0.000 A 
ATOM      7  C   UNL     1       4.554   5.026  19.133  0.00  0.00    +0.000 A 
ENDROOT
BRANCH   5   8
ATOM      8  C   UNL     1       1.911   7.678  19.903  0.00  0.00    +0.000 C 
ATOM      9  O   UNL     1       1.928   8.442  18.946  0.00  0.00    +0.000 OA
ATOM     10  N   UNL     1       1.351   7.940  21.145  0.00  0.00    +0.000 N 
ATOM     11  H   UNL     1       1.610   7.328  21.909  0.00  0.00    +0.000 HD
BRANCH  10  12
ATOM     12  C   UNL     1       0.591   9.081  21.506  0.00  0.00    +0.000 A 
ATOM     13  C   UNL     1       0.357   9.507  22.816  0.00  0.00    +0.000 A 
ATOM     14  N   UNL     1      -0.388  10.586  23.197  0.00  0.00    +0.000 NA
ATOM     15  C   UNL     1      -0.942  11.239  22.154  0.00  0.00    +0.000 A 
ATOM     16  C   UNL     1      -0.780  10.935  20.809  0.00  0.00    +0.000 A 
ATOM     17  C   UNL     1      -1.565  11.890  20.133  0.00  0.00    +0.000 A 
ATOM     18  N   UNL     1      -2.184  12.738  20.961  0.00  0.00    +0.000 NA
ATOM     19  N   UNL     1      -1.778  12.332  22.193  0.00  0.00    +0.000 N 
ATOM     20  C   UNL     1       0.038   9.843  20.467  0.00  0.00    +0.000 A 
BRANCH  19  21
ATOM     21  C   UNL     1      -2.213  13.064  23.378  0.00  0.00    +0.000 C 
ATOM     22  C   UNL     1      -1.246  14.201  23.716  0.00  0.00    +0.000 C 
ATOM     23  C   UNL     1      -3.639  13.603  23.233  0.00  0.00    +0.000 C 
ENDBRANCH  19  21
ENDBRANCH  10  12
ENDBRANCH   5   8
BRANCH   7  24
ATOM     24  S   UNL     1       6.104   5.081  18.213  0.00  0.00    +0.000 S 
ATOM     25  O   UNL     1       6.141   6.361  17.537  0.00  0.00    +0.000 OA
ATOM     26  O   UNL     1       7.160   4.706  19.117  0.00  0.00    +0.000 OA
BRANCH  24  27
ATOM     27  N   UNL     1       6.031   3.904  16.990  0.00  0.00    +0.000 NA
ATOM     28  H   UNL     1       5.849   3.002  17.441  0.00  0.00    +0.000 HD
BRANCH  27  29
ATOM     29  C   UNL     1       5.132   4.198  15.857  0.00  0.00    +0.000 C 
BRANCH  29  30
ATOM     30  C   UNL     1       5.777   4.246  14.477  0.00  0.00    +0.000 A 
ATOM     31  C   UNL     1       6.968   4.986  14.305  0.00  0.00    +0.000 A 
ATOM     32  C   UNL     1       7.672   4.974  13.095  0.00  0.00    +0.000 A 
ATOM     33  C   UNL     1       7.195   4.221  12.026  0.00  0.00    +0.000 A 
ATOM     34  C   UNL     1       6.015   3.490  12.175  0.00  0.00    +0.000 A 
ATOM     35  C   UNL     1       5.313   3.499  13.388  0.00  0.00    +0.000 A 
ENDBRANCH  29  30
ENDBRANCH  27  29
ENDBRANCH  24  27
ENDBRANCH   7  24
TORSDOF 7
ENDMDL
MODEL 2
REMARK VINA RESULT:      -8.9      1.662      2.286
REMARK  Name = 
REMARK  10 active torsions:
REMARK  status: ('A' for Active; 'I' for Inactive)
REMARK    1  A    between atoms: C_1  and  C_2
REMARK    2  A    between atoms: C_5  and  C_6
REMARK    3  A    between atoms: N_8  and  C_9
REMARK    4  A    between atoms: N_16  and  C_17
REMARK    5  A    between atoms: C_17  and  C_18
REMARK    6  A    between atoms: C_17  and  C_19
REMARK    7  A    between atoms: C_22  and  S_23
REMARK    8  A    between atoms: S_23  and  N_26
REMARK    9  A    between atoms: N_26  and  C_27
REMARK   10  A    between atoms: C_27  and  C_28
REMARK                            x       y       z     vdW  Elec       q    Type
REMARK                         _______ _______ _______ _____ _____    ______ ____
ROOT
ATOM      1  C   UNL     1       4.789   3.068  16.793  0.00  0.00    +0.000 C 
ATOM      2  C   UNL     1       4.202   4.377  17.243  0.00  0.00    +0.000 A 
ATOM      3  C   UNL     1       2.857   4.398  17.682  0.00  0.00    +0.000 A 
ATOM      4  C   UNL     1       2.226   5.598  18.051  0.00  0.00    +0.000 A 
ATOM      5  C   UNL     1       2.927   6.800  17.987  0.00  0.00    +0.000 A 
ATOM      6  C   UNL     1       4.275   6.787  17.594  0.00  0.00    +0.000 A 
ATOM      7  C   UNL     1       4.913   5.592  17.211  0.00  0.00    +0.000 A 
ENDROOT
BRANCH   5   8
ATOM      8  C   UNL     1       2.248   8.093  18.331  0.00  0.00    +0.000 C 
ATOM      9  O   UNL     1       2.153   8.958  17.470  0.00  0.00    +0.000 OA
ATOM     10  N   UNL     1       1.826   8.204  19.649  0.00  0.00    +0.000 N 
ATOM     11  H   UNL     1       2.173   7.516  20.306  0.00  0.00    +0.000 HD
BRANCH  10  12
ATOM     12  C   UNL     1       1.100   9.281  20.215  0.00  0.00    +0.000 A 
ATOM     13  C   UNL     1       0.991  10.556  19.655  0.00  0.00    +0.000 A 
ATOM     14  N   UNL     1       0.319  11.621  20.186  0.00  0.00    +0.000 NA
ATOM     15  C   UNL     1      -0.243  11.346  21.382  0.00  0.00    +0.000 A 
ATOM     16  C   UNL     1      -0.225  10.124  22.041  0.00  0.00    +0.000 A 
ATOM     17  C   UNL     1      -0.928  10.359  23.240  0.00  0.00    +0.000 A 
ATOM     18  N   UNL     1      -1.363  11.617  23.352  0.00  0.00    +0.000 NA
ATOM     19  N   UNL     1      -0.946  12.202  22.198  0.00  0.00    +0.000 N 
ATOM     20  C   UNL     1       0.438   9.045  21.428  0.00  0.00    +0.000 A 
BRANCH  19  21
ATOM     21  C   UNL     1      -1.286  13.595  21.926  0.00  0.00    +0.000 C 
ATOM     22  C   UNL     1      -2.630  13.709  21.204  0.00  0.00    +0.000 C 
ATOM     23  C   UNL     1      -1.291  14.447  23.198  0.00  0.00    +0.000 C 
ENDBRANCH  19  21
ENDBRANCH  10  12
ENDBRANCH   5   8
BRANCH   7  24
ATOM     24  S   UNL     1       6.521   5.797  16.420  0.00  0.00    +0.000 S 
ATOM     25  O   UNL     1       6.961   7.145  16.713  0.00  0.00    +0.000 OA
ATOM     26  O   UNL     1       7.336   4.670  16.792  0.00  0.00    +0.000 OA
BRANCH  24  27
ATOM     27  N   UNL     1       6.291   5.733  14.737  0.00  0.00    +0.000 NA
ATOM     28  H   UNL     1       6.330   6.694  14.383  0.00  0.00    +0.000 HD
BRANCH  27  29
ATOM     29  C   UNL     1       7.152   4.789  13.999  0.00  0.00    +0.000 C 
BRANCH  29  30
ATOM     30  C   UNL     1       6.468   3.941  12.932  0.00  0.00    +0.000 A 
ATOM     31  C   UNL     1       7.237   3.005  12.207  0.00  0.00    +0.000 A 
ATOM     32  C   UNL     1       6.648   2.116  11.300  0.00  0.00    +0.000 A 
ATOM     33  C   UNL     1       5.272   2.148  11.096  0.00  0.00    +0.000 A 
ATOM     34  C   UNL     1       4.497   3.073  11.798  0.00  0.00    +0.000 A 
ATOM     35  C   UNL     1       5.086   3.960  12.709  0.00  0.00    +0.000 A 
ENDBRANCH  29  30
ENDBRANCH  27  29
ENDBRANCH  24  27
ENDBRANCH   7  24
TORSDOF 7
ENDMDL
MODEL 3
REMARK VINA RESULT:      -8.8      3.515      4.672
REMARK  Name = 
REMARK  10 active torsions:
REMARK  status: ('A' for Active; 'I' for Inactive)
REMARK    1  A    between atoms: C_1  and  C_2
REMARK    2  A    between atoms: C_5  and  C_6
REMARK    3  A    between atoms: N_8  and  C_9
REMARK    4  A    between atoms: N_16  and  C_17
REMARK    5  A    between atoms: C_17  and  C_18
REMARK    6  A    between atoms: C_17  and  C_19
REMARK    7  A    between atoms: C_22  and  S_23
REMARK    8  A    between atoms: S_23  and  N_26
REMARK    9  A    between atoms: N_26  and  C_27
REMARK   10  A    between atoms: C_27  and  C_28
REMARK                            x       y       z     vdW  Elec       q    Type
REMARK                         _______ _______ _______ _____ _____    ______ ____
ROOT
ATOM      1  C   UNL     1       5.848   3.524  15.500  0.00  0.00    +0.000 C 
ATOM      2  C   UNL     1       5.070   4.268  16.550  0.00  0.00    +0.000 A 
ATOM      3  C   UNL     1       3.707   3.939  16.738  0.00  0.00    +0.000 A 
ATOM      4  C   UNL     1       2.904   4.640  17.654  0.00  0.00    +0.000 A 
ATOM      5  C   UNL     1       3.449   5.684  18.398  0.00  0.00    +0.000 A 
ATOM      6  C   UNL     1       4.810   5.992  18.251  0.00  0.00    +0.000 A 
ATOM      7  C   UNL     1       5.621   5.304  17.328  0.00  0.00    +0.000 A 
ENDROOT
BRANCH   5   8
ATOM      8  C   UNL     1       2.589   6.472  19.341  0.00  0.00    +0.000 C 
ATOM      9  O   UNL     1       2.199   5.939  20.371  0.00  0.00    +0.000 OA
ATOM     10  N   UNL     1       2.268   7.754  18.914  0.00  0.00    +0.000 N 
ATOM     11  H   UNL     1       2.461   7.981  17.946  0.00  0.00    +0.000 HD
BRANCH  10  12
ATOM     12  C   UNL     1       1.535   8.727  19.638  0.00  0.00    +0.000 A 
ATOM     13  C   UNL     1       1.126   9.963  19.130  0.00  0.00    +0.000 A 
ATOM     14  N   UNL     1       0.440  10.930  19.808  0.00  0.00    +0.000 NA
ATOM     15  C   UNL     1       0.195  10.601  21.093  0.00  0.00    +0.000 A 
ATOM     16  C   UNL     1       0.530   9.407  21.718  0.00  0.00    +0.000 A 
ATOM     17  C   UNL     1       0.076   9.562  23.044  0.00  0.00    +0.000 A 
ATOM     18  N   UNL     1      -0.500  10.747  23.263  0.00  0.00    +0.000 NA
ATOM     19  N   UNL     1      -0.430  11.363  22.054  0.00  0.00    +0.000 N 
ATOM     20  C   UNL     1       1.192   8.422  20.962  0.00  0.00    +0.000 A 
BRANCH  19  21
ATOM     21  C   UNL     1      -1.017  12.689  21.879  0.00  0.00    +0.000 C 
ATOM     22  C   UNL     1      -2.406  12.603  21.244  0.00  0.00    +0.000 C 
ATOM     23  C   UNL     1      -1.080  13.469  23.194  0.00  0.00    +0.000 C 
ENDBRANCH  19  21
ENDBRANCH  10  12
ENDBRANCH   5   8
BRANCH   7  24
ATOM     24  S   UNL     1       7.239   6.040  17.023  0.00  0.00    +0.000 S 
ATOM     25  O   UNL     1       8.167   5.392  17.925  0.00  0.00    +0.000 OA
ATOM     26  O   UNL     1       7.469   6.013  15.602  0.00  0.00    +0.000 OA
BRANCH  24  27
ATOM     27  N   UNL     1       7.174   7.669  17.503  0.00  0.00    +0.000 NA
ATOM     28  H   UNL     1       6.214   7.864  17.805  0.00  0.00    +0.000 HD
BRANCH  27  29
ATOM     29  C   UNL     1       8.203   8.103  18.469  0.00  0.00    +0.000 C 
BRANCH  29  30
ATOM     30  C   UNL     1       8.539   9.590  18.475  0.00  0.00    +0.000 A 
ATOM     31  C   UNL     1       9.581  10.051  19.309  0.00  0.00    +0.000 A 
ATOM     32  C   UNL     1      10.017  11.381  19.273  0.00  0.00    +0.000 A 
ATOM     33  C   UNL     1       9.413  12.282  18.401  0.00  0.00    +0.000 A 
ATOM     34  C   UNL     1       8.376  11.846  17.575  0.00  0.00    +0.000 A 
ATOM     35  C   UNL     1       7.943  10.514  17.608  0.00  0.00    +0.000 A 
ENDBRANCH  29  30
ENDBRANCH  27  29
ENDBRANCH  24  27
ENDBRANCH   7  24
TORSDOF 7
ENDMDL
MODEL 4
REMARK VINA RESULT:      -8.7      3.122      9.909
REMARK  Name = 
REMARK  10 active torsions:
REMARK  status: ('A' for Active; 'I' for Inactive)
REMARK    1  A    between atoms: C_1  and  C_2
REMARK    2  A    between atoms: C_5  and  C_6
REMARK    3  A    between atoms: N_8  and  C_9
REMARK    4  A    between atoms: N_16  and  C_17
REMARK    5  A    between atoms: C_17  and  C_18
REMARK    6  A    between atoms: C_17  and  C_19
REMARK    7  A    between atoms: C_22  and  S_23
REMARK    8  A    between atoms: S_23  and  N_26
REMARK    9  A    between atoms: N_26  and  C_27
REMARK   10  A    between atoms: C_27  and  C_28
REMARK                            x       y       z     vdW  Elec       q    Type
REMARK                         _______ _______ _______ _____ _____    ______ ____
ROOT
ATOM      1  C   UNL     1      -1.630  12.487  22.804  0.00  0.00    +0.000 C 
ATOM      2  C   UNL     1      -0.913  11.316  22.194  0.00  0.00    +0.000 A 
ATOM      3  C   UNL     1      -0.802  10.125  22.951  0.00  0.00    +0.000 A 
ATOM      4  C   UNL     1      -0.087   9.016  22.470  0.00  0.00    +0.000 A 
ATOM      5  C   UNL     1       0.534   9.076  21.224  0.00  0.00    +0.000 A 
ATOM      6  C   UNL     1       0.396  10.236  20.446  0.00  0.00    +0.000 A 
ATOM      7  C   UNL     1      -0.309  11.358  20.923  0.00  0.00    +0.000 A 
ENDROOT
BRANCH   5   8
ATOM      8  C   UNL     1       1.343   7.916  20.723  0.00  0.00    +0.000 C 
ATOM      9  O   UNL     1       1.448   6.920  21.427  0.00  0.00    +0.000 OA
ATOM     10  N   UNL     1       1.953   8.113  19.492  0.00  0.00    +0.000 N 
ATOM     11  H   UNL     1       1.975   9.059  19.131  0.00  0.00    +0.000 HD
BRANCH  10  12
ATOM     12  C   UNL     1       2.709   7.161  18.762  0.00  0.00    +0.000 A 
ATOM     13  C   UNL     1       3.839   7.455  17.994  0.00  0.00    +0.000 A 
ATOM     14  N   UNL     1       4.574   6.567  17.262  0.00  0.00    +0.000 NA
ATOM     15  C   UNL     1       4.086   5.310  17.312  0.00  0.00    +0.000 A 
ATOM     16  C   UNL     1       2.988   4.880  18.045  0.00  0.00    +0.000 A 
ATOM     17  C   UNL     1       2.884   3.505  17.751  0.00  0.00    +0.000 A 
ATOM     18  N   UNL     1       3.826   3.079  16.905  0.00  0.00    +0.000 NA
ATOM     19  N   UNL     1       4.560   4.195  16.659  0.00  0.00    +0.000 N 
ATOM     20  C   UNL     1       2.294   5.824  18.823  0.00  0.00    +0.000 A 
BRANCH  19  21
ATOM     21  C   UNL     1       5.737   4.115  15.798  0.00  0.00    +0.000 C 
ATOM     22  C   UNL     1       5.582   5.001  14.561  0.00  0.00    +0.000 C 
ATOM     23  C   UNL     1       7.025   4.467  16.548  0.00  0.00    +0.000 C 
ENDBRANCH  19  21
ENDBRANCH  10  12
ENDBRANCH   5   8
BRANCH   7  24
ATOM     24  S   UNL     1      -0.105  12.865  19.955  0.00  0.00    +0.000 S 
ATOM     25  O   UNL     1       0.171  13.930  20.896  0.00  0.00    +0.000 OA
ATOM     26  O   UNL     1       0.823  12.577  18.892  0.00  0.00    +0.000 OA
BRANCH  24  27
ATOM     27  N   UNL     1      -1.602  13.240  19.244  0.00  0.00    +0.000 NA
ATOM     28  H   UNL     1      -1.413  13.631  18.316  0.00  0.00    +0.000 HD
BRANCH  27  29
ATOM     29  C   UNL     1      -2.609  12.162  19.243  0.00  0.00    +0.000 C 
BRANCH  29  30
ATOM     30  C   UNL     1      -2.810  11.425  17.923  0.00  0.00    +0.000 A 
ATOM     31  C   UNL     1      -1.838  10.489  17.510  0.00  0.00    +0.000 A 
ATOM     32  C   UNL     1      -2.020   9.695  16.371  0.00  0.00    +0.000 A 
ATOM     33  C   UNL     1      -3.183   9.825  15.617  0.00  0.00    +0.000 A 
ATOM     34  C   UNL     1      -4.151  10.751  16.007  0.00  0.00    +0.000 A 
ATOM     35  C   UNL     1      -3.971  11.543  17.149  0.00  0.00    +0.000 A 
ENDBRANCH  29  30
ENDBRANCH  27  29
ENDBRANCH  24  27
ENDBRANCH   7  24
TORSDOF 7
ENDMDL
MODEL 5
REMARK VINA RESULT:      -8.7      1.403      1.608
REMARK  Name = 
REMARK  10 active torsions:
REMARK  status: ('A' for Active; 'I' for Inactive)
REMARK    1  A    between atoms: C_1  and  C_2
REMARK    2  A    between atoms: C_5  and  C_6
REMARK    3  A    between atoms: N_8  and  C_9
REMARK    4  A    between atoms: N_16  and  C_17
REMARK    5  A    between atoms: C_17  and  C_18
REMARK    6  A    between atoms: C_17  and  C_19
REMARK    7  A    between atoms: C_22  and  S_23
REMARK    8  A    between atoms: S_23  and  N_26
REMARK    9  A    between atoms: N_26  and  C_27
REMARK   10  A    between atoms: C_27  and  C_28
REMARK                            x       y       z     vdW  Elec       q    Type
REMARK                         _______ _______ _______ _____ _____    ______ ____
ROOT
ATOM      1  C   UNL     1       3.978   2.884  17.626  0.00  0.00    +0.000 C 
ATOM      2  C   UNL     1       3.488   4.280  17.894  0.00  0.00    +0.000 A 
ATOM      3  C   UNL     1       2.108   4.550  17.740  0.00  0.00    +0.000 A 
ATOM      4  C   UNL     1       1.592   5.846  17.909  0.00  0.00    +0.000 A 
ATOM      5  C   UNL     1       2.447   6.898  18.233  0.00  0.00    +0.000 A 
ATOM      6  C   UNL     1       3.812   6.634  18.430  0.00  0.00    +0.000 A 
ATOM      7  C   UNL     1       4.341   5.341  18.252  0.00  0.00    +0.000 A 
ENDROOT
BRANCH   5   8
ATOM      8  C   UNL     1       1.916   8.294  18.366  0.00  0.00    +0.000 C 
ATOM      9  O   UNL     1       2.046   9.068  17.426  0.00  0.00    +0.000 OA
ATOM     10  N   UNL     1       1.356   8.596  19.599  0.00  0.00    +0.000 N 
ATOM     11  H   UNL     1       1.523   7.944  20.356  0.00  0.00    +0.000 HD
BRANCH  10  12
ATOM     12  C   UNL     1       0.722   9.809  19.965  0.00  0.00    +0.000 A 
ATOM     13  C   UNL     1       1.187  10.693  20.942  0.00  0.00    +0.000 A 
ATOM     14  N   UNL     1       0.588  11.857  21.334  0.00  0.00    +0.000 NA
ATOM     15  C   UNL     1      -0.575  12.094  20.691  0.00  0.00    +0.000 A 
ATOM     16  C   UNL     1      -1.140  11.311  19.693  0.00  0.00    +0.000 A 
ATOM     17  C   UNL     1      -2.343  11.971  19.366  0.00  0.00    +0.000 A 
ATOM     18  N   UNL     1      -2.542  13.080  20.084  0.00  0.00    +0.000 NA
ATOM     19  N   UNL     1      -1.442  13.146  20.879  0.00  0.00    +0.000 N 
ATOM     20  C   UNL     1      -0.459  10.148  19.291  0.00  0.00    +0.000 A 
BRANCH  19  21
ATOM     21  C   UNL     1      -1.269  14.275  21.788  0.00  0.00    +0.000 C 
ATOM     22  C   UNL     1      -1.860  15.558  21.200  0.00  0.00    +0.000 C 
ATOM     23  C   UNL     1      -1.866  13.999  23.171  0.00  0.00    +0.000 C 
ENDBRANCH  19  21
ENDBRANCH  10  12
ENDBRANCH   5   8
BRANCH   7  24
ATOM     24  S   UNL     1       6.141   5.244  18.211  0.00  0.00    +0.000 S 
ATOM     25  O   UNL     1       6.626   6.591  17.997  0.00  0.00    +0.000 OA
ATOM     26  O   UNL     1       6.562   4.495  19.367  0.00  0.00    +0.000 OA
BRANCH  24  27
ATOM     27  N   UNL     1       6.589   4.356  16.833  0.00  0.00    +0.000 NA
ATOM     28  H   UNL     1       5.792   3.767  16.573  0.00  0.00    +0.000 HD
BRANCH  27  29
ATOM     29  C   UNL     1       7.146   5.136  15.711  0.00  0.00    +0.000 C 
BRANCH  29  30
ATOM     30  C   UNL     1       6.783   4.657  14.309  0.00  0.00    +0.000 A 
ATOM     31  C   UNL     1       7.629   4.999  13.231  0.00  0.00    +0.000 A 
ATOM     32  C   UNL     1       7.417   4.493  11.943  0.00  0.00    +0.000 A 
ATOM     33  C   UNL     1       6.348   3.634  11.705  0.00  0.00    +0.000 A 
ATOM     34  C   UNL     1       5.497   3.292  12.757  0.00  0.00    +0.000 A 
ATOM     35  C   UNL     1       5.711   3.795  14.048  0.00  0.00    +0.000 A 
ENDBRANCH  29  30
ENDBRANCH  27  29
ENDBRANCH  24  27
ENDBRANCH   7  24
TORSDOF 7
ENDMDL
MODEL 6
REMARK VINA RESULT:      -8.6      2.131      4.445
REMARK  Name = 
REMARK  10 active torsions:
REMARK  status: ('A' for Active; 'I' for Inactive)
REMARK    1  A    between atoms: C_1  and  C_2
REMARK    2  A    between atoms: C_5  and  C_6
REMARK    3  A    between atoms: N_8  and  C_9
REMARK    4  A    between atoms: N_16  and  C_17
REMARK    5  A    between atoms: C_17  and  C_18
REMARK    6  A    between atoms: C_17  and  C_19
REMARK    7  A    between atoms: C_22  and  S_23
REMARK    8  A    between atoms: S_23  and  N_26
REMARK    9  A    between atoms: N_26  and  C_27
REMARK   10  A    between atoms: C_27  and  C_28
REMARK                            x       y       z     vdW  Elec       q    Type
REMARK                         _______ _______ _______ _____ _____    ______ ____
ROOT
ATOM      1  C   UNL     1       6.580   5.416  15.663  0.00  0.00    +0.000 C 
ATOM      2  C   UNL     1       5.442   5.986  16.462  0.00  0.00    +0.000 A 
ATOM      3  C   UNL     1       4.662   7.016  15.885  0.00  0.00    +0.000 A 
ATOM      4  C   UNL     1       3.627   7.640  16.601  0.00  0.00    +0.000 A 
ATOM      5  C   UNL     1       3.353   7.248  17.910  0.00  0.00    +0.000 A 
ATOM      6  C   UNL     1       4.092   6.199  18.479  0.00  0.00    +0.000 A 
ATOM      7  C   UNL     1       5.139   5.575  17.775  0.00  0.00    +0.000 A 
ENDROOT
BRANCH   5   8
ATOM      8  C   UNL     1       2.284   7.942  18.701  0.00  0.00    +0.000 C 
ATOM      9  O   UNL     1       1.955   7.478  19.785  0.00  0.00    +0.000 OA
ATOM     10  N   UNL     1       1.720   9.049  18.082  0.00  0.00    +0.000 N 
ATOM     11  H   UNL     1       1.919   9.182  17.098  0.00  0.00    +0.000 HD
BRANCH  10  12
ATOM     12  C   UNL     1       0.748   9.921  18.634  0.00  0.00    +0.000 A 
ATOM     13  C   UNL     1       0.920  10.680  19.795  0.00  0.00    +0.000 A 
ATOM     14  N   UNL     1      -0.003  11.510  20.365  0.00  0.00    +0.000 NA
ATOM     15  C   UNL     1      -1.179  11.526  19.702  0.00  0.00    +0.000 A 
ATOM     16  C   UNL     1      -1.477  10.837  18.534  0.00  0.00    +0.000 A 
ATOM     17  C   UNL     1      -2.819  11.171  18.259  0.00  0.00    +0.000 A 
ATOM     18  N   UNL     1      -3.347  11.999  19.165  0.00  0.00    +0.000 NA
ATOM     19  N   UNL     1      -2.323  12.216  20.032  0.00  0.00    +0.000 N 
ATOM     20  C   UNL     1      -0.475  10.034  17.959  0.00  0.00    +0.000 A 
BRANCH  19  21
ATOM     21  C   UNL     1      -2.503  13.132  21.155  0.00  0.00    +0.000 C 
ATOM     22  C   UNL     1      -3.618  14.142  20.875  0.00  0.00    +0.000 C 
ATOM     23  C   UNL     1      -2.774  12.390  22.466  0.00  0.00    +0.000 C 
ENDBRANCH  19  21
ENDBRANCH  10  12
ENDBRANCH   5   8
BRANCH   7  24
ATOM     24  S   UNL     1       6.194   4.494  18.760  0.00  0.00    +0.000 S 
ATOM     25  O   UNL     1       7.412   4.298  18.002  0.00  0.00    +0.000 OA
ATOM     26  O   UNL     1       6.247   5.035  20.093  0.00  0.00    +0.000 OA
BRANCH  24  27
ATOM     27  N   UNL     1       5.446   2.971  18.852  0.00  0.00    +0.000 NA
ATOM     28  H   UNL     1       6.163   2.263  18.665  0.00  0.00    +0.000 HD
BRANCH  27  29
ATOM     29  C   UNL     1       4.653   2.709  20.069  0.00  0.00    +0.000 C 
BRANCH  29  30
ATOM     30  C   UNL     1       3.139   2.815  19.926  0.00  0.00    +0.000 A 
ATOM     31  C   UNL     1       2.445   3.769  20.701  0.00  0.00    +0.000 A 
ATOM     32  C   UNL     1       1.074   3.997  20.531  0.00  0.00    +0.000 A 
ATOM     33  C   UNL     1       0.366   3.269  19.579  0.00  0.00    +0.000 A 
ATOM     34  C   UNL     1       1.034   2.316  18.809  0.00  0.00    +0.000 A 
ATOM     35  C   UNL     1       2.407   2.091  18.977  0.00  0.00    +0.000 A 
ENDBRANCH  29  30
ENDBRANCH  27  29
ENDBRANCH  24  27
ENDBRANCH   7  24
TORSDOF 7
ENDMDL
MODEL 7
REMARK VINA RESULT:      -8.6      1.878      4.456
REMARK  Name = 
REMARK  10 active torsions:
REMARK  status: ('A' for Active; 'I' for Inactive)
REMARK    1  A    between atoms: C_1  and  C_2
REMARK    2  A    between atoms: C_5  and  C_6
REMARK    3  A    between atoms: N_8  and  C_9
REMARK    4  A    between atoms: N_16  and  C_17
REMARK    5  A    between atoms: C_17  and  C_18
REMARK    6  A    between atoms: C_17  and  C_19
REMARK    7  A    between atoms: C_22  and  S_23
REMARK    8  A    between atoms: S_23  and  N_26
REMARK    9  A    between atoms: N_26  and  C_27
REMARK   10  A    between atoms: C_27  and  C_28
REMARK                            x       y       z     vdW  Elec       q    Type
REMARK                         _______ _______ _______ _____ _____    ______ ____
ROOT
ATOM      1  C   UNL     1       6.739   4.616  15.588  0.00  0.00    +0.000 C 
ATOM      2  C   UNL     1       5.694   5.510  16.195  0.00  0.00    +0.000 A 
ATOM      3  C   UNL     1       5.032   6.438  15.357  0.00  0.00    +0.000 A 
ATOM      4  C   UNL     1       4.094   7.349  15.870  0.00  0.00    +0.000 A 
ATOM      5  C   UNL     1       3.801   7.352  17.233  0.00  0.00    +0.000 A 
ATOM      6  C   UNL     1       4.420   6.408  18.067  0.00  0.00    +0.000 A 
ATOM      7  C   UNL     1       5.370   5.498  17.565  0.00  0.00    +0.000 A 
ENDROOT
BRANCH   5   8
ATOM      8  C   UNL     1       2.839   8.353  17.800  0.00  0.00    +0.000 C 
ATOM      9  O   UNL     1       2.551   9.339  17.134  0.00  0.00    +0.000 OA
ATOM     10  N   UNL     1       2.396   8.080  19.086  0.00  0.00    +0.000 N 
ATOM     11  H   UNL     1       2.889   7.363  19.604  0.00  0.00    +0.000 HD
BRANCH  10  12
ATOM     12  C   UNL     1       1.437   8.818  19.824  0.00  0.00    +0.000 A 
ATOM     13  C   UNL     1       0.571   9.772  19.283  0.00  0.00    +0.000 A 
ATOM     14  N   UNL     1      -0.346  10.516  19.970  0.00  0.00    +0.000 NA
ATOM     15  C   UNL     1      -0.338  10.271  21.296  0.00  0.00    +0.000 A 
ATOM     16  C   UNL     1       0.455   9.343  21.959  0.00  0.00    +0.000 A 
ATOM     17  C   UNL     1       0.101   9.483  23.317  0.00  0.00    +0.000 A 
ATOM     18  N   UNL     1      -0.834  10.415  23.520  0.00  0.00    +0.000 NA
ATOM     19  N   UNL     1      -1.100  10.876  22.270  0.00  0.00    +0.000 N 
ATOM     20  C   UNL     1       1.348   8.566  21.200  0.00  0.00    +0.000 A 
BRANCH  19  21
ATOM     21  C   UNL     1      -2.131  11.891  22.074  0.00  0.00    +0.000 C 
ATOM     22  C   UNL     1      -2.927  12.130  23.358  0.00  0.00    +0.000 C 
ATOM     23  C   UNL     1      -1.551  13.209  21.554  0.00  0.00    +0.000 C 
ENDBRANCH  19  21
ENDBRANCH  10  12
ENDBRANCH   5   8
BRANCH   7  24
ATOM     24  S   UNL     1       6.307   4.594  18.813  0.00  0.00    +0.000 S 
ATOM     25  O   UNL     1       7.586   4.268  18.218  0.00  0.00    +0.000 OA
ATOM     26  O   UNL     1       6.246   5.353  20.036  0.00  0.00    +0.000 OA
BRANCH  24  27
ATOM     27  N   UNL     1       5.523   3.112  19.088  0.00  0.00    +0.000 NA
ATOM     28  H   UNL     1       5.375   3.024  20.098  0.00  0.00    +0.000 HD
BRANCH  27  29
ATOM     29  C   UNL     1       4.313   2.857  18.283  0.00  0.00    +0.000 C 
BRANCH  29  30
ATOM     30  C   UNL     1       2.977   3.003  19.005  0.00  0.00    +0.000 A 
ATOM     31  C   UNL     1       2.918   3.783  20.180  0.00  0.00    +0.000 A 
ATOM     32  C   UNL     1       1.704   4.053  20.822  0.00  0.00    +0.000 A 
ATOM     33  C   UNL     1       0.518   3.542  20.301  0.00  0.00    +0.000 A 
ATOM     34  C   UNL     1       0.559   2.762  19.145  0.00  0.00    +0.000 A 
ATOM     35  C   UNL     1       1.774   2.496  18.500  0.00  0.00    +0.000 A 
ENDBRANCH  29  30
ENDBRANCH  27  29
ENDBRANCH  24  27
ENDBRANCH   7  24
TORSDOF 7
ENDMDL
MODEL 8
REMARK VINA RESULT:      -8.5      1.836      4.222
REMARK  Name = 
REMARK  10 active torsions:
REMARK  status: ('A' for Active; 'I' for Inactive)
REMARK    1  A    between atoms: C_1  and  C_2
REMARK    2  A    between atoms: C_5  and  C_6
REMARK    3  A    between atoms: N_8  and  C_9
REMARK    4  A    between atoms: N_16  and  C_17
REMARK    5  A    between atoms: C_17  and  C_18
REMARK    6  A    between atoms: C_17  and  C_19
REMARK    7  A    between atoms: C_22  and  S_23
REMARK    8  A    between atoms: S_23  and  N_26
REMARK    9  A    between atoms: N_26  and  C_27
REMARK   10  A    between atoms: C_27  and  C_28
REMARK                            x       y       z     vdW  Elec       q    Type
REMARK                         _______ _______ _______ _____ _____    ______ ____
ROOT
ATOM      1  C   UNL     1       5.984   5.729  15.733  0.00  0.00    +0.000 C 
ATOM      2  C   UNL     1       4.949   6.198  16.717  0.00  0.00    +0.000 A 
ATOM      3  C   UNL     1       4.078   7.244  16.332  0.00  0.00    +0.000 A 
ATOM      4  C   UNL     1       3.133   7.776  17.225  0.00  0.00    +0.000 A 
ATOM      5  C   UNL     1       3.041   7.273  18.521  0.00  0.00    +0.000 A 
ATOM      6  C   UNL     1       3.871   6.207  18.902  0.00  0.00    +0.000 A 
ATOM      7  C   UNL     1       4.830   5.674  18.019  0.00  0.00    +0.000 A 
ENDROOT
BRANCH   5   8
ATOM      8  C   UNL     1       2.071   7.867  19.499  0.00  0.00    +0.000 C 
ATOM      9  O   UNL     1       1.719   7.200  20.462  0.00  0.00    +0.000 OA
ATOM     10  N   UNL     1       1.614   9.138  19.175  0.00  0.00    +0.000 N 
ATOM     11  H   UNL     1       1.804   9.474  18.239  0.00  0.00    +0.000 HD
BRANCH  10  12
ATOM     12  C   UNL     1       0.754   9.950  19.956  0.00  0.00    +0.000 A 
ATOM     13  C   UNL     1       0.866  10.141  21.335  0.00  0.00    +0.000 A 
ATOM     14  N   UNL     1       0.042  10.898  22.119  0.00  0.00    +0.000 NA
ATOM     15  C   UNL     1      -0.972  11.461  21.428  0.00  0.00    +0.000 A 
ATOM     16  C   UNL     1      -1.190  11.367  20.060  0.00  0.00    +0.000 A 
ATOM     17  C   UNL     1      -2.369  12.108  19.839  0.00  0.00    +0.000 A 
ATOM     18  N   UNL     1      -2.873  12.634  20.960  0.00  0.00    +0.000 NA
ATOM     19  N   UNL     1      -1.995  12.239  21.919  0.00  0.00    +0.000 N 
ATOM     20  C   UNL     1      -0.284  10.616  19.290  0.00  0.00    +0.000 A 
BRANCH  19  21
ATOM     21  C   UNL     1      -2.184  12.673  23.300  0.00  0.00    +0.000 C 
ATOM     22  C   UNL     1      -1.386  13.944  23.598  0.00  0.00    +0.000 C 
ATOM     23  C   UNL     1      -3.662  12.881  23.642  0.00  0.00    +0.000 C 
ENDBRANCH  19  21
ENDBRANCH  10  12
ENDBRANCH   5   8
BRANCH   7  24
ATOM     24  S   UNL     1       6.028   4.553  18.766  0.00  0.00    +0.000 S 
ATOM     25  O   UNL     1       7.207   4.584  17.928  0.00  0.00    +0.000 OA
ATOM     26  O   UNL     1       6.121   4.885  20.164  0.00  0.00    +0.000 OA
BRANCH  24  27
ATOM     27  N   UNL     1       5.411   2.973  18.653  0.00  0.00    +0.000 NA
ATOM     28  H   UNL     1       5.576   2.512  19.554  0.00  0.00    +0.000 HD
BRANCH  27  29
ATOM     29  C   UNL     1       4.024   2.850  18.166  0.00  0.00    +0.000 C 
BRANCH  29  30
ATOM     30  C   UNL     1       2.932   2.838  19.229  0.00  0.00    +0.000 A 
ATOM     31  C   UNL     1       3.283   2.548  20.566  0.00  0.00    +0.000 A 
ATOM     32  C   UNL     1       2.350   2.637  21.606  0.00  0.00    +0.000 A 
ATOM     33  C   UNL     1       1.040   3.016  21.329  0.00  0.00    +0.000 A 
ATOM     34  C   UNL     1       0.673   3.298  20.012  0.00  0.00    +0.000 A 
ATOM     35  C   UNL     1       1.608   3.213  18.971  0.00  0.00    +0.000 A 
ENDBRANCH  29  30
ENDBRANCH  27  29
ENDBRANCH  24  27
ENDBRANCH   7  24
TORSDOF 7
ENDMDL
MODEL 9
REMARK VINA RESULT:      -8.4      2.541      3.461
REMARK  Name = 
REMARK  10 active torsions:
REMARK  status: ('A' for Active; 'I' for Inactive)
REMARK    1  A    between atoms: C_1  and  C_2
REMARK    2  A    between atoms: C_5  and  C_6
REMARK    3  A    between atoms: N_8  and  C_9
REMARK    4  A    between atoms: N_16  and  C_17
REMARK    5  A    between atoms: C_17  and  C_18
REMARK    6  A    between atoms: C_17  and  C_19
REMARK    7  A    between atoms: C_22  and  S_23
REMARK    8  A    between atoms: S_23  and  N_26
REMARK    9  A    between atoms: N_26  and  C_27
REMARK   10  A    between atoms: C_27  and  C_28
REMARK                            x       y       z     vdW  Elec       q    Type
REMARK                         _______ _______ _______ _____ _____    ______ ____
ROOT
ATOM      1  C   UNL     1       2.703   2.560  20.503  0.00  0.00    +0.000 C 
ATOM      2  C   UNL     1       2.561   4.017  20.162  0.00  0.00    +0.000 A 
ATOM      3  C   UNL     1       2.004   4.885  21.131  0.00  0.00    +0.000 A 
ATOM      4  C   UNL     1       1.781   6.244  20.854  0.00  0.00    +0.000 A 
ATOM      5  C   UNL     1       2.107   6.761  19.602  0.00  0.00    +0.000 A 
ATOM      6  C   UNL     1       2.699   5.920  18.647  0.00  0.00    +0.000 A 
ATOM      7  C   UNL     1       2.917   4.554  18.909  0.00  0.00    +0.000 A 
ENDROOT
BRANCH   5   8
ATOM      8  C   UNL     1       1.826   8.199  19.279  0.00  0.00    +0.000 C 
ATOM      9  O   UNL     1       2.230   8.656  18.218  0.00  0.00    +0.000 OA
ATOM     10  N   UNL     1       1.157   8.904  20.270  0.00  0.00    +0.000 N 
ATOM     11  H   UNL     1       1.091   8.471  21.183  0.00  0.00    +0.000 HD
BRANCH  10  12
ATOM     12  C   UNL     1       0.708  10.247  20.194  0.00  0.00    +0.000 A 
ATOM     13  C   UNL     1       1.540  11.365  20.094  0.00  0.00    +0.000 A 
ATOM     14  N   UNL     1       1.141  12.670  20.043  0.00  0.00    +0.000 NA
ATOM     15  C   UNL     1      -0.198  12.816  20.131  0.00  0.00    +0.000 A 
ATOM     16  C   UNL     1      -1.135  11.795  20.217  0.00  0.00    +0.000 A 
ATOM     17  C   UNL     1      -2.376  12.461  20.301  0.00  0.00    +0.000 A 
ATOM     18  N   UNL     1      -2.257  13.792  20.273  0.00  0.00    +0.000 NA
ATOM     19  N   UNL     1      -0.918  13.989  20.154  0.00  0.00    +0.000 N 
ATOM     20  C   UNL     1      -0.676  10.466  20.216  0.00  0.00    +0.000 A 
BRANCH  19  21
ATOM     21  C   UNL     1      -0.391  15.345  20.037  0.00  0.00    +0.000 C 
ATOM     22  C   UNL     1       0.007  15.665  18.595  0.00  0.00    +0.000 C 
ATOM     23  C   UNL     1      -1.375  16.394  20.563  0.00  0.00    +0.000 C 
ENDBRANCH  19  21
ENDBRANCH  10  12
ENDBRANCH   5   8
BRANCH   7  24
ATOM     24  S   UNL     1       3.365   3.555  17.477  0.00  0.00    +0.000 S 
ATOM     25  O   UNL     1       4.299   2.553  17.943  0.00  0.00    +0.000 OA
ATOM     26  O   UNL     1       2.144   3.161  16.822  0.00  0.00    +0.000 OA
BRANCH  24  27
ATOM     27  N   UNL     1       4.231   4.542  16.398  0.00  0.00    +0.000 NA
ATOM     28  H   UNL     1       3.913   5.505  16.537  0.00  0.00    +0.000 HD
BRANCH  27  29
ATOM     29  C   UNL     1       5.699   4.390  16.415  0.00  0.00    +0.000 C 
BRANCH  29  30
ATOM     30  C   UNL     1       6.477   5.429  17.216  0.00  0.00    +0.000 A 
ATOM     31  C   UNL     1       7.166   5.018  18.378  0.00  0.00    +0.000 A 
ATOM     32  C   UNL     1       7.993   5.896  19.090  0.00  0.00    +0.000 A 
ATOM     33  C   UNL     1       8.144   7.209  18.654  0.00  0.00    +0.000 A 
ATOM     34  C   UNL     1       7.464   7.634  17.512  0.00  0.00    +0.000 A 
ATOM     35  C   UNL     1       6.640   6.754  16.797  0.00  0.00    +0.000 A 
ENDBRANCH  29  30
ENDBRANCH  27  29
ENDBRANCH  24  27
ENDBRANCH   7  24
TORSDOF 7
ENDMDL
