MODEL 1
REMARK VINA RESULT:      -8.9      0.000      0.000
REMARK  Name = 
REMARK  4 active torsions:
REMARK  status: ('A' for Active; 'I' for Inactive)
REMARK    1  A    between atoms: N_4  and  C_5
REMARK    2  A    between atoms: C_9  and  N_10
REMARK    3  A    between atoms: C_11  and  C_13
REMARK    4  A    between atoms: C_15  and  C_16
REMARK                            x       y       z     vdW  Elec       q    Type
REMARK                         _______ _______ _______ _____ _____    ______ ____
ROOT
ATOM      1  N   UNL     1       1.794   6.432  20.753  0.00  0.00    +0.000 N 
ATOM      2  C   UNL     1       1.776   7.704  20.190  0.00  0.00    +0.000 C 
ATOM      3  O   UNL     1       2.167   7.984  19.061  0.00  0.00    +0.000 OA
ATOM      4  H   UNL     1       1.340   6.336  21.655  0.00  0.00    +0.000 HD
ENDROOT
BRANCH   1   9
ATOM      5  C   UNL     1       4.203   3.991  19.303  0.00  0.00    +0.000 A 
ATOM      6  C   UNL     1       3.356   2.914  19.037  0.00  0.00    +0.000 A 
ATOM      7  C   UNL     1       1.990   3.013  19.281  0.00  0.00    +0.000 A 
ATOM      8  C   UNL     1       1.458   4.179  19.819  0.00  0.00    +0.000 A 
ATOM      9  C   UNL     1       2.286   5.253  20.150  0.00  0.00    +0.000 A 
ATOM     10  C   UNL     1       3.662   5.160  19.869  0.00  0.00    +0.000 A 
BRANCH   5  14
ATOM     11  N   UNL     1       7.568   4.345  17.983  0.00  0.00    +0.000 N 
ATOM     12  C   UNL     1       6.241   4.649  18.048  0.00  0.00    +0.000 C 
ATOM     13  O   UNL     1       5.789   5.494  17.289  0.00  0.00    +0.000 OA
ATOM     14  N   UNL     1       5.588   3.941  19.027  0.00  0.00    +0.000 N 
ATOM     15  H   UNL     1       8.014   4.823  17.207  0.00  0.00    +0.000 HD
ATOM     16  H   UNL     1       7.813   3.369  18.048  0.00  0.00    +0.000 HD
ATOM     17  H   UNL     1       6.188   3.509  19.714  0.00  0.00    +0.000 HD
ENDBRANCH   5  14
ENDBRANCH   1   9
BRANCH   2  18
ATOM     18  C   UNL     1       1.208   8.721  21.043  0.00  0.00    +0.000 A 
ATOM     19  C   UNL     1       0.310   9.733  20.788  0.00  0.00    +0.000 A 
ATOM     20  C   UNL     1       0.150  10.402  22.027  0.00  0.00    +0.000 A 
ATOM     21  N   UNL     1       0.911   9.817  22.966  0.00  0.00    +0.000 NA
ATOM     22  O   UNL     1       1.563   8.772  22.353  0.00  0.00    +0.000 OA
BRANCH  20  23
ATOM     23  C   UNL     1      -0.680  11.565  22.340  0.00  0.00    +0.000 A 
ATOM     24  C   UNL     1      -0.357  12.854  21.862  0.00  0.00    +0.000 A 
ATOM     25  C   UNL     1      -1.178  13.953  22.153  0.00  0.00    +0.000 A 
ATOM     26  C   UNL     1      -2.309  13.740  22.916  0.00  0.00    +0.000 A 
ATOM     27  C   UNL     1      -2.636  12.487  23.392  0.00  0.00    +0.000 A 
ATOM     28  C   UNL     1      -1.834  11.391  23.123  0.00  0.00    +0.000 A 
ATOM     29  C   UNL     1      -3.886  12.548  24.172  0.00  0.00    +0.000 C 
ATOM     30  C   UNL     1      -4.246  14.024  23.985  0.00  0.00    +0.000 C 
ATOM     31  O   UNL     1      -3.194  14.717  23.271  0.00  0.00    +0.000 OA
ENDBRANCH  20  23
ENDBRANCH   2  18
TORSDOF 4
ENDMDL
MODEL 2
REMARK VINA RESULT:      -8.5      1.923      2.211
REMARK  Name = 
REMARK  4 active torsions:
REMARK  status: ('A' for Active; 'I' for Inactive)
REMARK    1  A    between atoms: N_4  and  C_5
REMARK    2  A    between atoms: C_9  and  N_10
REMARK    3  A    between atoms: C_11  and  C_13
REMARK    4  A    between atoms: C_15  and  C_16
REMARK                            x       y       z     vdW  Elec       q    Type
REMARK                         _______ _______ _______ _____ _____    ______ ____
ROOT
ATOM      1  N   UNL     1       2.141   6.853  18.686  0.00  0.00    +0.000 N 
ATOM      2  C   UNL     1       2.312   8.082  18.056  0.00  0.00    +0.000 C 
ATOM      3  O   UNL     1       2.968   8.269  17.036  0.00  0.00    +0.000 OA
ATOM      4  H   UNL     1       1.485   6.834  19.459  0.00  0.00    +0.000 HD
ENDROOT
BRANCH   1   9
ATOM      5  C   UNL     1       4.697   4.207  18.112  0.00  0.00    +0.000 A 
ATOM      6  C   UNL     1       3.898   3.174  17.619  0.00  0.00    +0.000 A 
ATOM      7  C   UNL     1       2.534   3.368  17.423  0.00  0.00    +0.000 A 
ATOM      8  C   UNL     1       1.948   4.587  17.743  0.00  0.00    +0.000 A 
ATOM      9  C   UNL     1       2.708   5.621  18.292  0.00  0.00    +0.000 A 
ATOM     10  C   UNL     1       4.093   5.430  18.456  0.00  0.00    +0.000 A 
BRANCH   5  14
ATOM     11  N   UNL     1       8.319   4.223  17.854  0.00  0.00    +0.000 N 
ATOM     12  C   UNL     1       7.064   4.590  17.471  0.00  0.00    +0.000 C 
ATOM     13  O   UNL     1       6.931   5.335  16.511  0.00  0.00    +0.000 OA
ATOM     14  N   UNL     1       6.092   4.058  18.282  0.00  0.00    +0.000 N 
ATOM     15  H   UNL     1       9.014   4.566  17.199  0.00  0.00    +0.000 HD
ATOM     16  H   UNL     1       8.451   3.257  18.112  0.00  0.00    +0.000 HD
ATOM     17  H   UNL     1       6.421   3.705  19.169  0.00  0.00    +0.000 HD
ENDBRANCH   5  14
ENDBRANCH   1   9
BRANCH   2  18
ATOM     18  C   UNL     1       1.605   9.172  18.684  0.00  0.00    +0.000 A 
ATOM     19  C   UNL     1       0.687   9.198  19.710  0.00  0.00    +0.000 A 
ATOM     20  C   UNL     1       0.351  10.566  19.868  0.00  0.00    +0.000 A 
ATOM     21  N   UNL     1       1.035  11.311  18.984  0.00  0.00    +0.000 NA
ATOM     22  O   UNL     1       1.815  10.443  18.254  0.00  0.00    +0.000 OA
BRANCH  20  23
ATOM     23  C   UNL     1      -0.589  11.177  20.807  0.00  0.00    +0.000 A 
ATOM     24  C   UNL     1      -0.463  10.996  22.203  0.00  0.00    +0.000 A 
ATOM     25  C   UNL     1      -1.360  11.610  23.089  0.00  0.00    +0.000 A 
ATOM     26  C   UNL     1      -2.364  12.397  22.561  0.00  0.00    +0.000 A 
ATOM     27  C   UNL     1      -2.500  12.582  21.200  0.00  0.00    +0.000 A 
ATOM     28  C   UNL     1      -1.631  11.977  20.309  0.00  0.00    +0.000 A 
ATOM     29  C   UNL     1      -3.649  13.463  20.917  0.00  0.00    +0.000 C 
ATOM     30  C   UNL     1      -4.081  13.805  22.345  0.00  0.00    +0.000 C 
ATOM     31  O   UNL     1      -3.301  13.054  23.306  0.00  0.00    +0.000 OA
ENDBRANCH  20  23
ENDBRANCH   2  18
TORSDOF 4
ENDMDL
MODEL 3
REMARK VINA RESULT:      -8.5      6.909      9.451
REMARK  Name = 
REMARK  4 active torsions:
REMARK  status: ('A' for Active; 'I' for Inactive)
REMARK    1  A    between atoms: N_4  and  C_5
REMARK    2  A    between atoms: C_9  and  N_10
REMARK    3  A    between atoms: C_11  and  C_13
REMARK    4  A    between atoms: C_15  and  C_16
REMARK                            x       y       z     vdW  Elec       q    Type
REMARK                         _______ _______ _______ _____ _____    ______ ____
ROOT
ATOM      1  N   UNL     1       6.278   6.611  18.273  0.00  0.00    +0.000 N 
ATOM      2  C   UNL     1       7.271   7.063  17.410  0.00  0.00    +0.000 C 
ATOM      3  O   UNL     1       7.550   6.560  16.326  0.00  0.00    +0.000 OA
ATOM      4  H   UNL     1       6.091   7.192  19.082  0.00  0.00    +0.000 HD
ENDROOT
BRANCH   1   9
ATOM      5  C   UNL     1       4.005   3.768  19.056  0.00  0.00    +0.000 A 
ATOM      6  C   UNL     1       3.702   3.313  17.771  0.00  0.00    +0.000 A 
ATOM      7  C   UNL     1       4.290   3.903  16.657  0.00  0.00    +0.000 A 
ATOM      8  C   UNL     1       5.164   4.973  16.811  0.00  0.00    +0.000 A 
ATOM      9  C   UNL     1       5.442   5.489  18.077  0.00  0.00    +0.000 A 
ATOM     10  C   UNL     1       4.873   4.865  19.203  0.00  0.00    +0.000 A 
BRANCH   5  14
ATOM     11  N   UNL     1       2.145   2.868  22.043  0.00  0.00    +0.000 N 
ATOM     12  C   UNL     1       2.401   3.634  20.945  0.00  0.00    +0.000 C 
ATOM     13  O   UNL     1       1.686   4.599  20.717  0.00  0.00    +0.000 OA
ATOM     14  N   UNL     1       3.461   3.163  20.212  0.00  0.00    +0.000 N 
ATOM     15  H   UNL     1       1.407   3.275  22.608  0.00  0.00    +0.000 HD
ATOM     16  H   UNL     1       2.943   2.565  22.580  0.00  0.00    +0.000 HD
ATOM     17  H   UNL     1       3.733   2.212  20.415  0.00  0.00    +0.000 HD
ENDBRANCH   5  14
ENDBRANCH   1   9
BRANCH   2  18
ATOM     18  C   UNL     1       7.964   8.242  17.871  0.00  0.00    +0.000 A 
ATOM     19  C   UNL     1       8.102   9.498  17.323  0.00  0.00    +0.000 A 
ATOM     20  C   UNL     1       8.903  10.215  18.245  0.00  0.00    +0.000 A 
ATOM     21  N   UNL     1       9.222   9.428  19.285  0.00  0.00    +0.000 NA
ATOM     22  O   UNL     1       8.634   8.206  19.052  0.00  0.00    +0.000 OA
BRANCH  20  23
ATOM     23  C   UNL     1       9.376  11.597  18.167  0.00  0.00    +0.000 A 
ATOM     24  C   UNL     1       8.637  12.665  18.724  0.00  0.00    +0.000 A 
ATOM     25  C   UNL     1       9.119  13.980  18.661  0.00  0.00    +0.000 A 
ATOM     26  C   UNL     1      10.334  14.201  18.044  0.00  0.00    +0.000 A 
ATOM     27  C   UNL     1      11.067  13.169  17.494  0.00  0.00    +0.000 A 
ATOM     28  C   UNL     1      10.604  11.866  17.538  0.00  0.00    +0.000 A 
ATOM     29  C   UNL     1      12.315  13.687  16.904  0.00  0.00    +0.000 C 
ATOM     30  C   UNL     1      12.199  15.165  17.287  0.00  0.00    +0.000 C 
ATOM     31  O   UNL     1      10.921  15.428  17.915  0.00  0.00    +0.000 OA
ENDBRANCH  20  23
ENDBRANCH   2  18
TORSDOF 4
ENDMDL
MODEL 4
REMARK VINA RESULT:      -8.4      0.842      1.510
REMARK  Name = 
REMARK  4 active torsions:
REMARK  status: ('A' for Active; 'I' for Inactive)
REMARK    1  A    between atoms: N_4  and  C_5
REMARK    2  A    between atoms: C_9  and  N_10
REMARK    3  A    between atoms: C_11  and  C_13
REMARK    4  A    between atoms: C_15  and  C_16
REMARK                            x       y       z     vdW  Elec       q    Type
REMARK                         _______ _______ _______ _____ _____    ______ ____
ROOT
ATOM      1  N   UNL     1       2.040   6.376  20.137  0.00  0.00    +0.000 N 
ATOM      2  C   UNL     1       1.969   7.679  19.653  0.00  0.00    +0.000 C 
ATOM      3  O   UNL     1       2.362   8.046  18.550  0.00  0.00    +0.000 OA
ATOM      4  H   UNL     1       1.578   6.203  21.023  0.00  0.00    +0.000 HD
ENDROOT
BRANCH   1   9
ATOM      5  C   UNL     1       4.600   4.053  18.754  0.00  0.00    +0.000 A 
ATOM      6  C   UNL     1       3.785   3.039  18.247  0.00  0.00    +0.000 A 
ATOM      7  C   UNL     1       2.400   3.148  18.309  0.00  0.00    +0.000 A 
ATOM      8  C   UNL     1       1.811   4.258  18.904  0.00  0.00    +0.000 A 
ATOM      9  C   UNL     1       2.597   5.262  19.472  0.00  0.00    +0.000 A 
ATOM     10  C   UNL     1       3.998   5.163  19.375  0.00  0.00    +0.000 A 
BRANCH   5  14
ATOM     11  N   UNL     1       8.106   4.283  17.837  0.00  0.00    +0.000 N 
ATOM     12  C   UNL     1       6.780   4.560  17.684  0.00  0.00    +0.000 C 
ATOM     13  O   UNL     1       6.427   5.267  16.751  0.00  0.00    +0.000 OA
ATOM     14  N   UNL     1       6.009   3.995  18.669  0.00  0.00    +0.000 N 
ATOM     15  H   UNL     1       8.647   4.647  17.060  0.00  0.00    +0.000 HD
ATOM     16  H   UNL     1       8.345   3.335  18.084  0.00  0.00    +0.000 HD
ATOM     17  H   UNL     1       6.516   3.689  19.486  0.00  0.00    +0.000 HD
ENDBRANCH   5  14
ENDBRANCH   1   9
BRANCH   2  18
ATOM     18  C   UNL     1       1.339   8.612  20.556  0.00  0.00    +0.000 A 
ATOM     19  C   UNL     1       0.397   9.595  20.348  0.00  0.00    +0.000 A 
ATOM     20  C   UNL     1       0.186  10.177  21.622  0.00  0.00    +0.000 A 
ATOM     21  N   UNL     1       0.960   9.571  22.538  0.00  0.00    +0.000 NA
ATOM     22  O   UNL     1       1.671   8.598  21.873  0.00  0.00    +0.000 OA
BRANCH  20  23
ATOM     23  C   UNL     1      -0.704  11.278  21.992  0.00  0.00    +0.000 A 
ATOM     24  C   UNL     1      -1.534  11.207  23.132  0.00  0.00    +0.000 A 
ATOM     25  C   UNL     1      -2.362  12.282  23.484  0.00  0.00    +0.000 A 
ATOM     26  C   UNL     1      -2.341  13.410  22.689  0.00  0.00    +0.000 A 
ATOM     27  C   UNL     1      -1.536  13.493  21.571  0.00  0.00    +0.000 A 
ATOM     28  C   UNL     1      -0.719  12.440  21.202  0.00  0.00    +0.000 A 
ATOM     29  C   UNL     1      -1.712  14.802  20.912  0.00  0.00    +0.000 C 
ATOM     30  C   UNL     1      -2.684  15.465  21.891  0.00  0.00    +0.000 C 
ATOM     31  O   UNL     1      -3.092  14.528  22.916  0.00  0.00    +0.000 OA
ENDBRANCH  20  23
ENDBRANCH   2  18
TORSDOF 4
ENDMDL
MODEL 5
REMARK VINA RESULT:      -8.4      2.776      3.909
REMARK  Name = 
REMARK  4 active torsions:
REMARK  status: ('A' for Active; 'I' for Inactive)
REMARK    1  A    between atoms: N_4  and  C_5
REMARK    2  A    between atoms: C_9  and  N_10
REMARK    3  A    between atoms: C_11  and  C_13
REMARK    4  A    between atoms: C_15  and  C_16
REMARK                            x       y       z     vdW  Elec       q    Type
REMARK                         _______ _______ _______ _____ _____    ______ ____
ROOT
ATOM      1  N   UNL     1       4.324   7.105  17.605  0.00  0.00    +0.000 N 
ATOM      2  C   UNL     1       3.211   6.908  18.417  0.00  0.00    +0.000 C 
ATOM      3  O   UNL     1       2.971   5.887  19.054  0.00  0.00    +0.000 OA
ATOM      4  H   UNL     1       4.441   8.038  17.227  0.00  0.00    +0.000 HD
ENDROOT
BRANCH   1   9
ATOM      5  C   UNL     1       6.306   4.491  15.844  0.00  0.00    +0.000 A 
ATOM      6  C   UNL     1       7.392   4.358  16.711  0.00  0.00    +0.000 A 
ATOM      7  C   UNL     1       7.442   5.083  17.897  0.00  0.00    +0.000 A 
ATOM      8  C   UNL     1       6.421   5.971  18.218  0.00  0.00    +0.000 A 
ATOM      9  C   UNL     1       5.350   6.170  17.346  0.00  0.00    +0.000 A 
ATOM     10  C   UNL     1       5.288   5.408  16.164  0.00  0.00    +0.000 A 
BRANCH   5  14
ATOM     11  N   UNL     1       6.378   3.198  12.452  0.00  0.00    +0.000 N 
ATOM     12  C   UNL     1       6.686   4.103  13.423  0.00  0.00    +0.000 C 
ATOM     13  O   UNL     1       7.348   5.087  13.127  0.00  0.00    +0.000 OA
ATOM     14  N   UNL     1       6.201   3.737  14.654  0.00  0.00    +0.000 N 
ATOM     15  H   UNL     1       6.682   3.524  11.540  0.00  0.00    +0.000 HD
ATOM     16  H   UNL     1       5.439   2.830  12.455  0.00  0.00    +0.000 HD
ATOM     17  H   UNL     1       5.927   2.768  14.735  0.00  0.00    +0.000 HD
ENDBRANCH   5  14
ENDBRANCH   1   9
BRANCH   2  18
ATOM     18  C   UNL     1       2.329   8.048  18.498  0.00  0.00    +0.000 A 
ATOM     19  C   UNL     1       1.503   8.498  19.504  0.00  0.00    +0.000 A 
ATOM     20  C   UNL     1       0.888   9.662  18.981  0.00  0.00    +0.000 A 
ATOM     21  N   UNL     1       1.326   9.891  17.733  0.00  0.00    +0.000 NA
ATOM     22  O   UNL     1       2.223   8.890  17.438  0.00  0.00    +0.000 OA
BRANCH  20  23
ATOM     23  C   UNL     1      -0.093  10.543  19.614  0.00  0.00    +0.000 A 
ATOM     24  C   UNL     1      -0.985  11.327  18.848  0.00  0.00    +0.000 A 
ATOM     25  C   UNL     1      -1.935  12.148  19.472  0.00  0.00    +0.000 A 
ATOM     26  C   UNL     1      -1.977  12.166  20.852  0.00  0.00    +0.000 A 
ATOM     27  C   UNL     1      -1.111  11.407  21.613  0.00  0.00    +0.000 A 
ATOM     28  C   UNL     1      -0.160  10.598  21.016  0.00  0.00    +0.000 A 
ATOM     29  C   UNL     1      -1.376  11.618  23.049  0.00  0.00    +0.000 C 
ATOM     30  C   UNL     1      -2.583  12.555  22.964  0.00  0.00    +0.000 C 
ATOM     31  O   UNL     1      -2.851  12.915  21.587  0.00  0.00    +0.000 OA
ENDBRANCH  20  23
ENDBRANCH   2  18
TORSDOF 4
ENDMDL
MODEL 6
REMARK VINA RESULT:      -8.4      2.455      3.796
REMARK  Name = 
REMARK  4 active torsions:
REMARK  status: ('A' for Active; 'I' for Inactive)
REMARK    1  A    between atoms: N_4  and  C_5
REMARK    2  A    between atoms: C_9  and  N_10
REMARK    3  A    between atoms: C_11  and  C_13
REMARK    4  A    between atoms: C_15  and  C_16
REMARK                            x       y       z     vdW  Elec       q    Type
REMARK                         _______ _______ _______ _____ _____    ______ ____
ROOT
ATOM      1  N   UNL     1       4.422   6.775  18.227  0.00  0.00    +0.000 N 
ATOM      2  C   UNL     1       3.190   6.384  18.742  0.00  0.00    +0.000 C 
ATOM      3  O   UNL     1       2.833   5.224  18.919  0.00  0.00    +0.000 OA
ATOM      4  H   UNL     1       4.616   7.770  18.238  0.00  0.00    +0.000 HD
ENDROOT
BRANCH   1   9
ATOM      5  C   UNL     1       6.322   4.395  16.085  0.00  0.00    +0.000 A 
ATOM      6  C   UNL     1       7.508   4.278  16.813  0.00  0.00    +0.000 A 
ATOM      7  C   UNL     1       7.657   4.934  18.030  0.00  0.00    +0.000 A 
ATOM      8  C   UNL     1       6.635   5.737  18.522  0.00  0.00    +0.000 A 
ATOM      9  C   UNL     1       5.460   5.921  17.792  0.00  0.00    +0.000 A 
ATOM     10  C   UNL     1       5.301   5.227  16.577  0.00  0.00    +0.000 A 
BRANCH   5  14
ATOM     11  N   UNL     1       6.154   3.273  12.635  0.00  0.00    +0.000 N 
ATOM     12  C   UNL     1       6.554   4.115  13.630  0.00  0.00    +0.000 C 
ATOM     13  O   UNL     1       7.243   5.084  13.345  0.00  0.00    +0.000 OA
ATOM     14  N   UNL     1       6.120   3.707  14.867  0.00  0.00    +0.000 N 
ATOM     15  H   UNL     1       6.422   3.633  11.725  0.00  0.00    +0.000 HD
ATOM     16  H   UNL     1       5.201   2.946  12.674  0.00  0.00    +0.000 HD
ATOM     17  H   UNL     1       5.808   2.748  14.917  0.00  0.00    +0.000 HD
ENDBRANCH   5  14
ENDBRANCH   1   9
BRANCH   2  18
ATOM     18  C   UNL     1       2.327   7.482  19.108  0.00  0.00    +0.000 A 
ATOM     19  C   UNL     1       1.726   7.816  20.301  0.00  0.00    +0.000 A 
ATOM     20  C   UNL     1       0.996   8.998  20.025  0.00  0.00    +0.000 A 
ATOM     21  N   UNL     1       1.156   9.347  18.738  0.00  0.00    +0.000 NA
ATOM     22  O   UNL     1       1.985   8.406  18.173  0.00  0.00    +0.000 OA
BRANCH  20  23
ATOM     23  C   UNL     1       0.157   9.789  20.926  0.00  0.00    +0.000 A 
ATOM     24  C   UNL     1       0.009   9.448  22.289  0.00  0.00    +0.000 A 
ATOM     25  C   UNL     1      -0.781  10.232  23.142  0.00  0.00    +0.000 A 
ATOM     26  C   UNL     1      -1.405  11.345  22.615  0.00  0.00    +0.000 A 
ATOM     27  C   UNL     1      -1.271  11.690  21.286  0.00  0.00    +0.000 A 
ATOM     28  C   UNL     1      -0.504  10.924  20.426  0.00  0.00    +0.000 A 
ATOM     29  C   UNL     1      -2.040  12.915  20.996  0.00  0.00    +0.000 C 
ATOM     30  C   UNL     1      -2.558  13.243  22.399  0.00  0.00    +0.000 C 
ATOM     31  O   UNL     1      -2.198  12.195  23.331  0.00  0.00    +0.000 OA
ENDBRANCH  20  23
ENDBRANCH   2  18
TORSDOF 4
ENDMDL
MODEL 7
REMARK VINA RESULT:      -8.4      7.988      9.524
REMARK  Name = 
REMARK  4 active torsions:
REMARK  status: ('A' for Active; 'I' for Inactive)
REMARK    1  A    between atoms: N_4  and  C_5
REMARK    2  A    between atoms: C_9  and  N_10
REMARK    3  A    between atoms: C_11  and  C_13
REMARK    4  A    between atoms: C_15  and  C_16
REMARK                            x       y       z     vdW  Elec       q    Type
REMARK                         _______ _______ _______ _____ _____    ______ ____
ROOT
ATOM      1  N   UNL     1       6.859   7.533  17.077  0.00  0.00    +0.000 N 
ATOM      2  C   UNL     1       7.810   7.605  18.090  0.00  0.00    +0.000 C 
ATOM      3  O   UNL     1       8.204   6.655  18.760  0.00  0.00    +0.000 OA
ATOM      4  H   UNL     1       6.713   8.381  16.540  0.00  0.00    +0.000 HD
ENDROOT
BRANCH   1   9
ATOM      5  C   UNL     1       6.027   4.455  15.155  0.00  0.00    +0.000 A 
ATOM      6  C   UNL     1       4.884   4.025  15.832  0.00  0.00    +0.000 A 
ATOM      7  C   UNL     1       4.359   4.776  16.878  0.00  0.00    +0.000 A 
ATOM      8  C   UNL     1       4.984   5.951  17.279  0.00  0.00    +0.000 A 
ATOM      9  C   UNL     1       6.160   6.378  16.661  0.00  0.00    +0.000 A 
ATOM     10  C   UNL     1       6.668   5.633  15.581  0.00  0.00    +0.000 A 
BRANCH   5  14
ATOM     11  N   UNL     1       6.665   2.705  12.037  0.00  0.00    +0.000 N 
ATOM     12  C   UNL     1       5.913   3.466  12.881  0.00  0.00    +0.000 C 
ATOM     13  O   UNL     1       4.804   3.832  12.519  0.00  0.00    +0.000 OA
ATOM     14  N   UNL     1       6.562   3.740  14.060  0.00  0.00    +0.000 N 
ATOM     15  H   UNL     1       6.139   2.453  11.207  0.00  0.00    +0.000 HD
ATOM     16  H   UNL     1       7.164   1.930  12.448  0.00  0.00    +0.000 HD
ATOM     17  H   UNL     1       7.559   3.582  14.046  0.00  0.00    +0.000 HD
ENDBRANCH   5  14
ENDBRANCH   1   9
BRANCH   2  18
ATOM     18  C   UNL     1       8.361   8.924  18.292  0.00  0.00    +0.000 A 
ATOM     19  C   UNL     1       8.159  10.112  17.627  0.00  0.00    +0.000 A 
ATOM     20  C   UNL     1       8.990  11.050  18.290  0.00  0.00    +0.000 A 
ATOM     21  N   UNL     1       9.648  10.449  19.294  0.00  0.00    +0.000 NA
ATOM     22  O   UNL     1       9.253   9.131  19.295  0.00  0.00    +0.000 OA
BRANCH  20  23
ATOM     23  C   UNL     1       9.184  12.470  17.999  0.00  0.00    +0.000 A 
ATOM     24  C   UNL     1       8.108  13.385  18.032  0.00  0.00    +0.000 A 
ATOM     25  C   UNL     1       8.318  14.748  17.774  0.00  0.00    +0.000 A 
ATOM     26  C   UNL     1       9.602  15.168  17.491  0.00  0.00    +0.000 A 
ATOM     27  C   UNL     1      10.662  14.285  17.454  0.00  0.00    +0.000 A 
ATOM     28  C   UNL     1      10.474  12.936  17.696  0.00  0.00    +0.000 A 
ATOM     29  C   UNL     1      11.911  15.001  17.129  0.00  0.00    +0.000 C 
ATOM     30  C   UNL     1      11.388  16.439  17.073  0.00  0.00    +0.000 C 
ATOM     31  O   UNL     1       9.948  16.462  17.224  0.00  0.00    +0.000 OA
ENDBRANCH  20  23
ENDBRANCH   2  18
TORSDOF 4
ENDMDL
MODEL 8
REMARK VINA RESULT:      -8.4      2.695     10.687
REMARK  Name = 
REMARK  4 active torsions:
REMARK  status: ('A' for Active; 'I' for Inactive)
REMARK    1  A    between atoms: N_4  and  C_5
REMARK    2  A    between atoms: C_9  and  N_10
REMARK    3  A    between atoms: C_11  and  C_13
REMARK    4  A    between atoms: C_15  and  C_16
REMARK                            x       y       z     vdW  Elec       q    Type
REMARK                         _______ _______ _______ _____ _____    ______ ____
ROOT
ATOM      1  N   UNL     1      -0.739  11.381  21.893  0.00  0.00    +0.000 N 
ATOM      2  C   UNL     1      -0.012  10.297  22.377  0.00  0.00    +0.000 C 
ATOM      3  O   UNL     1       0.074   9.974  23.557  0.00  0.00    +0.000 OA
ATOM      4  H   UNL     1      -0.804  11.461  20.884  0.00  0.00    +0.000 HD
ENDROOT
BRANCH   1   9
ATOM      5  C   UNL     1      -3.567  12.889  23.788  0.00  0.00    +0.000 A 
ATOM      6  C   UNL     1      -2.970  14.060  24.260  0.00  0.00    +0.000 A 
ATOM      7  C   UNL     1      -1.663  14.378  23.907  0.00  0.00    +0.000 A 
ATOM      8  C   UNL     1      -0.926  13.517  23.102  0.00  0.00    +0.000 A 
ATOM      9  C   UNL     1      -1.473  12.311  22.662  0.00  0.00    +0.000 A 
ATOM     10  C   UNL     1      -2.807  12.011  22.993  0.00  0.00    +0.000 A 
BRANCH   5  14
ATOM     11  N   UNL     1      -7.178  12.670  24.106  0.00  0.00    +0.000 N 
ATOM     12  C   UNL     1      -6.024  13.170  23.581  0.00  0.00    +0.000 C 
ATOM     13  O   UNL     1      -6.091  14.050  22.736  0.00  0.00    +0.000 OA
ATOM     14  N   UNL     1      -4.906  12.556  24.090  0.00  0.00    +0.000 N 
ATOM     15  H   UNL     1      -7.984  13.187  23.772  0.00  0.00    +0.000 HD
ATOM     16  H   UNL     1      -7.189  12.506  25.101  0.00  0.00    +0.000 HD
ATOM     17  H   UNL     1      -5.077  11.679  24.561  0.00  0.00    +0.000 HD
ENDBRANCH   5  14
ENDBRANCH   1   9
BRANCH   2  18
ATOM     18  C   UNL     1       0.637   9.515  21.352  0.00  0.00    +0.000 A 
ATOM     19  C   UNL     1       1.203   8.260  21.378  0.00  0.00    +0.000 A 
ATOM     20  C   UNL     1       1.683   8.046  20.062  0.00  0.00    +0.000 A 
ATOM     21  N   UNL     1       1.415   9.117  19.297  0.00  0.00    +0.000 NA
ATOM     22  O   UNL     1       0.762  10.024  20.099  0.00  0.00    +0.000 OA
BRANCH  20  23
ATOM     23  C   UNL     1       2.385   6.884  19.520  0.00  0.00    +0.000 A 
ATOM     24  C   UNL     1       2.268   5.606  20.112  0.00  0.00    +0.000 A 
ATOM     25  C   UNL     1       2.930   4.499  19.563  0.00  0.00    +0.000 A 
ATOM     26  C   UNL     1       3.695   4.690  18.430  0.00  0.00    +0.000 A 
ATOM     27  C   UNL     1       3.819   5.932  17.841  0.00  0.00    +0.000 A 
ATOM     28  C   UNL     1       3.182   7.039  18.373  0.00  0.00    +0.000 A 
ATOM     29  C   UNL     1       4.689   5.848  16.652  0.00  0.00    +0.000 C 
ATOM     30  C   UNL     1       4.962   4.342  16.627  0.00  0.00    +0.000 C 
ATOM     31  O   UNL     1       4.388   3.701  17.792  0.00  0.00    +0.000 OA
ENDBRANCH  20  23
ENDBRANCH   2  18
TORSDOF 4
ENDMDL
MODEL 9
REMARK VINA RESULT:      -8.4      7.239      9.123
REMARK  Name = 
REMARK  4 active torsions:
REMARK  status: ('A' for Active; 'I' for Inactive)
REMARK    1  A    between atoms: N_4  and  C_5
REMARK    2  A    between atoms: C_9  and  N_10
REMARK    3  A    between atoms: C_11  and  C_13
REMARK    4  A    between atoms: C_15  and  C_16
REMARK                            x       y       z     vdW  Elec       q    Type
REMARK                         _______ _______ _______ _____ _____    ______ ____
ROOT
ATOM      1  N   UNL     1       5.500   5.990  18.275  0.00  0.00    +0.000 N 
ATOM      2  C   UNL     1       6.263   6.577  17.270  0.00  0.00    +0.000 C 
ATOM      3  O   UNL     1       6.163   6.331  16.072  0.00  0.00    +0.000 OA
ATOM      4  H   UNL     1       5.621   6.371  19.207  0.00  0.00    +0.000 HD
ENDROOT
BRANCH   1   9
ATOM      5  C   UNL     1       2.622   3.759  19.052  0.00  0.00    +0.000 A 
ATOM      6  C   UNL     1       2.456   3.110  17.827  0.00  0.00    +0.000 A 
ATOM      7  C   UNL     1       3.324   3.364  16.771  0.00  0.00    +0.000 A 
ATOM      8  C   UNL     1       4.351   4.291  16.915  0.00  0.00    +0.000 A 
ATOM      9  C   UNL     1       4.508   4.998  18.107  0.00  0.00    +0.000 A 
ATOM     10  C   UNL     1       3.649   4.712  19.184  0.00  0.00    +0.000 A 
BRANCH   5  14
ATOM     11  N   UNL     1       1.111   2.666  22.168  0.00  0.00    +0.000 N 
ATOM     12  C   UNL     1       2.151   2.822  21.302  0.00  0.00    +0.000 C 
ATOM     13  O   UNL     1       3.253   2.397  21.617  0.00  0.00    +0.000 OA
ATOM     14  N   UNL     1       1.787   3.492  20.160  0.00  0.00    +0.000 N 
ATOM     15  H   UNL     1       1.385   2.105  22.968  0.00  0.00    +0.000 HD
ATOM     16  H   UNL     1       0.226   2.393  21.770  0.00  0.00    +0.000 HD
ATOM     17  H   UNL     1       0.912   3.993  20.219  0.00  0.00    +0.000 HD
ENDBRANCH   5  14
ENDBRANCH   1   9
BRANCH   2  18
ATOM     18  C   UNL     1       7.201   7.567  17.740  0.00  0.00    +0.000 A 
ATOM     19  C   UNL     1       7.344   8.905  17.448  0.00  0.00    +0.000 A 
ATOM     20  C   UNL     1       8.451   9.334  18.221  0.00  0.00    +0.000 A 
ATOM     21  N   UNL     1       8.937   8.306  18.935  0.00  0.00    +0.000 NA
ATOM     22  O   UNL     1       8.157   7.212  18.637  0.00  0.00    +0.000 OA
BRANCH  20  23
ATOM     23  C   UNL     1       9.058  10.663  18.295  0.00  0.00    +0.000 A 
ATOM     24  C   UNL     1       8.452  11.788  17.693  0.00  0.00    +0.000 A 
ATOM     25  C   UNL     1       9.038  13.058  17.795  0.00  0.00    +0.000 A 
ATOM     26  C   UNL     1      10.218  13.178  18.502  0.00  0.00    +0.000 A 
ATOM     27  C   UNL     1      10.822  12.088  19.094  0.00  0.00    +0.000 A 
ATOM     28  C   UNL     1      10.265  10.825  18.996  0.00  0.00    +0.000 A 
ATOM     29  C   UNL     1      12.062  12.502  19.778  0.00  0.00    +0.000 C 
ATOM     30  C   UNL     1      12.007  14.013  19.541  0.00  0.00    +0.000 C 
ATOM     31  O   UNL     1      10.892  14.352  18.682  0.00  0.00    +0.000 OA
ENDBRANCH  20  23
ENDBRANCH   2  18
TORSDOF 4
ENDMDL
