MODEL 1
REMARK VINA RESULT:      -8.4      0.000      0.000
REMARK  Name = 
REMARK  5 active torsions:
REMARK  status: ('A' for Active; 'I' for Inactive)
REMARK    1  A    between atoms: C_1  and  N_2
REMARK    2  A    between atoms: C_6  and  C_7
REMARK    3  A    between atoms: C_11  and  N_12
REMARK    4  A    between atoms: C_13  and  C_15
REMARK    5  A    between atoms: N_22  and  C_23
REMARK                            x       y       z     vdW  Elec       q    Type
REMARK                         _______ _______ _______ _____ _____    ______ ____
ROOT
ATOM      1  N   UNL     1       1.928   6.111  19.674  0.00  0.00    +0.000 N 
ATOM      2  C   UNL     1       1.598   5.016  18.875  0.00  0.00    +0.000 C 
ATOM      3  O   UNL     1       1.131   5.075  17.739  0.00  0.00    +0.000 OA
ATOM      4  H   UNL     1       2.281   5.925  20.606  0.00  0.00    +0.000 HD
ENDROOT
BRANCH   2   5
ATOM      5  C   UNL     1       1.838   3.655  19.568  0.00  0.00    +0.000 C 
ATOM      6  C   UNL     1       1.026   3.648  20.873  0.00  0.00    +0.000 C 
ATOM      7  C   UNL     1       1.625   2.516  21.687  0.00  0.00    +0.000 C 
ATOM      8  C   UNL     1       3.076   2.455  21.243  0.00  0.00    +0.000 C 
ATOM      9  N   UNL     1       3.182   3.297  20.062  0.00  0.00    +0.000 N 
ATOM     10  C   UNL     1       4.387   3.261  19.386  0.00  0.00    +0.000 C 
ATOM     11  O   UNL     1       5.340   2.605  19.799  0.00  0.00    +0.000 OA
ATOM     12  N   UNL     1       4.454   4.032  18.259  0.00  0.00    +0.000 N 
ATOM     13  H   UNL     1       3.909   4.883  18.377  0.00  0.00    +0.000 HD
BRANCH  12  14
ATOM     14  C   UNL     1       5.715   4.255  17.538  0.00  0.00    +0.000 C 
ATOM     15  C   UNL     1       6.131   5.725  17.721  0.00  0.00    +0.000 C 
ATOM     16  C   UNL     1       7.358   6.122  16.901  0.00  0.00    +0.000 C 
ATOM     17  C   UNL     1       7.195   5.760  15.431  0.00  0.00    +0.000 C 
ATOM     18  C   UNL     1       6.875   4.281  15.269  0.00  0.00    +0.000 C 
ATOM     19  C   UNL     1       5.617   3.895  16.045  0.00  0.00    +0.000 C 
ENDBRANCH  12  14
ENDBRANCH   2   5
BRANCH   1  24
ATOM     20  C   UNL     1       1.004   9.723  19.933  0.00  0.00    +0.000 A 
ATOM     21  C   UNL     1       1.536  10.217  18.734  0.00  0.00    +0.000 A 
ATOM     22  C   UNL     1       2.153   9.362  17.831  0.00  0.00    +0.000 A 
ATOM     23  C   UNL     1       2.280   8.004  18.121  0.00  0.00    +0.000 A 
ATOM     24  C   UNL     1       1.812   7.482  19.327  0.00  0.00    +0.000 A 
ATOM     25  C   UNL     1       1.185   8.356  20.235  0.00  0.00    +0.000 A 
BRANCH  20  31
ATOM     26  C   UNL     1      -1.631  11.450  19.409  0.00  0.00    +0.000 C 
ATOM     27  N   UNL     1      -0.825  11.363  20.595  0.00  0.00    +0.000 N 
ATOM     28  N   UNL     1      -1.214  12.015  21.707  0.00  0.00    +0.000 NA
ATOM     29  N   UNL     1      -0.362  11.632  22.649  0.00  0.00    +0.000 NA
ATOM     30  N   UNL     1       0.554  10.745  22.150  0.00  0.00    +0.000 NA
ATOM     31  C   UNL     1       0.285  10.595  20.864  0.00  0.00    +0.000 A 
ENDBRANCH  20  31
ENDBRANCH   1  24
TORSDOF 4
ENDMDL
MODEL 2
REMARK VINA RESULT:      -8.3      5.055      8.995
REMARK  Name = 
REMARK  5 active torsions:
REMARK  status: ('A' for Active; 'I' for Inactive)
REMARK    1  A    between atoms: C_1  and  N_2
REMARK    2  A    between atoms: C_6  and  C_7
REMARK    3  A    between atoms: C_11  and  N_12
REMARK    4  A    between atoms: C_13  and  C_15
REMARK    5  A    between atoms: N_22  and  C_23
REMARK                            x       y       z     vdW  Elec       q    Type
REMARK                         _______ _______ _______ _____ _____    ______ ____
ROOT
ATOM      1  N   UNL     1      -1.229  10.207  18.596  0.00  0.00    +0.000 N 
ATOM      2  C   UNL     1      -0.286  11.043  19.194  0.00  0.00    +0.000 C 
ATOM      3  O   UNL     1      -0.244  12.267  19.085  0.00  0.00    +0.000 OA
ATOM      4  H   UNL     1      -1.136   9.208  18.744  0.00  0.00    +0.000 HD
ENDROOT
BRANCH   2   5
ATOM      5  C   UNL     1       0.778  10.280  20.016  0.00  0.00    +0.000 C 
ATOM      6  C   UNL     1       1.097   8.976  19.267  0.00  0.00    +0.000 C 
ATOM      7  C   UNL     1       1.787   8.104  20.300  0.00  0.00    +0.000 C 
ATOM      8  C   UNL     1       1.194   8.544  21.627  0.00  0.00    +0.000 C 
ATOM      9  N   UNL     1       0.454   9.768  21.362  0.00  0.00    +0.000 N 
ATOM     10  C   UNL     1      -0.037  10.442  22.465  0.00  0.00    +0.000 C 
ATOM     11  O   UNL     1       0.086   9.995  23.602  0.00  0.00    +0.000 OA
ATOM     12  N   UNL     1      -0.699  11.607  22.197  0.00  0.00    +0.000 N 
ATOM     13  H   UNL     1      -1.208  11.534  21.319  0.00  0.00    +0.000 HD
BRANCH  12  14
ATOM     14  C   UNL     1      -1.444  12.339  23.231  0.00  0.00    +0.000 C 
ATOM     15  C   UNL     1      -2.949  12.140  22.985  0.00  0.00    +0.000 C 
ATOM     16  C   UNL     1      -3.837  12.968  23.913  0.00  0.00    +0.000 C 
ATOM     17  C   UNL     1      -3.452  14.441  23.896  0.00  0.00    +0.000 C 
ATOM     18  C   UNL     1      -1.979  14.620  24.233  0.00  0.00    +0.000 C 
ATOM     19  C   UNL     1      -1.088  13.836  23.271  0.00  0.00    +0.000 C 
ENDBRANCH  12  14
ENDBRANCH   2   5
BRANCH   1  24
ATOM     20  C   UNL     1      -4.583  11.547  17.635  0.00  0.00    +0.000 A 
ATOM     21  C   UNL     1      -4.526  11.426  16.240  0.00  0.00    +0.000 A 
ATOM     22  C   UNL     1      -3.412  10.867  15.627  0.00  0.00    +0.000 A 
ATOM     23  C   UNL     1      -2.323  10.449  16.390  0.00  0.00    +0.000 A 
ATOM     24  C   UNL     1      -2.318  10.604  17.776  0.00  0.00    +0.000 A 
ATOM     25  C   UNL     1      -3.453  11.168  18.390  0.00  0.00    +0.000 A 
BRANCH  20  31
ATOM     26  C   UNL     1      -6.849   9.927  19.197  0.00  0.00    +0.000 C 
ATOM     27  N   UNL     1      -6.761  11.337  18.934  0.00  0.00    +0.000 N 
ATOM     28  N   UNL     1      -7.688  12.165  19.451  0.00  0.00    +0.000 NA
ATOM     29  N   UNL     1      -7.264  13.386  19.159  0.00  0.00    +0.000 NA
ATOM     30  N   UNL     1      -6.080  13.343  18.471  0.00  0.00    +0.000 NA
ATOM     31  C   UNL     1      -5.777  12.066  18.306  0.00  0.00    +0.000 A 
ENDBRANCH  20  31
ENDBRANCH   1  24
TORSDOF 4
ENDMDL
MODEL 3
REMARK VINA RESULT:      -8.1      5.015      8.985
REMARK  Name = 
REMARK  5 active torsions:
REMARK  status: ('A' for Active; 'I' for Inactive)
REMARK    1  A    between atoms: C_1  and  N_2
REMARK    2  A    between atoms: C_6  and  C_7
REMARK    3  A    between atoms: C_11  and  N_12
REMARK    4  A    between atoms: C_13  and  C_15
REMARK    5  A    between atoms: N_22  and  C_23
REMARK                            x       y       z     vdW  Elec       q    Type
REMARK                         _______ _______ _______ _____ _____    ______ ____
ROOT
ATOM      1  N   UNL     1      -1.211  10.168  18.474  0.00  0.00    +0.000 N 
ATOM      2  C   UNL     1      -0.310  11.023  19.109  0.00  0.00    +0.000 C 
ATOM      3  O   UNL     1      -0.324  12.251  19.046  0.00  0.00    +0.000 OA
ATOM      4  H   UNL     1      -1.072   9.170  18.585  0.00  0.00    +0.000 HD
ENDROOT
BRANCH   2   5
ATOM      5  C   UNL     1       0.785  10.279  19.908  0.00  0.00    +0.000 C 
ATOM      6  C   UNL     1       1.107   8.978  19.155  0.00  0.00    +0.000 C 
ATOM      7  C   UNL     1       1.835   8.120  20.173  0.00  0.00    +0.000 C 
ATOM      8  C   UNL     1       1.265   8.554  21.512  0.00  0.00    +0.000 C 
ATOM      9  N   UNL     1       0.500   9.766  21.262  0.00  0.00    +0.000 N 
ATOM     10  C   UNL     1       0.024  10.434  22.375  0.00  0.00    +0.000 C 
ATOM     11  O   UNL     1       0.180   9.992  23.510  0.00  0.00    +0.000 OA
ATOM     12  N   UNL     1      -0.662  11.588  22.119  0.00  0.00    +0.000 N 
ATOM     13  H   UNL     1      -1.191  11.505  21.253  0.00  0.00    +0.000 HD
BRANCH  12  14
ATOM     14  C   UNL     1      -1.395  12.310  23.169  0.00  0.00    +0.000 C 
ATOM     15  C   UNL     1      -2.903  12.094  22.953  0.00  0.00    +0.000 C 
ATOM     16  C   UNL     1      -3.781  12.911  23.899  0.00  0.00    +0.000 C 
ATOM     17  C   UNL     1      -3.414  14.388  23.875  0.00  0.00    +0.000 C 
ATOM     18  C   UNL     1      -1.936  14.585  24.183  0.00  0.00    +0.000 C 
ATOM     19  C   UNL     1      -1.056  13.812  23.203  0.00  0.00    +0.000 C 
ENDBRANCH  12  14
ENDBRANCH   2   5
BRANCH   1  24
ATOM     20  C   UNL     1      -4.636  11.341  17.546  0.00  0.00    +0.000 A 
ATOM     21  C   UNL     1      -4.552  11.318  16.147  0.00  0.00    +0.000 A 
ATOM     22  C   UNL     1      -3.395  10.879  15.518  0.00  0.00    +0.000 A 
ATOM     23  C   UNL     1      -2.290  10.485  16.270  0.00  0.00    +0.000 A 
ATOM     24  C   UNL     1      -2.314  10.545  17.664  0.00  0.00    +0.000 A 
ATOM     25  C   UNL     1      -3.492  10.988  18.294  0.00  0.00    +0.000 A 
BRANCH  20  31
ATOM     26  C   UNL     1      -6.596  13.772  16.876  0.00  0.00    +0.000 C 
ATOM     27  N   UNL     1      -6.673  12.813  17.943  0.00  0.00    +0.000 N 
ATOM     28  N   UNL     1      -7.733  12.832  18.773  0.00  0.00    +0.000 NA
ATOM     29  N   UNL     1      -7.590  11.762  19.543  0.00  0.00    +0.000 NA
ATOM     30  N   UNL     1      -6.460  11.065  19.208  0.00  0.00    +0.000 NA
ATOM     31  C   UNL     1      -5.872  11.731  18.229  0.00  0.00    +0.000 A 
ENDBRANCH  20  31
ENDBRANCH   1  24
TORSDOF 4
ENDMDL
MODEL 4
REMARK VINA RESULT:      -7.9      2.711      8.487
REMARK  Name = 
REMARK  5 active torsions:
REMARK  status: ('A' for Active; 'I' for Inactive)
REMARK    1  A    between atoms: C_1  and  N_2
REMARK    2  A    between atoms: C_6  and  C_7
REMARK    3  A    between atoms: C_11  and  N_12
REMARK    4  A    between atoms: C_13  and  C_15
REMARK    5  A    between atoms: N_22  and  C_23
REMARK                            x       y       z     vdW  Elec       q    Type
REMARK                         _______ _______ _______ _____ _____    ______ ____
ROOT
ATOM      1  N   UNL     1       2.027   7.231  20.030  0.00  0.00    +0.000 N 
ATOM      2  C   UNL     1       1.604   8.487  19.596  0.00  0.00    +0.000 C 
ATOM      3  O   UNL     1       1.527   8.851  18.424  0.00  0.00    +0.000 OA
ATOM      4  H   UNL     1       2.070   7.066  21.029  0.00  0.00    +0.000 HD
ENDROOT
BRANCH   2   5
ATOM      5  C   UNL     1       1.255   9.451  20.754  0.00  0.00    +0.000 C 
ATOM      6  C   UNL     1       1.481   8.695  22.073  0.00  0.00    +0.000 C 
ATOM      7  C   UNL     1       0.732   9.509  23.111  0.00  0.00    +0.000 C 
ATOM      8  C   UNL     1      -0.411  10.148  22.341  0.00  0.00    +0.000 C 
ATOM      9  N   UNL     1      -0.130   9.932  20.930  0.00  0.00    +0.000 N 
ATOM     10  C   UNL     1      -0.959  10.576  20.032  0.00  0.00    +0.000 C 
ATOM     11  O   UNL     1      -1.923  11.240  20.404  0.00  0.00    +0.000 OA
ATOM     12  N   UNL     1      -0.656  10.389  18.712  0.00  0.00    +0.000 N 
ATOM     13  H   UNL     1      -0.295   9.450  18.559  0.00  0.00    +0.000 HD
BRANCH  12  14
ATOM     14  C   UNL     1      -1.547  10.842  17.634  0.00  0.00    +0.000 C 
ATOM     15  C   UNL     1      -2.875  11.305  18.256  0.00  0.00    +0.000 C 
ATOM     16  C   UNL     1      -3.941  11.669  17.224  0.00  0.00    +0.000 C 
ATOM     17  C   UNL     1      -4.152  10.552  16.211  0.00  0.00    +0.000 C 
ATOM     18  C   UNL     1      -2.839  10.173  15.542  0.00  0.00    +0.000 C 
ATOM     19  C   UNL     1      -1.789   9.756  16.570  0.00  0.00    +0.000 C 
ENDBRANCH  12  14
ENDBRANCH   2   5
BRANCH   1  24
ATOM     20  C   UNL     1       4.255   4.898  18.142  0.00  0.00    +0.000 A 
ATOM     21  C   UNL     1       3.313   4.004  17.613  0.00  0.00    +0.000 A 
ATOM     22  C   UNL     1       1.957   4.195  17.840  0.00  0.00    +0.000 A 
ATOM     23  C   UNL     1       1.516   5.260  18.624  0.00  0.00    +0.000 A 
ATOM     24  C   UNL     1       2.424   6.139  19.213  0.00  0.00    +0.000 A 
ATOM     25  C   UNL     1       3.798   5.941  18.975  0.00  0.00    +0.000 A 
BRANCH  20  31
ATOM     26  C   UNL     1       5.784   5.382  15.380  0.00  0.00    +0.000 C 
ATOM     27  N   UNL     1       6.308   4.930  16.639  0.00  0.00    +0.000 N 
ATOM     28  N   UNL     1       7.634   4.734  16.772  0.00  0.00    +0.000 NA
ATOM     29  N   UNL     1       7.818   4.465  18.056  0.00  0.00    +0.000 NA
ATOM     30  N   UNL     1       6.630   4.493  18.738  0.00  0.00    +0.000 NA
ATOM     31  C   UNL     1       5.684   4.757  17.854  0.00  0.00    +0.000 A 
ENDBRANCH  20  31
ENDBRANCH   1  24
TORSDOF 4
ENDMDL
MODEL 5
REMARK VINA RESULT:      -7.7      7.014     11.559
REMARK  Name = 
REMARK  5 active torsions:
REMARK  status: ('A' for Active; 'I' for Inactive)
REMARK    1  A    between atoms: C_1  and  N_2
REMARK    2  A    between atoms: C_6  and  C_7
REMARK    3  A    between atoms: C_11  and  N_12
REMARK    4  A    between atoms: C_13  and  C_15
REMARK    5  A    between atoms: N_22  and  C_23
REMARK                            x       y       z     vdW  Elec       q    Type
REMARK                         _______ _______ _______ _____ _____    ______ ____
ROOT
ATOM      1  N   UNL     1      -4.632  12.328  17.652  0.00  0.00    +0.000 N 
ATOM      2  C   UNL     1      -5.912  11.972  18.081  0.00  0.00    +0.000 C 
ATOM      3  O   UNL     1      -6.240  10.871  18.517  0.00  0.00    +0.000 OA
ATOM      4  H   UNL     1      -4.500  13.264  17.288  0.00  0.00    +0.000 HD
ENDROOT
BRANCH   2   5
ATOM      5  C   UNL     1      -6.949  13.109  17.927  0.00  0.00    +0.000 C 
ATOM      6  C   UNL     1      -6.881  13.606  16.474  0.00  0.00    +0.000 C 
ATOM      7  C   UNL     1      -7.575  14.956  16.501  0.00  0.00    +0.000 C 
ATOM      8  C   UNL     1      -7.323  15.483  17.904  0.00  0.00    +0.000 C 
ATOM      9  N   UNL     1      -6.785  14.372  18.673  0.00  0.00    +0.000 N 
ATOM     10  C   UNL     1      -6.635  14.579  20.031  0.00  0.00    +0.000 C 
ATOM     11  O   UNL     1      -6.879  15.666  20.550  0.00  0.00    +0.000 OA
ATOM     12  N   UNL     1      -6.162  13.511  20.740  0.00  0.00    +0.000 N 
ATOM     13  H   UNL     1      -5.497  12.979  20.183  0.00  0.00    +0.000 HD
BRANCH  12  14
ATOM     14  C   UNL     1      -5.764  13.624  22.151  0.00  0.00    +0.000 C 
ATOM     15  C   UNL     1      -4.262  13.313  22.264  0.00  0.00    +0.000 C 
ATOM     16  C   UNL     1      -3.754  13.259  23.704  0.00  0.00    +0.000 C 
ATOM     17  C   UNL     1      -4.590  12.321  24.563  0.00  0.00    +0.000 C 
ATOM     18  C   UNL     1      -6.062  12.705  24.509  0.00  0.00    +0.000 C 
ATOM     19  C   UNL     1      -6.585  12.705  23.074  0.00  0.00    +0.000 C 
ENDBRANCH  12  14
ENDBRANCH   2   5
BRANCH   1  24
ATOM     20  C   UNL     1      -1.386  10.856  18.777  0.00  0.00    +0.000 A 
ATOM     21  C   UNL     1      -1.157   9.916  17.762  0.00  0.00    +0.000 A 
ATOM     22  C   UNL     1      -2.040   9.801  16.697  0.00  0.00    +0.000 A 
ATOM     23  C   UNL     1      -3.184  10.596  16.640  0.00  0.00    +0.000 A 
ATOM     24  C   UNL     1      -3.476  11.505  17.658  0.00  0.00    +0.000 A 
ATOM     25  C   UNL     1      -2.574  11.617  18.733  0.00  0.00    +0.000 A 
BRANCH  20  31
ATOM     26  C   UNL     1       1.002  12.965  18.991  0.00  0.00    +0.000 C 
ATOM     27  N   UNL     1       0.618  11.934  19.915  0.00  0.00    +0.000 N 
ATOM     28  N   UNL     1       1.261  11.829  21.093  0.00  0.00    +0.000 NA
ATOM     29  N   UNL     1       0.600  10.898  21.768  0.00  0.00    +0.000 NA
ATOM     30  N   UNL     1      -0.454  10.419  21.036  0.00  0.00    +0.000 NA
ATOM     31  C   UNL     1      -0.431  11.043  19.871  0.00  0.00    +0.000 A 
ENDBRANCH  20  31
ENDBRANCH   1  24
TORSDOF 4
ENDMDL
MODEL 6
REMARK VINA RESULT:      -7.7      2.891      8.538
REMARK  Name = 
REMARK  5 active torsions:
REMARK  status: ('A' for Active; 'I' for Inactive)
REMARK    1  A    between atoms: C_1  and  N_2
REMARK    2  A    between atoms: C_6  and  C_7
REMARK    3  A    between atoms: C_11  and  N_12
REMARK    4  A    between atoms: C_13  and  C_15
REMARK    5  A    between atoms: N_22  and  C_23
REMARK                            x       y       z     vdW  Elec       q    Type
REMARK                         _______ _______ _______ _____ _____    ______ ____
ROOT
ATOM      1  N   UNL     1       2.113   7.205  19.630  0.00  0.00    +0.000 N 
ATOM      2  C   UNL     1       1.611   8.445  19.232  0.00  0.00    +0.000 C 
ATOM      3  O   UNL     1       1.447   8.811  18.070  0.00  0.00    +0.000 OA
ATOM      4  H   UNL     1       2.224   7.037  20.623  0.00  0.00    +0.000 HD
ENDROOT
BRANCH   2   5
ATOM      5  C   UNL     1       1.291   9.386  20.417  0.00  0.00    +0.000 C 
ATOM      6  C   UNL     1       1.559   8.608  21.714  0.00  0.00    +0.000 C 
ATOM      7  C   UNL     1       0.838   9.401  22.789  0.00  0.00    +0.000 C 
ATOM      8  C   UNL     1      -0.331  10.047  22.064  0.00  0.00    +0.000 C 
ATOM      9  N   UNL     1      -0.090   9.857  20.642  0.00  0.00    +0.000 N 
ATOM     10  C   UNL     1      -0.949  10.512  19.779  0.00  0.00    +0.000 C 
ATOM     11  O   UNL     1      -1.904  11.165  20.191  0.00  0.00    +0.000 OA
ATOM     12  N   UNL     1      -0.683  10.349  18.448  0.00  0.00    +0.000 N 
ATOM     13  H   UNL     1      -0.322   9.415  18.268  0.00  0.00    +0.000 HD
BRANCH  12  14
ATOM     14  C   UNL     1      -1.607  10.816  17.405  0.00  0.00    +0.000 C 
ATOM     15  C   UNL     1      -2.916  11.270  18.074  0.00  0.00    +0.000 C 
ATOM     16  C   UNL     1      -4.014  11.647  17.081  0.00  0.00    +0.000 C 
ATOM     17  C   UNL     1      -4.255  10.543  16.060  0.00  0.00    +0.000 C 
ATOM     18  C   UNL     1      -2.964  10.175  15.345  0.00  0.00    +0.000 C 
ATOM     19  C   UNL     1      -1.882   9.745  16.334  0.00  0.00    +0.000 C 
ENDBRANCH  12  14
ENDBRANCH   2   5
BRANCH   1  24
ATOM     20  C   UNL     1       4.146   5.240  17.185  0.00  0.00    +0.000 A 
ATOM     21  C   UNL     1       3.377   4.073  17.081  0.00  0.00    +0.000 A 
ATOM     22  C   UNL     1       2.180   3.954  17.775  0.00  0.00    +0.000 A 
ATOM     23  C   UNL     1       1.743   4.982  18.609  0.00  0.00    +0.000 A 
ATOM     24  C   UNL     1       2.507   6.137  18.782  0.00  0.00    +0.000 A 
ATOM     25  C   UNL     1       3.718   6.250  18.073  0.00  0.00    +0.000 A 
BRANCH  20  31
ATOM     26  C   UNL     1       7.169   5.253  18.215  0.00  0.00    +0.000 C 
ATOM     27  N   UNL     1       6.663   5.460  16.886  0.00  0.00    +0.000 N 
ATOM     28  N   UNL     1       7.528   5.612  15.865  0.00  0.00    +0.000 NA
ATOM     29  N   UNL     1       6.776   5.640  14.774  0.00  0.00    +0.000 NA
ATOM     30  N   UNL     1       5.450   5.501  15.089  0.00  0.00    +0.000 NA
ATOM     31  C   UNL     1       5.374   5.415  16.406  0.00  0.00    +0.000 A 
ENDBRANCH  20  31
ENDBRANCH   1  24
TORSDOF 4
ENDMDL
MODEL 7
REMARK VINA RESULT:      -7.7      5.494      9.244
REMARK  Name = 
REMARK  5 active torsions:
REMARK  status: ('A' for Active; 'I' for Inactive)
REMARK    1  A    between atoms: C_1  and  N_2
REMARK    2  A    between atoms: C_6  and  C_7
REMARK    3  A    between atoms: C_11  and  N_12
REMARK    4  A    between atoms: C_13  and  C_15
REMARK    5  A    between atoms: N_22  and  C_23
REMARK                            x       y       z     vdW  Elec       q    Type
REMARK                         _______ _______ _______ _____ _____    ______ ____
ROOT
ATOM      1  N   UNL     1      -1.278  10.103  18.663  0.00  0.00    +0.000 N 
ATOM      2  C   UNL     1      -0.270  10.981  19.065  0.00  0.00    +0.000 C 
ATOM      3  O   UNL     1      -0.045  12.084  18.572  0.00  0.00    +0.000 OA
ATOM      4  H   UNL     1      -1.341   9.209  19.136  0.00  0.00    +0.000 HD
ENDROOT
BRANCH   2   5
ATOM      5  C   UNL     1       0.610  10.424  20.207  0.00  0.00    +0.000 C 
ATOM      6  C   UNL     1       1.009   8.988  19.829  0.00  0.00    +0.000 C 
ATOM      7  C   UNL     1       1.481   8.370  21.132  0.00  0.00    +0.000 C 
ATOM      8  C   UNL     1       0.683   9.090  22.205  0.00  0.00    +0.000 C 
ATOM      9  N   UNL     1       0.042  10.221  21.554  0.00  0.00    +0.000 N 
ATOM     10  C   UNL     1      -0.609  11.119  22.380  0.00  0.00    +0.000 C 
ATOM     11  O   UNL     1      -0.698  10.935  23.591  0.00  0.00    +0.000 OA
ATOM     12  N   UNL     1      -1.175  12.192  21.751  0.00  0.00    +0.000 N 
ATOM     13  H   UNL     1      -1.528  11.925  20.835  0.00  0.00    +0.000 HD
BRANCH  12  14
ATOM     14  C   UNL     1      -2.062  13.131  22.454  0.00  0.00    +0.000 C 
ATOM     15  C   UNL     1      -1.211  13.993  23.403  0.00  0.00    +0.000 C 
ATOM     16  C   UNL     1      -2.037  14.916  24.298  0.00  0.00    +0.000 C 
ATOM     17  C   UNL     1      -3.122  14.154  25.047  0.00  0.00    +0.000 C 
ATOM     18  C   UNL     1      -4.008  13.382  24.079  0.00  0.00    +0.000 C 
ATOM     19  C   UNL     1      -3.189  12.419  23.223  0.00  0.00    +0.000 C 
ENDBRANCH  12  14
ENDBRANCH   2   5
BRANCH   1  24
ATOM     20  C   UNL     1      -4.419  11.245  16.991  0.00  0.00    +0.000 A 
ATOM     21  C   UNL     1      -4.193  10.808  15.678  0.00  0.00    +0.000 A 
ATOM     22  C   UNL     1      -3.039  10.106  15.359  0.00  0.00    +0.000 A 
ATOM     23  C   UNL     1      -2.074   9.855  16.334  0.00  0.00    +0.000 A 
ATOM     24  C   UNL     1      -2.236  10.321  17.639  0.00  0.00    +0.000 A 
ATOM     25  C   UNL     1      -3.411  11.030  17.955  0.00  0.00    +0.000 A 
BRANCH  20  31
ATOM     26  C   UNL     1      -6.693  10.262  19.007  0.00  0.00    +0.000 C 
ATOM     27  N   UNL     1      -6.646  11.453  18.204  0.00  0.00    +0.000 N 
ATOM     28  N   UNL     1      -7.628  12.367  18.320  0.00  0.00    +0.000 NA
ATOM     29  N   UNL     1      -7.238  13.392  17.575  0.00  0.00    +0.000 NA
ATOM     30  N   UNL     1      -6.022  13.141  16.995  0.00  0.00    +0.000 NA
ATOM     31  C   UNL     1      -5.663  11.923  17.364  0.00  0.00    +0.000 A 
ENDBRANCH  20  31
ENDBRANCH   1  24
TORSDOF 4
ENDMDL
MODEL 8
REMARK VINA RESULT:      -7.7      6.890     10.379
REMARK  Name = 
REMARK  5 active torsions:
REMARK  status: ('A' for Active; 'I' for Inactive)
REMARK    1  A    between atoms: C_1  and  N_2
REMARK    2  A    between atoms: C_6  and  C_7
REMARK    3  A    between atoms: C_11  and  N_12
REMARK    4  A    between atoms: C_13  and  C_15
REMARK    5  A    between atoms: N_22  and  C_23
REMARK                            x       y       z     vdW  Elec       q    Type
REMARK                         _______ _______ _______ _____ _____    ______ ____
ROOT
ATOM      1  N   UNL     1      -4.773  13.370  21.552  0.00  0.00    +0.000 N 
ATOM      2  C   UNL     1      -4.862  13.136  22.925  0.00  0.00    +0.000 C 
ATOM      3  O   UNL     1      -5.441  12.189  23.453  0.00  0.00    +0.000 OA
ATOM      4  H   UNL     1      -4.288  14.206  21.246  0.00  0.00    +0.000 HD
ENDROOT
BRANCH   2   5
ATOM      5  C   UNL     1      -4.177  14.228  23.779  0.00  0.00    +0.000 C 
ATOM      6  C   UNL     1      -4.965  15.533  23.584  0.00  0.00    +0.000 C 
ATOM      7  C   UNL     1      -4.027  16.620  24.076  0.00  0.00    +0.000 C 
ATOM      8  C   UNL     1      -2.636  16.073  23.804  0.00  0.00    +0.000 C 
ATOM      9  N   UNL     1      -2.805  14.669  23.462  0.00  0.00    +0.000 N 
ATOM     10  C   UNL     1      -1.647  13.924  23.335  0.00  0.00    +0.000 C 
ATOM     11  O   UNL     1      -0.535  14.435  23.438  0.00  0.00    +0.000 OA
ATOM     12  N   UNL     1      -1.829  12.600  23.049  0.00  0.00    +0.000 N 
ATOM     13  H   UNL     1      -2.640  12.473  22.448  0.00  0.00    +0.000 HD
BRANCH  12  14
ATOM     14  C   UNL     1      -0.709  11.717  22.693  0.00  0.00    +0.000 C 
ATOM     15  C   UNL     1      -0.532  11.739  21.165  0.00  0.00    +0.000 C 
ATOM     16  C   UNL     1       0.513  10.749  20.654  0.00  0.00    +0.000 C 
ATOM     17  C   UNL     1       0.257   9.340  21.172  0.00  0.00    +0.000 C 
ATOM     18  C   UNL     1       0.179   9.328  22.692  0.00  0.00    +0.000 C 
ATOM     19  C   UNL     1      -0.904  10.277  23.201  0.00  0.00    +0.000 C 
ENDBRANCH  12  14
ENDBRANCH   2   5
BRANCH   1  24
ATOM     20  C   UNL     1      -4.970  11.476  18.336  0.00  0.00    +0.000 A 
ATOM     21  C   UNL     1      -6.271  10.958  18.414  0.00  0.00    +0.000 A 
ATOM     22  C   UNL     1      -7.088  11.267  19.494  0.00  0.00    +0.000 A 
ATOM     23  C   UNL     1      -6.614  12.070  20.530  0.00  0.00    +0.000 A 
ATOM     24  C   UNL     1      -5.307  12.560  20.516  0.00  0.00    +0.000 A 
ATOM     25  C   UNL     1      -4.486  12.244  19.416  0.00  0.00    +0.000 A 
BRANCH  20  31
ATOM     26  C   UNL     1      -2.151   9.978  18.224  0.00  0.00    +0.000 C 
ATOM     27  N   UNL     1      -2.885  10.611  17.162  0.00  0.00    +0.000 N 
ATOM     28  N   UNL     1      -2.418  10.539  15.901  0.00  0.00    +0.000 NA
ATOM     29  N   UNL     1      -3.365  11.081  15.149  0.00  0.00    +0.000 NA
ATOM     30  N   UNL     1      -4.425  11.488  15.914  0.00  0.00    +0.000 NA
ATOM     31  C   UNL     1      -4.118  11.221  17.172  0.00  0.00    +0.000 A 
ENDBRANCH  20  31
ENDBRANCH   1  24
TORSDOF 4
ENDMDL
MODEL 9
REMARK VINA RESULT:      -7.6      5.171      9.216
REMARK  Name = 
REMARK  5 active torsions:
REMARK  status: ('A' for Active; 'I' for Inactive)
REMARK    1  A    between atoms: C_1  and  N_2
REMARK    2  A    between atoms: C_6  and  C_7
REMARK    3  A    between atoms: C_11  and  N_12
REMARK    4  A    between atoms: C_13  and  C_15
REMARK    5  A    between atoms: N_22  and  C_23
REMARK                            x       y       z     vdW  Elec       q    Type
REMARK                         _______ _______ _______ _____ _____    ______ ____
ROOT
ATOM      1  N   UNL     1      -1.697  10.744  18.983  0.00  0.00    +0.000 N 
ATOM      2  C   UNL     1      -0.526  11.485  19.147  0.00  0.00    +0.000 C 
ATOM      3  O   UNL     1      -0.359  12.648  18.785  0.00  0.00    +0.000 OA
ATOM      4  H   UNL     1      -1.695   9.782  19.303  0.00  0.00    +0.000 HD
ENDROOT
BRANCH   2   5
ATOM      5  C   UNL     1       0.617  10.688  19.817  0.00  0.00    +0.000 C 
ATOM      6  C   UNL     1       0.916   9.469  18.930  0.00  0.00    +0.000 C 
ATOM      7  C   UNL     1       1.705   8.531  19.826  0.00  0.00    +0.000 C 
ATOM      8  C   UNL     1       1.199   8.829  21.227  0.00  0.00    +0.000 C 
ATOM      9  N   UNL     1       0.407  10.045  21.130  0.00  0.00    +0.000 N 
ATOM     10  C   UNL     1      -0.020  10.599  22.322  0.00  0.00    +0.000 C 
ATOM     11  O   UNL     1       0.199  10.055  23.402  0.00  0.00    +0.000 OA
ATOM     12  N   UNL     1      -0.732  11.760  22.211  0.00  0.00    +0.000 N 
ATOM     13  H   UNL     1      -1.303  11.749  21.368  0.00  0.00    +0.000 HD
BRANCH  12  14
ATOM     14  C   UNL     1      -1.419  12.369  23.359  0.00  0.00    +0.000 C 
ATOM     15  C   UNL     1      -2.922  12.059  23.252  0.00  0.00    +0.000 C 
ATOM     16  C   UNL     1      -3.769  12.758  24.314  0.00  0.00    +0.000 C 
ATOM     17  C   UNL     1      -3.503  14.257  24.352  0.00  0.00    +0.000 C 
ATOM     18  C   UNL     1      -2.021  14.539  24.551  0.00  0.00    +0.000 C 
ATOM     19  C   UNL     1      -1.178  13.886  23.458  0.00  0.00    +0.000 C 
ENDBRANCH  12  14
ENDBRANCH   2   5
BRANCH   1  24
ATOM     20  C   UNL     1      -5.121  12.215  18.708  0.00  0.00    +0.000 A 
ATOM     21  C   UNL     1      -5.343  12.110  17.328  0.00  0.00    +0.000 A 
ATOM     22  C   UNL     1      -4.393  11.520  16.505  0.00  0.00    +0.000 A 
ATOM     23  C   UNL     1      -3.191  11.054  17.036  0.00  0.00    +0.000 A 
ATOM     24  C   UNL     1      -2.909  11.190  18.396  0.00  0.00    +0.000 A 
ATOM     25  C   UNL     1      -3.880  11.786  19.224  0.00  0.00    +0.000 A 
BRANCH  20  31
ATOM     26  C   UNL     1      -7.518  10.693  20.170  0.00  0.00    +0.000 C 
ATOM     27  N   UNL     1      -7.190  12.092  20.184  0.00  0.00    +0.000 N 
ATOM     28  N   UNL     1      -7.903  12.931  20.960  0.00  0.00    +0.000 NA
ATOM     29  N   UNL     1      -7.283  14.099  20.869  0.00  0.00    +0.000 NA
ATOM     30  N   UNL     1      -6.186  14.009  20.052  0.00  0.00    +0.000 NA
ATOM     31  C   UNL     1      -6.140  12.767  19.603  0.00  0.00    +0.000 A 
ENDBRANCH  20  31
ENDBRANCH   1  24
TORSDOF 4
ENDMDL
