MODEL 1
REMARK VINA RESULT:      -8.2      0.000      0.000
REMARK  Name = 
REMARK  7 active torsions:
REMARK  status: ('A' for Active; 'I' for Inactive)
REMARK    1  A    between atoms: C_2  and  N_3
REMARK    2  A    between atoms: C_7  and  C_8
REMARK    3  A    between atoms: C_8  and  C_9
REMARK    4  A    between atoms: C_13  and  N_14
REMARK    5  A    between atoms: C_19  and  C_20
REMARK    6  A    between atoms: C_20  and  N_21
REMARK    7  A    between atoms: C_23  and  C_24
REMARK                            x       y       z     vdW  Elec       q    Type
REMARK                         _______ _______ _______ _____ _____    ______ ____
ROOT
ATOM      1  N   UNL     1       4.019   4.595  19.321  0.00  0.00    +0.000 N 
ATOM      2  C   UNL     1       5.375   5.199  19.387  0.00  0.00    +0.000 C 
ATOM      3  C   UNL     1       5.876   5.004  17.986  0.00  0.00    +0.000 A 
ATOM      4  C   UNL     1       5.236   3.870  17.476  0.00  0.00    +0.000 A 
ATOM      5  C   UNL     1       5.328   3.484  16.145  0.00  0.00    +0.000 A 
ATOM      6  C   UNL     1       6.092   4.279  15.282  0.00  0.00    +0.000 A 
ATOM      7  C   UNL     1       6.736   5.433  15.797  0.00  0.00    +0.000 A 
ATOM      8  C   UNL     1       6.631   5.824  17.152  0.00  0.00    +0.000 A 
ATOM      9  C   UNL     1       4.158   3.496  18.417  0.00  0.00    +0.000 C 
ATOM     10  O   UNL     1       3.417   2.546  18.268  0.00  0.00    +0.000 OA
ENDROOT
BRANCH   1  15
ATOM     11  C   UNL     1       1.892   7.495  19.935  0.00  0.00    +0.000 A 
ATOM     12  C   UNL     1       2.444   8.315  18.940  0.00  0.00    +0.000 A 
ATOM     13  C   UNL     1       3.097   7.758  17.845  0.00  0.00    +0.000 A 
ATOM     14  C   UNL     1       3.306   6.386  17.789  0.00  0.00    +0.000 A 
ATOM     15  C   UNL     1       3.041   5.609  18.925  0.00  0.00    +0.000 A 
ATOM     16  C   UNL     1       2.182   6.121  19.908  0.00  0.00    +0.000 A 
BRANCH  11  17
ATOM     17  C   UNL     1       0.976   8.103  20.974  0.00  0.00    +0.000 C 
BRANCH  17  22
ATOM     18  N   UNL     1      -0.011  10.302  20.096  0.00  0.00    +0.000 N 
ATOM     19  C   UNL     1       0.229  11.612  20.447  0.00  0.00    +0.000 A 
ATOM     20  N   UNL     1       1.127  11.693  21.397  0.00  0.00    +0.000 NA
ATOM     21  N   UNL     1       1.515  10.420  21.699  0.00  0.00    +0.000 NA
ATOM     22  C   UNL     1       0.849   9.587  20.922  0.00  0.00    +0.000 A 
BRANCH  18  24
ATOM     23  C   UNL     1      -1.077  10.281  17.892  0.00  0.00    +0.000 C 
ATOM     24  C   UNL     1      -0.915   9.823  19.144  0.00  0.00    +0.000 C 
ENDBRANCH  18  24
ENDBRANCH  17  22
ENDBRANCH  11  17
ENDBRANCH   1  15
BRANCH   8  25
ATOM     25  C   UNL     1       7.217   7.143  17.584  0.00  0.00    +0.000 C 
ATOM     26  F   UNL     1       7.928   7.088  18.744  0.00  0.00    +0.000 F 
ATOM     27  F   UNL     1       8.070   7.656  16.657  0.00  0.00    +0.000 F 
ATOM     28  F   UNL     1       6.266   8.098  17.785  0.00  0.00    +0.000 F 
ENDBRANCH   8  25
BRANCH   6  29
ATOM     29  C   UNL     1       6.178   3.951  13.809  0.00  0.00    +0.000 C 
BRANCH  29  30
ATOM     30  N   UNL     1       7.191   4.748  13.129  0.00  0.00    +0.000 NA
ATOM     31  H   UNL     1       6.779   5.636  12.841  0.00  0.00    +0.000 HD
ATOM     32  H   UNL     1       7.457   4.273  12.264  0.00  0.00    +0.000 HD
ENDBRANCH  29  30
ENDBRANCH   6  29
TORSDOF 7
ENDMDL
MODEL 2
REMARK VINA RESULT:      -8.0      6.853      9.565
REMARK  Name = 
REMARK  7 active torsions:
REMARK  status: ('A' for Active; 'I' for Inactive)
REMARK    1  A    between atoms: C_2  and  N_3
REMARK    2  A    between atoms: C_7  and  C_8
REMARK    3  A    between atoms: C_8  and  C_9
REMARK    4  A    between atoms: C_13  and  N_14
REMARK    5  A    between atoms: C_19  and  C_20
REMARK    6  A    between atoms: C_20  and  N_21
REMARK    7  A    between atoms: C_23  and  C_24
REMARK                            x       y       z     vdW  Elec       q    Type
REMARK                         _______ _______ _______ _____ _____    ______ ____
ROOT
ATOM      1  N   UNL     1      -0.246  11.383  18.429  0.00  0.00    +0.000 N 
ATOM      2  C   UNL     1       0.511  10.602  19.440  0.00  0.00    +0.000 C 
ATOM      3  C   UNL     1       0.064  11.234  20.726  0.00  0.00    +0.000 A 
ATOM      4  C   UNL     1      -0.275  12.559  20.436  0.00  0.00    +0.000 A 
ATOM      5  C   UNL     1      -0.892  13.400  21.353  0.00  0.00    +0.000 A 
ATOM      6  C   UNL     1      -1.189  12.884  22.620  0.00  0.00    +0.000 A 
ATOM      7  C   UNL     1      -0.853  11.538  22.913  0.00  0.00    +0.000 A 
ATOM      8  C   UNL     1      -0.232  10.685  21.971  0.00  0.00    +0.000 A 
ATOM      9  C   UNL     1      -0.301  12.708  18.965  0.00  0.00    +0.000 C 
ATOM     10  O   UNL     1      -0.555  13.743  18.385  0.00  0.00    +0.000 OA
ENDROOT
BRANCH   1  15
ATOM     11  C   UNL     1      -3.825  11.450  17.727  0.00  0.00    +0.000 A 
ATOM     12  C   UNL     1      -3.770  10.714  16.533  0.00  0.00    +0.000 A 
ATOM     13  C   UNL     1      -2.710   9.848  16.284  0.00  0.00    +0.000 A 
ATOM     14  C   UNL     1      -1.639   9.794  17.166  0.00  0.00    +0.000 A 
ATOM     15  C   UNL     1      -1.544  10.754  18.183  0.00  0.00    +0.000 A 
ATOM     16  C   UNL     1      -2.700  11.447  18.567  0.00  0.00    +0.000 A 
BRANCH  11  17
ATOM     17  C   UNL     1      -5.097  12.183  18.088  0.00  0.00    +0.000 C 
BRANCH  17  22
ATOM     18  N   UNL     1      -6.283  11.880  20.342  0.00  0.00    +0.000 N 
ATOM     19  C   UNL     1      -7.165  10.919  20.785  0.00  0.00    +0.000 A 
ATOM     20  N   UNL     1      -7.403  10.028  19.856  0.00  0.00    +0.000 NA
ATOM     21  N   UNL     1      -6.670  10.378  18.760  0.00  0.00    +0.000 NA
ATOM     22  C   UNL     1      -5.993  11.474  19.044  0.00  0.00    +0.000 A 
BRANCH  18  24
ATOM     23  C   UNL     1      -5.272  13.005  22.267  0.00  0.00    +0.000 C 
ATOM     24  C   UNL     1      -5.814  12.998  21.039  0.00  0.00    +0.000 C 
ENDBRANCH  18  24
ENDBRANCH  17  22
ENDBRANCH  11  17
ENDBRANCH   1  15
BRANCH   8  25
ATOM     25  C   UNL     1      -0.047   9.229  22.309  0.00  0.00    +0.000 C 
ATOM     26  F   UNL     1      -0.824   8.381  21.580  0.00  0.00    +0.000 F 
ATOM     27  F   UNL     1       1.233   8.812  22.110  0.00  0.00    +0.000 F 
ATOM     28  F   UNL     1      -0.331   8.953  23.613  0.00  0.00    +0.000 F 
ENDBRANCH   8  25
BRANCH   6  29
ATOM     29  C   UNL     1      -1.920  13.727  23.640  0.00  0.00    +0.000 C 
BRANCH  29  30
ATOM     30  N   UNL     1      -1.041  14.704  24.273  0.00  0.00    +0.000 NA
ATOM     31  H   UNL     1      -0.557  15.234  23.549  0.00  0.00    +0.000 HD
ATOM     32  H   UNL     1      -0.311  14.205  24.785  0.00  0.00    +0.000 HD
ENDBRANCH  29  30
ENDBRANCH   6  29
TORSDOF 7
ENDMDL
MODEL 3
REMARK VINA RESULT:      -7.9      0.890      1.599
REMARK  Name = 
REMARK  7 active torsions:
REMARK  status: ('A' for Active; 'I' for Inactive)
REMARK    1  A    between atoms: C_2  and  N_3
REMARK    2  A    between atoms: C_7  and  C_8
REMARK    3  A    between atoms: C_8  and  C_9
REMARK    4  A    between atoms: C_13  and  N_14
REMARK    5  A    between atoms: C_19  and  C_20
REMARK    6  A    between atoms: C_20  and  N_21
REMARK    7  A    between atoms: C_23  and  C_24
REMARK                            x       y       z     vdW  Elec       q    Type
REMARK                         _______ _______ _______ _____ _____    ______ ____
ROOT
ATOM      1  N   UNL     1       4.152   4.466  19.095  0.00  0.00    +0.000 N 
ATOM      2  C   UNL     1       5.487   5.093  19.276  0.00  0.00    +0.000 C 
ATOM      3  C   UNL     1       6.066   5.007  17.895  0.00  0.00    +0.000 A 
ATOM      4  C   UNL     1       5.483   3.898  17.274  0.00  0.00    +0.000 A 
ATOM      5  C   UNL     1       5.655   3.609  15.926  0.00  0.00    +0.000 A 
ATOM      6  C   UNL     1       6.444   4.478  15.163  0.00  0.00    +0.000 A 
ATOM      7  C   UNL     1       7.029   5.608  15.790  0.00  0.00    +0.000 A 
ATOM      8  C   UNL     1       6.843   5.900  17.162  0.00  0.00    +0.000 A 
ATOM      9  C   UNL     1       4.368   3.436  18.127  0.00  0.00    +0.000 C 
ATOM     10  O   UNL     1       3.660   2.483  17.873  0.00  0.00    +0.000 OA
ENDROOT
BRANCH   1  15
ATOM     11  C   UNL     1       2.211   7.501  19.667  0.00  0.00    +0.000 A 
ATOM     12  C   UNL     1       2.673   8.203  18.544  0.00  0.00    +0.000 A 
ATOM     13  C   UNL     1       3.176   7.521  17.440  0.00  0.00    +0.000 A 
ATOM     14  C   UNL     1       3.331   6.142  17.491  0.00  0.00    +0.000 A 
ATOM     15  C   UNL     1       3.171   5.483  18.717  0.00  0.00    +0.000 A 
ATOM     16  C   UNL     1       2.448   6.119  19.737  0.00  0.00    +0.000 A 
BRANCH  11  17
ATOM     17  C   UNL     1       1.442   8.240  20.739  0.00  0.00    +0.000 C 
BRANCH  17  22
ATOM     18  N   UNL     1      -0.226  10.165  21.045  0.00  0.00    +0.000 N 
ATOM     19  C   UNL     1      -0.767  11.053  20.141  0.00  0.00    +0.000 A 
ATOM     20  N   UNL     1      -0.321  10.830  18.931  0.00  0.00    +0.000 NA
ATOM     21  N   UNL     1       0.534   9.770  19.001  0.00  0.00    +0.000 NA
ATOM     22  C   UNL     1       0.590   9.362  20.255  0.00  0.00    +0.000 A 
BRANCH  18  24
ATOM     23  C   UNL     1      -1.234  10.921  23.144  0.00  0.00    +0.000 C 
ATOM     24  C   UNL     1      -0.444  10.107  22.425  0.00  0.00    +0.000 C 
ENDBRANCH  18  24
ENDBRANCH  17  22
ENDBRANCH  11  17
ENDBRANCH   1  15
BRANCH   8  25
ATOM     25  C   UNL     1       7.371   7.199  17.714  0.00  0.00    +0.000 C 
ATOM     26  F   UNL     1       6.411   8.123  17.989  0.00  0.00    +0.000 F 
ATOM     27  F   UNL     1       8.054   7.024  18.878  0.00  0.00    +0.000 F 
ATOM     28  F   UNL     1       8.238   7.816  16.863  0.00  0.00    +0.000 F 
ENDBRANCH   8  25
BRANCH   6  29
ATOM     29  C   UNL     1       6.616   4.256  13.678  0.00  0.00    +0.000 C 
BRANCH  29  30
ATOM     30  N   UNL     1       7.541   5.214  13.085  0.00  0.00    +0.000 NA
ATOM     31  H   UNL     1       8.348   5.322  13.700  0.00  0.00    +0.000 HD
ATOM     32  H   UNL     1       7.091   6.131  13.055  0.00  0.00    +0.000 HD
ENDBRANCH  29  30
ENDBRANCH   6  29
TORSDOF 7
ENDMDL
MODEL 4
REMARK VINA RESULT:      -7.9      7.016      9.699
REMARK  Name = 
REMARK  7 active torsions:
REMARK  status: ('A' for Active; 'I' for Inactive)
REMARK    1  A    between atoms: C_2  and  N_3
REMARK    2  A    between atoms: C_7  and  C_8
REMARK    3  A    between atoms: C_8  and  C_9
REMARK    4  A    between atoms: C_13  and  N_14
REMARK    5  A    between atoms: C_19  and  C_20
REMARK    6  A    between atoms: C_20  and  N_21
REMARK    7  A    between atoms: C_23  and  C_24
REMARK                            x       y       z     vdW  Elec       q    Type
REMARK                         _______ _______ _______ _____ _____    ______ ____
ROOT
ATOM      1  N   UNL     1      -0.323  11.629  18.601  0.00  0.00    +0.000 N 
ATOM      2  C   UNL     1       0.468  10.892  19.620  0.00  0.00    +0.000 C 
ATOM      3  C   UNL     1      -0.099  11.422  20.904  0.00  0.00    +0.000 A 
ATOM      4  C   UNL     1      -0.564  12.715  20.644  0.00  0.00    +0.000 A 
ATOM      5  C   UNL     1      -1.306  13.451  21.560  0.00  0.00    +0.000 A 
ATOM      6  C   UNL     1      -1.602  12.857  22.793  0.00  0.00    +0.000 A 
ATOM      7  C   UNL     1      -1.137  11.543  23.055  0.00  0.00    +0.000 A 
ATOM      8  C   UNL     1      -0.389  10.797  22.114  0.00  0.00    +0.000 A 
ATOM      9  C   UNL     1      -0.542  12.918  19.180  0.00  0.00    +0.000 C 
ATOM     10  O   UNL     1      -0.879  13.944  18.625  0.00  0.00    +0.000 OA
ENDROOT
BRANCH   1  15
ATOM     11  C   UNL     1      -3.790  11.346  17.504  0.00  0.00    +0.000 A 
ATOM     12  C   UNL     1      -3.544  10.519  16.397  0.00  0.00    +0.000 A 
ATOM     13  C   UNL     1      -2.403   9.724  16.349  0.00  0.00    +0.000 A 
ATOM     14  C   UNL     1      -1.441   9.832  17.345  0.00  0.00    +0.000 A 
ATOM     15  C   UNL     1      -1.535  10.879  18.273  0.00  0.00    +0.000 A 
ATOM     16  C   UNL     1      -2.775  11.505  18.460  0.00  0.00    +0.000 A 
BRANCH  11  17
ATOM     17  C   UNL     1      -5.145  12.001  17.652  0.00  0.00    +0.000 C 
BRANCH  17  22
ATOM     18  N   UNL     1      -6.332  12.214  19.916  0.00  0.00    +0.000 N 
ATOM     19  C   UNL     1      -7.116  11.327  20.621  0.00  0.00    +0.000 A 
ATOM     20  N   UNL     1      -7.243  10.193  19.980  0.00  0.00    +0.000 NA
ATOM     21  N   UNL     1      -6.532  10.298  18.821  0.00  0.00    +0.000 NA
ATOM     22  C   UNL     1      -5.979  11.496  18.780  0.00  0.00    +0.000 A 
BRANCH  18  24
ATOM     23  C   UNL     1      -4.871  13.922  20.886  0.00  0.00    +0.000 C 
ATOM     24  C   UNL     1      -5.994  13.524  20.268  0.00  0.00    +0.000 C 
ENDBRANCH  18  24
ENDBRANCH  17  22
ENDBRANCH  11  17
ENDBRANCH   1  15
BRANCH   8  25
ATOM     25  C   UNL     1      -0.065   9.356  22.409  0.00  0.00    +0.000 C 
ATOM     26  F   UNL     1       1.222   9.004  22.140  0.00  0.00    +0.000 F 
ATOM     27  F   UNL     1      -0.264   9.040  23.718  0.00  0.00    +0.000 F 
ATOM     28  F   UNL     1      -0.836   8.489  21.695  0.00  0.00    +0.000 F 
ENDBRANCH   8  25
BRANCH   6  29
ATOM     29  C   UNL     1      -2.461  13.579  23.806  0.00  0.00    +0.000 C 
BRANCH  29  30
ATOM     30  N   UNL     1      -3.642  12.805  24.171  0.00  0.00    +0.000 NA
ATOM     31  H   UNL     1      -4.335  12.884  23.427  0.00  0.00    +0.000 HD
ATOM     32  H   UNL     1      -4.071  13.230  24.996  0.00  0.00    +0.000 HD
ENDBRANCH  29  30
ENDBRANCH   6  29
TORSDOF 7
ENDMDL
MODEL 5
REMARK VINA RESULT:      -7.7      5.786      8.901
REMARK  Name = 
REMARK  7 active torsions:
REMARK  status: ('A' for Active; 'I' for Inactive)
REMARK    1  A    between atoms: C_2  and  N_3
REMARK    2  A    between atoms: C_7  and  C_8
REMARK    3  A    between atoms: C_8  and  C_9
REMARK    4  A    between atoms: C_13  and  N_14
REMARK    5  A    between atoms: C_19  and  C_20
REMARK    6  A    between atoms: C_20  and  N_21
REMARK    7  A    between atoms: C_23  and  C_24
REMARK                            x       y       z     vdW  Elec       q    Type
REMARK                         _______ _______ _______ _____ _____    ______ ____
ROOT
ATOM      1  N   UNL     1      -1.436  12.467  18.375  0.00  0.00    +0.000 N 
ATOM      2  C   UNL     1      -0.060  11.953  18.151  0.00  0.00    +0.000 C 
ATOM      3  C   UNL     1       0.211  11.211  19.426  0.00  0.00    +0.000 A 
ATOM      4  C   UNL     1      -0.550  11.823  20.427  0.00  0.00    +0.000 A 
ATOM      5  C   UNL     1      -0.681  11.298  21.706  0.00  0.00    +0.000 A 
ATOM      6  C   UNL     1      -0.023  10.096  21.993  0.00  0.00    +0.000 A 
ATOM      7  C   UNL     1       0.743   9.469  20.976  0.00  0.00    +0.000 A 
ATOM      8  C   UNL     1       0.865  10.007  19.674  0.00  0.00    +0.000 A 
ATOM      9  C   UNL     1      -1.486  12.762  19.773  0.00  0.00    +0.000 C 
ATOM     10  O   UNL     1      -2.283  13.460  20.366  0.00  0.00    +0.000 OA
ENDROOT
BRANCH   1  15
ATOM     11  C   UNL     1      -4.756  11.448  17.260  0.00  0.00    +0.000 A 
ATOM     12  C   UNL     1      -4.362  10.950  16.008  0.00  0.00    +0.000 A 
ATOM     13  C   UNL     1      -3.053  10.528  15.796  0.00  0.00    +0.000 A 
ATOM     14  C   UNL     1      -2.099  10.705  16.789  0.00  0.00    +0.000 A 
ATOM     15  C   UNL     1      -2.416  11.487  17.908  0.00  0.00    +0.000 A 
ATOM     16  C   UNL     1      -3.766  11.697  18.224  0.00  0.00    +0.000 A 
BRANCH  11  17
ATOM     17  C   UNL     1      -6.226  11.661  17.543  0.00  0.00    +0.000 C 
BRANCH  17  22
ATOM     18  N   UNL     1      -7.034  11.951  19.960  0.00  0.00    +0.000 N 
ATOM     19  C   UNL     1      -7.432  11.029  20.904  0.00  0.00    +0.000 A 
ATOM     20  N   UNL     1      -7.366   9.809  20.434  0.00  0.00    +0.000 NA
ATOM     21  N   UNL     1      -6.910   9.891  19.152  0.00  0.00    +0.000 NA
ATOM     22  C   UNL     1      -6.701  11.162  18.865  0.00  0.00    +0.000 A 
BRANCH  18  24
ATOM     23  C   UNL     1      -7.912  14.213  19.639  0.00  0.00    +0.000 C 
ATOM     24  C   UNL     1      -6.993  13.342  20.086  0.00  0.00    +0.000 C 
ENDBRANCH  18  24
ENDBRANCH  17  22
ENDBRANCH  11  17
ENDBRANCH   1  15
BRANCH   8  25
ATOM     25  C   UNL     1       1.569   9.204  18.611  0.00  0.00    +0.000 C 
ATOM     26  F   UNL     1       0.765   8.795  17.592  0.00  0.00    +0.000 F 
ATOM     27  F   UNL     1       2.579   9.900  18.022  0.00  0.00    +0.000 F 
ATOM     28  F   UNL     1       2.137   8.067  19.104  0.00  0.00    +0.000 F 
ENDBRANCH   8  25
BRANCH   6  29
ATOM     29  C   UNL     1      -0.179   9.438  23.345  0.00  0.00    +0.000 C 
BRANCH  29  30
ATOM     30  N   UNL     1       1.065   9.450  24.106  0.00  0.00    +0.000 NA
ATOM     31  H   UNL     1       1.629   8.645  23.834  0.00  0.00    +0.000 HD
ATOM     32  H   UNL     1       0.846   9.313  25.095  0.00  0.00    +0.000 HD
ENDBRANCH  29  30
ENDBRANCH   6  29
TORSDOF 7
ENDMDL
MODEL 6
REMARK VINA RESULT:      -7.7      4.371      8.609
REMARK  Name = 
REMARK  7 active torsions:
REMARK  status: ('A' for Active; 'I' for Inactive)
REMARK    1  A    between atoms: C_2  and  N_3
REMARK    2  A    between atoms: C_7  and  C_8
REMARK    3  A    between atoms: C_8  and  C_9
REMARK    4  A    between atoms: C_13  and  N_14
REMARK    5  A    between atoms: C_19  and  C_20
REMARK    6  A    between atoms: C_20  and  N_21
REMARK    7  A    between atoms: C_23  and  C_24
REMARK                            x       y       z     vdW  Elec       q    Type
REMARK                         _______ _______ _______ _____ _____    ______ ____
ROOT
ATOM      1  N   UNL     1      -0.027   9.138  20.983  0.00  0.00    +0.000 N 
ATOM      2  C   UNL     1      -1.193   9.153  20.063  0.00  0.00    +0.000 C 
ATOM      3  C   UNL     1      -1.263  10.598  19.666  0.00  0.00    +0.000 A 
ATOM      4  C   UNL     1      -0.728  11.341  20.723  0.00  0.00    +0.000 A 
ATOM      5  C   UNL     1      -0.475  12.704  20.638  0.00  0.00    +0.000 A 
ATOM      6  C   UNL     1      -0.767  13.352  19.432  0.00  0.00    +0.000 A 
ATOM      7  C   UNL     1      -1.302  12.598  18.356  0.00  0.00    +0.000 A 
ATOM      8  C   UNL     1      -1.549  11.208  18.447  0.00  0.00    +0.000 A 
ATOM      9  C   UNL     1      -0.089  10.395  21.663  0.00  0.00    +0.000 C 
ATOM     10  O   UNL     1       0.464  10.721  22.693  0.00  0.00    +0.000 OA
ENDROOT
BRANCH   1  15
ATOM     11  C   UNL     1       2.439   6.997  19.358  0.00  0.00    +0.000 A 
ATOM     12  C   UNL     1       2.316   7.553  18.075  0.00  0.00    +0.000 A 
ATOM     13  C   UNL     1       1.841   8.850  17.908  0.00  0.00    +0.000 A 
ATOM     14  C   UNL     1       1.376   9.563  19.006  0.00  0.00    +0.000 A 
ATOM     15  C   UNL     1       1.202   8.897  20.227  0.00  0.00    +0.000 A 
ATOM     16  C   UNL     1       1.891   7.695  20.445  0.00  0.00    +0.000 A 
BRANCH  11  17
ATOM     17  C   UNL     1       3.187   5.695  19.533  0.00  0.00    +0.000 C 
BRANCH  17  22
ATOM     18  N   UNL     1       1.716   3.600  19.364  0.00  0.00    +0.000 N 
ATOM     19  C   UNL     1       1.462   2.748  18.311  0.00  0.00    +0.000 A 
ATOM     20  N   UNL     1       2.112   3.116  17.235  0.00  0.00    +0.000 NA
ATOM     21  N   UNL     1       2.827   4.232  17.554  0.00  0.00    +0.000 NA
ATOM     22  C   UNL     1       2.605   4.522  18.822  0.00  0.00    +0.000 A 
BRANCH  18  24
ATOM     23  C   UNL     1       1.710   2.891  21.707  0.00  0.00    +0.000 C 
ATOM     24  C   UNL     1       1.187   3.545  20.657  0.00  0.00    +0.000 C 
ENDBRANCH  18  24
ENDBRANCH  17  22
ENDBRANCH  11  17
ENDBRANCH   1  15
BRANCH   8  25
ATOM     25  C   UNL     1      -1.974  10.455  17.214  0.00  0.00    +0.000 C 
ATOM     26  F   UNL     1      -1.075   9.526  16.787  0.00  0.00    +0.000 F 
ATOM     27  F   UNL     1      -3.139   9.778  17.399  0.00  0.00    +0.000 F 
ATOM     28  F   UNL     1      -2.184  11.275  16.146  0.00  0.00    +0.000 F 
ENDBRANCH   8  25
BRANCH   6  29
ATOM     29  C   UNL     1      -0.453  14.820  19.253  0.00  0.00    +0.000 C 
BRANCH  29  30
ATOM     30  N   UNL     1       0.919  15.036  18.810  0.00  0.00    +0.000 NA
ATOM     31  H   UNL     1       1.350  14.133  18.609  0.00  0.00    +0.000 HD
ATOM     32  H   UNL     1       1.456  15.433  19.583  0.00  0.00    +0.000 HD
ENDBRANCH  29  30
ENDBRANCH   6  29
TORSDOF 7
ENDMDL
MODEL 7
REMARK VINA RESULT:      -7.6      1.247      2.139
REMARK  Name = 
REMARK  7 active torsions:
REMARK  status: ('A' for Active; 'I' for Inactive)
REMARK    1  A    between atoms: C_2  and  N_3
REMARK    2  A    between atoms: C_7  and  C_8
REMARK    3  A    between atoms: C_8  and  C_9
REMARK    4  A    between atoms: C_13  and  N_14
REMARK    5  A    between atoms: C_19  and  C_20
REMARK    6  A    between atoms: C_20  and  N_21
REMARK    7  A    between atoms: C_23  and  C_24
REMARK                            x       y       z     vdW  Elec       q    Type
REMARK                         _______ _______ _______ _____ _____    ______ ____
ROOT
ATOM      1  N   UNL     1       4.367   3.541  19.222  0.00  0.00    +0.000 N 
ATOM      2  C   UNL     1       5.634   4.315  19.191  0.00  0.00    +0.000 C 
ATOM      3  C   UNL     1       5.896   4.433  17.718  0.00  0.00    +0.000 A 
ATOM      4  C   UNL     1       5.309   3.321  17.107  0.00  0.00    +0.000 A 
ATOM      5  C   UNL     1       5.205   3.182  15.729  0.00  0.00    +0.000 A 
ATOM      6  C   UNL     1       5.708   4.212  14.925  0.00  0.00    +0.000 A 
ATOM      7  C   UNL     1       6.297   5.345  15.544  0.00  0.00    +0.000 A 
ATOM      8  C   UNL     1       6.391   5.482  16.949  0.00  0.00    +0.000 A 
ATOM      9  C   UNL     1       4.467   2.642  18.115  0.00  0.00    +0.000 C 
ATOM     10  O   UNL     1       3.825   1.633  17.905  0.00  0.00    +0.000 OA
ENDROOT
BRANCH   1  15
ATOM     11  C   UNL     1       2.713   6.663  18.314  0.00  0.00    +0.000 A 
ATOM     12  C   UNL     1       1.678   6.086  17.563  0.00  0.00    +0.000 A 
ATOM     13  C   UNL     1       1.291   4.769  17.786  0.00  0.00    +0.000 A 
ATOM     14  C   UNL     1       2.007   3.979  18.677  0.00  0.00    +0.000 A 
ATOM     15  C   UNL     1       3.224   4.454  19.183  0.00  0.00    +0.000 A 
ATOM     16  C   UNL     1       3.477   5.833  19.149  0.00  0.00    +0.000 A 
BRANCH  11  17
ATOM     17  C   UNL     1       2.945   8.156  18.234  0.00  0.00    +0.000 C 
BRANCH  17  22
ATOM     18  N   UNL     1       1.091   9.104  19.732  0.00  0.00    +0.000 N 
ATOM     19  C   UNL     1       0.093  10.020  19.477  0.00  0.00    +0.000 A 
ATOM     20  N   UNL     1       0.144  10.446  18.240  0.00  0.00    +0.000 NA
ATOM     21  N   UNL     1       1.187   9.811  17.634  0.00  0.00    +0.000 NA
ATOM     22  C   UNL     1       1.751   9.003  18.512  0.00  0.00    +0.000 A 
BRANCH  18  24
ATOM     23  C   UNL     1       1.305   8.986  22.167  0.00  0.00    +0.000 C 
ATOM     24  C   UNL     1       1.367   8.452  20.937  0.00  0.00    +0.000 C 
ENDBRANCH  18  24
ENDBRANCH  17  22
ENDBRANCH  11  17
ENDBRANCH   1  15
BRANCH   8  25
ATOM     25  C   UNL     1       6.891   6.781  17.527  0.00  0.00    +0.000 C 
ATOM     26  F   UNL     1       7.416   6.672  18.778  0.00  0.00    +0.000 F 
ATOM     27  F   UNL     1       7.870   7.342  16.767  0.00  0.00    +0.000 F 
ATOM     28  F   UNL     1       5.909   7.721  17.626  0.00  0.00    +0.000 F 
ENDBRANCH   8  25
BRANCH   6  29
ATOM     29  C   UNL     1       5.566   4.152  13.422  0.00  0.00    +0.000 C 
BRANCH  29  30
ATOM     30  N   UNL     1       6.308   3.037  12.846  0.00  0.00    +0.000 NA
ATOM     31  H   UNL     1       5.687   2.501  12.240  0.00  0.00    +0.000 HD
ATOM     32  H   UNL     1       6.578   2.399  13.598  0.00  0.00    +0.000 HD
ENDBRANCH  29  30
ENDBRANCH   6  29
TORSDOF 7
ENDMDL
MODEL 8
REMARK VINA RESULT:      -7.6      6.974      9.585
REMARK  Name = 
REMARK  7 active torsions:
REMARK  status: ('A' for Active; 'I' for Inactive)
REMARK    1  A    between atoms: C_2  and  N_3
REMARK    2  A    between atoms: C_7  and  C_8
REMARK    3  A    between atoms: C_8  and  C_9
REMARK    4  A    between atoms: C_13  and  N_14
REMARK    5  A    between atoms: C_19  and  C_20
REMARK    6  A    between atoms: C_20  and  N_21
REMARK    7  A    between atoms: C_23  and  C_24
REMARK                            x       y       z     vdW  Elec       q    Type
REMARK                         _______ _______ _______ _____ _____    ______ ____
ROOT
ATOM      1  N   UNL     1      -0.325  11.570  18.468  0.00  0.00    +0.000 N 
ATOM      2  C   UNL     1       0.460  10.809  19.474  0.00  0.00    +0.000 C 
ATOM      3  C   UNL     1      -0.038  11.387  20.766  0.00  0.00    +0.000 A 
ATOM      4  C   UNL     1      -0.446  12.698  20.499  0.00  0.00    +0.000 A 
ATOM      5  C   UNL     1      -1.120  13.484  21.425  0.00  0.00    +0.000 A 
ATOM      6  C   UNL     1      -1.406  12.925  22.676  0.00  0.00    +0.000 A 
ATOM      7  C   UNL     1      -1.000  11.593  22.945  0.00  0.00    +0.000 A 
ATOM      8  C   UNL     1      -0.321  10.796  21.994  0.00  0.00    +0.000 A 
ATOM      9  C   UNL     1      -0.460  12.877  19.031  0.00  0.00    +0.000 C 
ATOM     10  O   UNL     1      -0.763  13.910  18.470  0.00  0.00    +0.000 OA
ENDROOT
BRANCH   1  15
ATOM     11  C   UNL     1      -3.829  11.445  17.460  0.00  0.00    +0.000 A 
ATOM     12  C   UNL     1      -3.654  10.575  16.372  0.00  0.00    +0.000 A 
ATOM     13  C   UNL     1      -2.559   9.719  16.320  0.00  0.00    +0.000 A 
ATOM     14  C   UNL     1      -1.569   9.802  17.291  0.00  0.00    +0.000 A 
ATOM     15  C   UNL     1      -1.583  10.877  18.189  0.00  0.00    +0.000 A 
ATOM     16  C   UNL     1      -2.783  11.575  18.387  0.00  0.00    +0.000 A 
BRANCH  11  17
ATOM     17  C   UNL     1      -5.142  12.176  17.620  0.00  0.00    +0.000 C 
BRANCH  17  22
ATOM     18  N   UNL     1      -6.432  11.223  19.622  0.00  0.00    +0.000 N 
ATOM     19  C   UNL     1      -6.656  11.726  20.885  0.00  0.00    +0.000 A 
ATOM     20  N   UNL     1      -6.093  12.899  21.035  0.00  0.00    +0.000 NA
ATOM     21  N   UNL     1      -5.479  13.209  19.858  0.00  0.00    +0.000 NA
ATOM     22  C   UNL     1      -5.683  12.220  19.008  0.00  0.00    +0.000 A 
BRANCH  18  24
ATOM     23  C   UNL     1      -7.130   8.883  19.804  0.00  0.00    +0.000 C 
ATOM     24  C   UNL     1      -6.853   9.994  19.104  0.00  0.00    +0.000 C 
ENDBRANCH  18  24
ENDBRANCH  17  22
ENDBRANCH  11  17
ENDBRANCH   1  15
BRANCH   8  25
ATOM     25  C   UNL     1      -0.061   9.344  22.303  0.00  0.00    +0.000 C 
ATOM     26  F   UNL     1      -0.317   8.991  23.593  0.00  0.00    +0.000 F 
ATOM     27  F   UNL     1      -0.818   8.511  21.539  0.00  0.00    +0.000 F 
ATOM     28  F   UNL     1       1.234   8.985  22.078  0.00  0.00    +0.000 F 
ENDBRANCH   8  25
BRANCH   6  29
ATOM     29  C   UNL     1      -2.195  13.704  23.703  0.00  0.00    +0.000 C 
BRANCH  29  30
ATOM     30  N   UNL     1      -2.876  14.851  23.114  0.00  0.00    +0.000 NA
ATOM     31  H   UNL     1      -3.801  14.941  23.534  0.00  0.00    +0.000 HD
ATOM     32  H   UNL     1      -3.039  14.663  22.123  0.00  0.00    +0.000 HD
ENDBRANCH  29  30
ENDBRANCH   6  29
TORSDOF 7
ENDMDL
MODEL 9
REMARK VINA RESULT:      -7.6      3.822      8.689
REMARK  Name = 
REMARK  7 active torsions:
REMARK  status: ('A' for Active; 'I' for Inactive)
REMARK    1  A    between atoms: C_2  and  N_3
REMARK    2  A    between atoms: C_7  and  C_8
REMARK    3  A    between atoms: C_8  and  C_9
REMARK    4  A    between atoms: C_13  and  N_14
REMARK    5  A    between atoms: C_19  and  C_20
REMARK    6  A    between atoms: C_20  and  N_21
REMARK    7  A    between atoms: C_23  and  C_24
REMARK                            x       y       z     vdW  Elec       q    Type
REMARK                         _______ _______ _______ _____ _____    ______ ____
ROOT
ATOM      1  N   UNL     1       0.028   9.145  20.989  0.00  0.00    +0.000 N 
ATOM      2  C   UNL     1      -1.142   9.131  20.074  0.00  0.00    +0.000 C 
ATOM      3  C   UNL     1      -1.183  10.552  19.593  0.00  0.00    +0.000 A 
ATOM      4  C   UNL     1      -0.627  11.343  20.603  0.00  0.00    +0.000 A 
ATOM      5  C   UNL     1      -0.346  12.694  20.438  0.00  0.00    +0.000 A 
ATOM      6  C   UNL     1      -0.630  13.276  19.197  0.00  0.00    +0.000 A 
ATOM      7  C   UNL     1      -1.187  12.473  18.169  0.00  0.00    +0.000 A 
ATOM      8  C   UNL     1      -1.462  11.097  18.342  0.00  0.00    +0.000 A 
ATOM      9  C   UNL     1      -0.004  10.440  21.594  0.00  0.00    +0.000 C 
ATOM     10  O   UNL     1       0.561  10.813  22.602  0.00  0.00    +0.000 OA
ENDROOT
BRANCH   1  15
ATOM     11  C   UNL     1       2.420   6.861  19.449  0.00  0.00    +0.000 A 
ATOM     12  C   UNL     1       2.315   7.370  18.146  0.00  0.00    +0.000 A 
ATOM     13  C   UNL     1       1.883   8.675  17.929  0.00  0.00    +0.000 A 
ATOM     14  C   UNL     1       1.443   9.445  18.997  0.00  0.00    +0.000 A 
ATOM     15  C   UNL     1       1.248   8.834  20.243  0.00  0.00    +0.000 A 
ATOM     16  C   UNL     1       1.896   7.620  20.508  0.00  0.00    +0.000 A 
BRANCH  11  17
ATOM     17  C   UNL     1       3.125   5.543  19.676  0.00  0.00    +0.000 C 
BRANCH  17  22
ATOM     18  N   UNL     1       3.294   3.688  17.912  0.00  0.00    +0.000 N 
ATOM     19  C   UNL     1       2.393   2.723  17.515  0.00  0.00    +0.000 A 
ATOM     20  N   UNL     1       1.272   2.817  18.184  0.00  0.00    +0.000 NA
ATOM     21  N   UNL     1       1.400   3.863  19.049  0.00  0.00    +0.000 NA
ATOM     22  C   UNL     1       2.598   4.393  18.887  0.00  0.00    +0.000 A 
BRANCH  18  24
ATOM     23  C   UNL     1       4.952   4.477  16.294  0.00  0.00    +0.000 C 
ATOM     24  C   UNL     1       4.597   3.886  17.445  0.00  0.00    +0.000 C 
ENDBRANCH  18  24
ENDBRANCH  17  22
ENDBRANCH  11  17
ENDBRANCH   1  15
BRANCH   8  25
ATOM     25  C   UNL     1      -1.909  10.282  17.156  0.00  0.00    +0.000 C 
ATOM     26  F   UNL     1      -1.010   9.345  16.749  0.00  0.00    +0.000 F 
ATOM     27  F   UNL     1      -3.061   9.600  17.403  0.00  0.00    +0.000 F 
ATOM     28  F   UNL     1      -2.158  11.050  16.058  0.00  0.00    +0.000 F 
ENDBRANCH   8  25
BRANCH   6  29
ATOM     29  C   UNL     1      -0.286  14.724  18.932  0.00  0.00    +0.000 C 
BRANCH  29  30
ATOM     30  N   UNL     1      -1.336  15.628  19.387  0.00  0.00    +0.000 NA
ATOM     31  H   UNL     1      -1.049  16.590  19.207  0.00  0.00    +0.000 HD
ATOM     32  H   UNL     1      -1.419  15.549  20.403  0.00  0.00    +0.000 HD
ENDBRANCH  29  30
ENDBRANCH   6  29
TORSDOF 7
ENDMDL
