MODEL 1
REMARK VINA RESULT:      -8.7      0.000      0.000
REMARK  Name = 
REMARK  6 active torsions:
REMARK  status: ('A' for Active; 'I' for Inactive)
REMARK    1  A    between atoms: C_2  and  C_4
REMARK    2  A    between atoms: C_8  and  C_9
REMARK    3  A    between atoms: N_11  and  C_12
REMARK    4  A    between atoms: C_16  and  N_17
REMARK    5  A    between atoms: N_17  and  S_18
REMARK    6  A    between atoms: S_18  and  C_21
REMARK                            x       y       z     vdW  Elec       q    Type
REMARK                         _______ _______ _______ _____ _____    ______ ____
ROOT
ATOM      1  C   UNL     1       2.878   5.724  19.067  0.00  0.00    +0.000 A 
ATOM      2  C   UNL     1       2.308   4.615  18.436  0.00  0.00    +0.000 A 
ATOM      3  C   UNL     1       3.081   3.495  18.120  0.00  0.00    +0.000 A 
ATOM      4  C   UNL     1       4.442   3.482  18.413  0.00  0.00    +0.000 A 
ATOM      5  C   UNL     1       5.029   4.598  19.002  0.00  0.00    +0.000 A 
ATOM      6  C   UNL     1       4.256   5.718  19.329  0.00  0.00    +0.000 A 
ENDROOT
BRANCH   1   9
ATOM      7  C   UNL     1       2.076   8.065  18.782  0.00  0.00    +0.000 C 
ATOM      8  O   UNL     1       2.623   8.323  17.713  0.00  0.00    +0.000 OA
ATOM      9  N   UNL     1       2.125   6.855  19.459  0.00  0.00    +0.000 N 
ATOM     10  H   UNL     1       1.469   6.715  20.217  0.00  0.00    +0.000 HD
BRANCH   7  15
ATOM     11  C   UNL     1       0.160  10.186  21.286  0.00  0.00    +0.000 A 
ATOM     12  C   UNL     1      -0.304  11.215  20.456  0.00  0.00    +0.000 A 
ATOM     13  C   UNL     1      -0.011  11.197  19.092  0.00  0.00    +0.000 A 
ATOM     14  C   UNL     1       0.748  10.154  18.559  0.00  0.00    +0.000 A 
ATOM     15  C   UNL     1       1.220   9.123  19.386  0.00  0.00    +0.000 A 
ATOM     16  C   UNL     1       0.934   9.145  20.752  0.00  0.00    +0.000 A 
BRANCH  11  18
ATOM     17  N   UNL     1      -1.277  10.756  23.166  0.00  0.00    +0.000 N 
ATOM     18  C   UNL     1      -0.114  10.174  22.746  0.00  0.00    +0.000 C 
ATOM     19  O   UNL     1       0.640   9.618  23.532  0.00  0.00    +0.000 OA
ATOM     20  H   UNL     1      -1.504  10.652  24.147  0.00  0.00    +0.000 HD
ATOM     21  H   UNL     1      -2.029  10.989  22.533  0.00  0.00    +0.000 HD
ENDBRANCH  11  18
ENDBRANCH   7  15
ENDBRANCH   1   9
BRANCH   5  22
ATOM     22  N   UNL     1       6.407   4.568  19.324  0.00  0.00    +0.000 N 
ATOM     23  H   UNL     1       6.714   4.374  20.274  0.00  0.00    +0.000 HD
BRANCH  22  24
ATOM     24  S   UNL     1       7.569   5.100  18.244  0.00  0.00    +0.000 S 
ATOM     25  O   UNL     1       7.877   6.463  18.624  0.00  0.00    +0.000 OA
ATOM     26  O   UNL     1       8.611   4.104  18.123  0.00  0.00    +0.000 OA
BRANCH  24  27
ATOM     27  C   UNL     1       6.684   5.164  16.703  0.00  0.00    +0.000 A 
ATOM     28  C   UNL     1       6.739   4.081  15.819  0.00  0.00    +0.000 A 
ATOM     29  C   UNL     1       6.014   4.129  14.627  0.00  0.00    +0.000 A 
ATOM     30  C   UNL     1       5.238   5.251  14.327  0.00  0.00    +0.000 A 
ATOM     31  C   UNL     1       5.176   6.323  15.218  0.00  0.00    +0.000 A 
ATOM     32  C   UNL     1       5.892   6.280  16.414  0.00  0.00    +0.000 A 
ENDBRANCH  24  27
ENDBRANCH  22  24
ENDBRANCH   5  22
TORSDOF 6
ENDMDL
MODEL 2
REMARK VINA RESULT:      -8.6      0.544      1.066
REMARK  Name = 
REMARK  6 active torsions:
REMARK  status: ('A' for Active; 'I' for Inactive)
REMARK    1  A    between atoms: C_2  and  C_4
REMARK    2  A    between atoms: C_8  and  C_9
REMARK    3  A    between atoms: N_11  and  C_12
REMARK    4  A    between atoms: C_16  and  N_17
REMARK    5  A    between atoms: N_17  and  S_18
REMARK    6  A    between atoms: S_18  and  C_21
REMARK                            x       y       z     vdW  Elec       q    Type
REMARK                         _______ _______ _______ _____ _____    ______ ____
ROOT
ATOM      1  C   UNL     1       2.824   5.625  19.038  0.00  0.00    +0.000 A 
ATOM      2  C   UNL     1       2.245   4.472  18.502  0.00  0.00    +0.000 A 
ATOM      3  C   UNL     1       3.015   3.333  18.253  0.00  0.00    +0.000 A 
ATOM      4  C   UNL     1       4.382   3.344  18.519  0.00  0.00    +0.000 A 
ATOM      5  C   UNL     1       4.977   4.502  19.012  0.00  0.00    +0.000 A 
ATOM      6  C   UNL     1       4.207   5.641  19.271  0.00  0.00    +0.000 A 
ENDROOT
BRANCH   1   9
ATOM      7  C   UNL     1       2.176   8.011  18.726  0.00  0.00    +0.000 C 
ATOM      8  O   UNL     1       2.878   8.272  17.752  0.00  0.00    +0.000 OA
ATOM      9  N   UNL     1       2.075   6.781  19.360  0.00  0.00    +0.000 N 
ATOM     10  H   UNL     1       1.314   6.652  20.016  0.00  0.00    +0.000 HD
BRANCH   7  15
ATOM     11  C   UNL     1       0.073  10.185  21.026  0.00  0.00    +0.000 A 
ATOM     12  C   UNL     1      -0.274  11.226  20.156  0.00  0.00    +0.000 A 
ATOM     13  C   UNL     1       0.157  11.200  18.829  0.00  0.00    +0.000 A 
ATOM     14  C   UNL     1       0.937  10.136  18.374  0.00  0.00    +0.000 A 
ATOM     15  C   UNL     1       1.292   9.092  19.241  0.00  0.00    +0.000 A 
ATOM     16  C   UNL     1       0.868   9.122  20.572  0.00  0.00    +0.000 A 
BRANCH  11  18
ATOM     17  N   UNL     1      -0.673   8.971  22.999  0.00  0.00    +0.000 N 
ATOM     18  C   UNL     1      -0.349  10.180  22.450  0.00  0.00    +0.000 C 
ATOM     19  O   UNL     1      -0.353  11.203  23.119  0.00  0.00    +0.000 OA
ATOM     20  H   UNL     1      -0.859   8.962  23.994  0.00  0.00    +0.000 HD
ATOM     21  H   UNL     1      -0.437   8.092  22.559  0.00  0.00    +0.000 HD
ENDBRANCH  11  18
ENDBRANCH   7  15
ENDBRANCH   1   9
BRANCH   5  22
ATOM     22  N   UNL     1       6.361   4.498  19.307  0.00  0.00    +0.000 N 
ATOM     23  H   UNL     1       6.691   4.305  20.249  0.00  0.00    +0.000 HD
BRANCH  22  24
ATOM     24  S   UNL     1       7.491   5.060  18.208  0.00  0.00    +0.000 S 
ATOM     25  O   UNL     1       7.735   6.446  18.555  0.00  0.00    +0.000 OA
ATOM     26  O   UNL     1       8.579   4.113  18.103  0.00  0.00    +0.000 OA
BRANCH  24  27
ATOM     27  C   UNL     1       6.595   5.047  16.671  0.00  0.00    +0.000 A 
ATOM     28  C   UNL     1       5.831   6.158  16.298  0.00  0.00    +0.000 A 
ATOM     29  C   UNL     1       5.159   6.150  15.075  0.00  0.00    +0.000 A 
ATOM     30  C   UNL     1       5.255   5.040  14.233  0.00  0.00    +0.000 A 
ATOM     31  C   UNL     1       6.028   3.940  14.605  0.00  0.00    +0.000 A 
ATOM     32  C   UNL     1       6.709   3.943  15.821  0.00  0.00    +0.000 A 
ENDBRANCH  24  27
ENDBRANCH  22  24
ENDBRANCH   5  22
TORSDOF 6
ENDMDL
MODEL 3
REMARK VINA RESULT:      -8.6      1.679      2.103
REMARK  Name = 
REMARK  6 active torsions:
REMARK  status: ('A' for Active; 'I' for Inactive)
REMARK    1  A    between atoms: C_2  and  C_4
REMARK    2  A    between atoms: C_8  and  C_9
REMARK    3  A    between atoms: N_11  and  C_12
REMARK    4  A    between atoms: C_16  and  N_17
REMARK    5  A    between atoms: N_17  and  S_18
REMARK    6  A    between atoms: S_18  and  C_21
REMARK                            x       y       z     vdW  Elec       q    Type
REMARK                         _______ _______ _______ _____ _____    ______ ____
ROOT
ATOM      1  C   UNL     1       2.805   5.723  18.908  0.00  0.00    +0.000 A 
ATOM      2  C   UNL     1       2.131   4.678  18.269  0.00  0.00    +0.000 A 
ATOM      3  C   UNL     1       2.801   3.505  17.916  0.00  0.00    +0.000 A 
ATOM      4  C   UNL     1       4.162   3.372  18.180  0.00  0.00    +0.000 A 
ATOM      5  C   UNL     1       4.852   4.423  18.778  0.00  0.00    +0.000 A 
ATOM      6  C   UNL     1       4.181   5.596  19.142  0.00  0.00    +0.000 A 
ENDROOT
BRANCH   1   9
ATOM      7  C   UNL     1       2.114   8.101  18.635  0.00  0.00    +0.000 C 
ATOM      8  O   UNL     1       2.573   8.303  17.514  0.00  0.00    +0.000 OA
ATOM      9  N   UNL     1       2.156   6.905  19.337  0.00  0.00    +0.000 N 
ATOM     10  H   UNL     1       1.566   6.820  20.156  0.00  0.00    +0.000 HD
BRANCH   7  15
ATOM     11  C   UNL     1       0.352  11.414  19.239  0.00  0.00    +0.000 A 
ATOM     12  C   UNL     1      -0.111  11.229  20.548  0.00  0.00    +0.000 A 
ATOM     13  C   UNL     1       0.173  10.043  21.228  0.00  0.00    +0.000 A 
ATOM     14  C   UNL     1       0.916   9.044  20.598  0.00  0.00    +0.000 A 
ATOM     15  C   UNL     1       1.379   9.220  19.286  0.00  0.00    +0.000 A 
ATOM     16  C   UNL     1       1.088  10.403  18.602  0.00  0.00    +0.000 A 
BRANCH  11  18
ATOM     17  N   UNL     1      -1.088  12.666  17.729  0.00  0.00    +0.000 N 
ATOM     18  C   UNL     1       0.060  12.651  18.472  0.00  0.00    +0.000 C 
ATOM     19  O   UNL     1       0.783  13.634  18.544  0.00  0.00    +0.000 OA
ATOM     20  H   UNL     1      -1.332  13.546  17.293  0.00  0.00    +0.000 HD
ATOM     21  H   UNL     1      -1.823  11.984  17.850  0.00  0.00    +0.000 HD
ENDBRANCH  11  18
ENDBRANCH   7  15
ENDBRANCH   1   9
BRANCH   5  22
ATOM     22  N   UNL     1       6.228   4.272  19.070  0.00  0.00    +0.000 N 
ATOM     23  H   UNL     1       6.531   3.881  19.959  0.00  0.00    +0.000 HD
BRANCH  22  24
ATOM     24  S   UNL     1       7.408   4.956  18.102  0.00  0.00    +0.000 S 
ATOM     25  O   UNL     1       7.540   6.331  18.540  0.00  0.00    +0.000 OA
ATOM     26  O   UNL     1       8.556   4.078  18.040  0.00  0.00    +0.000 OA
BRANCH  24  27
ATOM     27  C   UNL     1       6.644   4.981  16.496  0.00  0.00    +0.000 A 
ATOM     28  C   UNL     1       6.791   3.888  15.635  0.00  0.00    +0.000 A 
ATOM     29  C   UNL     1       6.159   3.904  14.390  0.00  0.00    +0.000 A 
ATOM     30  C   UNL     1       5.385   5.003  14.015  0.00  0.00    +0.000 A 
ATOM     31  C   UNL     1       5.232   6.086  14.882  0.00  0.00    +0.000 A 
ATOM     32  C   UNL     1       5.853   6.074  16.131  0.00  0.00    +0.000 A 
ENDBRANCH  24  27
ENDBRANCH  22  24
ENDBRANCH   5  22
TORSDOF 6
ENDMDL
MODEL 4
REMARK VINA RESULT:      -8.5      2.003      2.547
REMARK  Name = 
REMARK  6 active torsions:
REMARK  status: ('A' for Active; 'I' for Inactive)
REMARK    1  A    between atoms: C_2  and  C_4
REMARK    2  A    between atoms: C_8  and  C_9
REMARK    3  A    between atoms: N_11  and  C_12
REMARK    4  A    between atoms: C_16  and  N_17
REMARK    5  A    between atoms: N_17  and  S_18
REMARK    6  A    between atoms: S_18  and  C_21
REMARK                            x       y       z     vdW  Elec       q    Type
REMARK                         _______ _______ _______ _____ _____    ______ ____
ROOT
ATOM      1  C   UNL     1       2.437   5.008  20.453  0.00  0.00    +0.000 A 
ATOM      2  C   UNL     1       2.058   3.962  21.299  0.00  0.00    +0.000 A 
ATOM      3  C   UNL     1       2.687   2.717  21.224  0.00  0.00    +0.000 A 
ATOM      4  C   UNL     1       3.690   2.498  20.283  0.00  0.00    +0.000 A 
ATOM      5  C   UNL     1       4.046   3.519  19.407  0.00  0.00    +0.000 A 
ATOM      6  C   UNL     1       3.424   4.770  19.486  0.00  0.00    +0.000 A 
ENDROOT
BRANCH   1   9
ATOM      7  C   UNL     1       2.105   7.339  19.640  0.00  0.00    +0.000 C 
ATOM      8  O   UNL     1       2.782   7.281  18.617  0.00  0.00    +0.000 OA
ATOM      9  N   UNL     1       1.871   6.302  20.531  0.00  0.00    +0.000 N 
ATOM     10  H   UNL     1       1.135   6.428  21.215  0.00  0.00    +0.000 HD
BRANCH   7  15
ATOM     11  C   UNL     1       0.238  10.133  21.417  0.00  0.00    +0.000 A 
ATOM     12  C   UNL     1       0.210  11.108  20.412  0.00  0.00    +0.000 A 
ATOM     13  C   UNL     1       0.774  10.841  19.164  0.00  0.00    +0.000 A 
ATOM     14  C   UNL     1       1.369   9.602  18.922  0.00  0.00    +0.000 A 
ATOM     15  C   UNL     1       1.405   8.622  19.925  0.00  0.00    +0.000 A 
ATOM     16  C   UNL     1       0.849   8.892  21.177  0.00  0.00    +0.000 A 
BRANCH  11  18
ATOM     17  N   UNL     1      -0.477   9.297  23.587  0.00  0.00    +0.000 N 
ATOM     18  C   UNL     1      -0.334  10.379  22.765  0.00  0.00    +0.000 C 
ATOM     19  O   UNL     1      -0.614  11.507  23.144  0.00  0.00    +0.000 OA
ATOM     20  H   UNL     1      -0.770   9.488  24.537  0.00  0.00    +0.000 HD
ATOM     21  H   UNL     1      -0.025   8.412  23.406  0.00  0.00    +0.000 HD
ENDBRANCH  11  18
ENDBRANCH   7  15
ENDBRANCH   1   9
BRANCH   5  22
ATOM     22  N   UNL     1       5.085   3.299  18.472  0.00  0.00    +0.000 N 
ATOM     23  H   UNL     1       5.857   2.675  18.691  0.00  0.00    +0.000 HD
BRANCH  22  24
ATOM     24  S   UNL     1       5.235   4.236  17.094  0.00  0.00    +0.000 S 
ATOM     25  O   UNL     1       5.941   3.420  16.128  0.00  0.00    +0.000 OA
ATOM     26  O   UNL     1       3.959   4.837  16.774  0.00  0.00    +0.000 OA
BRANCH  24  27
ATOM     27  C   UNL     1       6.342   5.530  17.609  0.00  0.00    +0.000 A 
ATOM     28  C   UNL     1       7.258   5.297  18.641  0.00  0.00    +0.000 A 
ATOM     29  C   UNL     1       8.144   6.308  19.015  0.00  0.00    +0.000 A 
ATOM     30  C   UNL     1       8.116   7.539  18.357  0.00  0.00    +0.000 A 
ATOM     31  C   UNL     1       7.209   7.762  17.320  0.00  0.00    +0.000 A 
ATOM     32  C   UNL     1       6.325   6.754  16.935  0.00  0.00    +0.000 A 
ENDBRANCH  24  27
ENDBRANCH  22  24
ENDBRANCH   5  22
TORSDOF 6
ENDMDL
MODEL 5
REMARK VINA RESULT:      -8.5      1.335      1.773
REMARK  Name = 
REMARK  6 active torsions:
REMARK  status: ('A' for Active; 'I' for Inactive)
REMARK    1  A    between atoms: C_2  and  C_4
REMARK    2  A    between atoms: C_8  and  C_9
REMARK    3  A    between atoms: N_11  and  C_12
REMARK    4  A    between atoms: C_16  and  N_17
REMARK    5  A    between atoms: N_17  and  S_18
REMARK    6  A    between atoms: S_18  and  C_21
REMARK                            x       y       z     vdW  Elec       q    Type
REMARK                         _______ _______ _______ _____ _____    ______ ____
ROOT
ATOM      1  C   UNL     1       2.685   5.462  19.194  0.00  0.00    +0.000 A 
ATOM      2  C   UNL     1       2.017   4.563  18.358  0.00  0.00    +0.000 A 
ATOM      3  C   UNL     1       2.700   3.503  17.756  0.00  0.00    +0.000 A 
ATOM      4  C   UNL     1       4.066   3.343  17.968  0.00  0.00    +0.000 A 
ATOM      5  C   UNL     1       4.750   4.258  18.765  0.00  0.00    +0.000 A 
ATOM      6  C   UNL     1       4.068   5.315  19.377  0.00  0.00    +0.000 A 
ENDROOT
BRANCH   1   9
ATOM      7  C   UNL     1       1.983   7.838  19.455  0.00  0.00    +0.000 C 
ATOM      8  O   UNL     1       2.451   8.289  18.413  0.00  0.00    +0.000 OA
ATOM      9  N   UNL     1       2.026   6.515  19.871  0.00  0.00    +0.000 N 
ATOM     10  H   UNL     1       1.430   6.246  20.644  0.00  0.00    +0.000 HD
BRANCH   7  15
ATOM     11  C   UNL     1      -0.295  10.626  20.671  0.00  0.00    +0.000 A 
ATOM     12  C   UNL     1      -0.228  10.433  22.057  0.00  0.00    +0.000 A 
ATOM     13  C   UNL     1       0.572   9.418  22.582  0.00  0.00    +0.000 A 
ATOM     14  C   UNL     1       1.302   8.595  21.723  0.00  0.00    +0.000 A 
ATOM     15  C   UNL     1       1.235   8.780  20.333  0.00  0.00    +0.000 A 
ATOM     16  C   UNL     1       0.428   9.790  19.807  0.00  0.00    +0.000 A 
BRANCH  11  18
ATOM     17  N   UNL     1      -2.075  12.273  20.878  0.00  0.00    +0.000 N 
ATOM     18  C   UNL     1      -1.147  11.683  20.067  0.00  0.00    +0.000 C 
ATOM     19  O   UNL     1      -0.988  12.049  18.911  0.00  0.00    +0.000 OA
ATOM     20  H   UNL     1      -2.579  13.060  20.489  0.00  0.00    +0.000 HD
ATOM     21  H   UNL     1      -2.058  12.179  21.884  0.00  0.00    +0.000 HD
ENDBRANCH  11  18
ENDBRANCH   7  15
ENDBRANCH   1   9
BRANCH   5  22
ATOM     22  N   UNL     1       6.133   4.074  19.000  0.00  0.00    +0.000 N 
ATOM     23  H   UNL     1       6.458   3.560  19.815  0.00  0.00    +0.000 HD
BRANCH  22  24
ATOM     24  S   UNL     1       7.288   4.899  18.114  0.00  0.00    +0.000 S 
ATOM     25  O   UNL     1       7.306   6.250  18.637  0.00  0.00    +0.000 OA
ATOM     26  O   UNL     1       8.499   4.110  18.040  0.00  0.00    +0.000 OA
BRANCH  24  27
ATOM     27  C   UNL     1       6.572   4.968  16.488  0.00  0.00    +0.000 A 
ATOM     28  C   UNL     1       6.773   3.914  15.590  0.00  0.00    +0.000 A 
ATOM     29  C   UNL     1       6.178   3.963  14.328  0.00  0.00    +0.000 A 
ATOM     30  C   UNL     1       5.387   5.057  13.972  0.00  0.00    +0.000 A 
ATOM     31  C   UNL     1       5.180   6.100  14.875  0.00  0.00    +0.000 A 
ATOM     32  C   UNL     1       5.764   6.055  16.141  0.00  0.00    +0.000 A 
ENDBRANCH  24  27
ENDBRANCH  22  24
ENDBRANCH   5  22
TORSDOF 6
ENDMDL
MODEL 6
REMARK VINA RESULT:      -8.4      2.067      2.638
REMARK  Name = 
REMARK  6 active torsions:
REMARK  status: ('A' for Active; 'I' for Inactive)
REMARK    1  A    between atoms: C_2  and  C_4
REMARK    2  A    between atoms: C_8  and  C_9
REMARK    3  A    between atoms: N_11  and  C_12
REMARK    4  A    between atoms: C_16  and  N_17
REMARK    5  A    between atoms: N_17  and  S_18
REMARK    6  A    between atoms: S_18  and  C_21
REMARK                            x       y       z     vdW  Elec       q    Type
REMARK                         _______ _______ _______ _____ _____    ______ ____
ROOT
ATOM      1  C   UNL     1       2.443   4.879  18.230  0.00  0.00    +0.000 A 
ATOM      2  C   UNL     1       1.692   3.713  18.404  0.00  0.00    +0.000 A 
ATOM      3  C   UNL     1       2.200   2.471  18.016  0.00  0.00    +0.000 A 
ATOM      4  C   UNL     1       3.459   2.385  17.428  0.00  0.00    +0.000 A 
ATOM      5  C   UNL     1       4.198   3.545  17.211  0.00  0.00    +0.000 A 
ATOM      6  C   UNL     1       3.696   4.790  17.608  0.00  0.00    +0.000 A 
ENDROOT
BRANCH   1   9
ATOM      7  C   UNL     1       1.908   6.570  19.981  0.00  0.00    +0.000 C 
ATOM      8  O   UNL     1       2.262   5.935  20.971  0.00  0.00    +0.000 OA
ATOM      9  N   UNL     1       1.996   6.150  18.661  0.00  0.00    +0.000 N 
ATOM     10  H   UNL     1       1.860   6.846  17.938  0.00  0.00    +0.000 HD
BRANCH   7  15
ATOM     11  C   UNL     1       0.433   9.674  21.603  0.00  0.00    +0.000 A 
ATOM     12  C   UNL     1       0.572  10.603  20.564  0.00  0.00    +0.000 A 
ATOM     13  C   UNL     1       1.120  10.207  19.342  0.00  0.00    +0.000 A 
ATOM     14  C   UNL     1       1.531   8.886  19.162  0.00  0.00    +0.000 A 
ATOM     15  C   UNL     1       1.399   7.951  20.200  0.00  0.00    +0.000 A 
ATOM     16  C   UNL     1       0.859   8.349  21.425  0.00  0.00    +0.000 A 
BRANCH  11  18
ATOM     17  N   UNL     1      -1.224  10.871  22.923  0.00  0.00    +0.000 N 
ATOM     18  C   UNL     1      -0.128  10.054  22.924  0.00  0.00    +0.000 C 
ATOM     19  O   UNL     1       0.334   9.612  23.966  0.00  0.00    +0.000 OA
ATOM     20  H   UNL     1      -1.661  11.041  23.820  0.00  0.00    +0.000 HD
ATOM     21  H   UNL     1      -1.776  11.041  22.094  0.00  0.00    +0.000 HD
ENDBRANCH  11  18
ENDBRANCH   7  15
ENDBRANCH   1   9
BRANCH   5  22
ATOM     22  N   UNL     1       5.489   3.449  16.639  0.00  0.00    +0.000 N 
ATOM     23  H   UNL     1       6.114   2.688  16.894  0.00  0.00    +0.000 HD
BRANCH  22  24
ATOM     24  S   UNL     1       6.141   4.697  15.736  0.00  0.00    +0.000 S 
ATOM     25  O   UNL     1       7.177   4.102  14.917  0.00  0.00    +0.000 OA
ATOM     26  O   UNL     1       5.075   5.476  15.144  0.00  0.00    +0.000 OA
BRANCH  24  27
ATOM     27  C   UNL     1       6.945   5.701  16.964  0.00  0.00    +0.000 A 
ATOM     28  C   UNL     1       7.436   5.114  18.136  0.00  0.00    +0.000 A 
ATOM     29  C   UNL     1       8.094   5.907  19.078  0.00  0.00    +0.000 A 
ATOM     30  C   UNL     1       8.262   7.273  18.845  0.00  0.00    +0.000 A 
ATOM     31  C   UNL     1       7.782   7.851  17.669  0.00  0.00    +0.000 A 
ATOM     32  C   UNL     1       7.130   7.065  16.720  0.00  0.00    +0.000 A 
ENDBRANCH  24  27
ENDBRANCH  22  24
ENDBRANCH   5  22
TORSDOF 6
ENDMDL
MODEL 7
REMARK VINA RESULT:      -8.4      2.527      4.194
REMARK  Name = 
REMARK  6 active torsions:
REMARK  status: ('A' for Active; 'I' for Inactive)
REMARK    1  A    between atoms: C_2  and  C_4
REMARK    2  A    between atoms: C_8  and  C_9
REMARK    3  A    between atoms: N_11  and  C_12
REMARK    4  A    between atoms: C_16  and  N_17
REMARK    5  A    between atoms: N_17  and  S_18
REMARK    6  A    between atoms: S_18  and  C_21
REMARK                            x       y       z     vdW  Elec       q    Type
REMARK                         _______ _______ _______ _____ _____    ______ ____
ROOT
ATOM      1  C   UNL     1       3.985   6.765  17.296  0.00  0.00    +0.000 A 
ATOM      2  C   UNL     1       4.825   7.044  16.213  0.00  0.00    +0.000 A 
ATOM      3  C   UNL     1       5.655   6.056  15.679  0.00  0.00    +0.000 A 
ATOM      4  C   UNL     1       5.671   4.781  16.237  0.00  0.00    +0.000 A 
ATOM      5  C   UNL     1       4.870   4.504  17.342  0.00  0.00    +0.000 A 
ATOM      6  C   UNL     1       4.030   5.488  17.874  0.00  0.00    +0.000 A 
ENDROOT
BRANCH   1   9
ATOM      7  C   UNL     1       2.356   7.562  19.003  0.00  0.00    +0.000 C 
ATOM      8  O   UNL     1       2.423   6.617  19.785  0.00  0.00    +0.000 OA
ATOM      9  N   UNL     1       3.085   7.715  17.833  0.00  0.00    +0.000 N 
ATOM     10  H   UNL     1       3.082   8.627  17.394  0.00  0.00    +0.000 HD
BRANCH   7  15
ATOM     11  C   UNL     1       0.191   9.970  20.993  0.00  0.00    +0.000 A 
ATOM     12  C   UNL     1      -0.127  10.912  20.006  0.00  0.00    +0.000 A 
ATOM     13  C   UNL     1       0.343  10.743  18.703  0.00  0.00    +0.000 A 
ATOM     14  C   UNL     1       1.133   9.637  18.388  0.00  0.00    +0.000 A 
ATOM     15  C   UNL     1       1.460   8.692  19.373  0.00  0.00    +0.000 A 
ATOM     16  C   UNL     1       0.997   8.865  20.679  0.00  0.00    +0.000 A 
BRANCH  11  18
ATOM     17  N   UNL     1      -0.659   8.980  23.047  0.00  0.00    +0.000 N 
ATOM     18  C   UNL     1      -0.273  10.118  22.396  0.00  0.00    +0.000 C 
ATOM     19  O   UNL     1      -0.258  11.201  22.963  0.00  0.00    +0.000 OA
ATOM     20  H   UNL     1      -0.874   9.075  24.031  0.00  0.00    +0.000 HD
ATOM     21  H   UNL     1      -0.443   8.056  22.702  0.00  0.00    +0.000 HD
ENDBRANCH  11  18
ENDBRANCH   7  15
ENDBRANCH   1   9
BRANCH   5  22
ATOM     22  N   UNL     1       4.869   3.198  17.887  0.00  0.00    +0.000 N 
ATOM     23  H   UNL     1       5.736   2.759  18.185  0.00  0.00    +0.000 HD
BRANCH  22  24
ATOM     24  S   UNL     1       3.508   2.226  17.825  0.00  0.00    +0.000 S 
ATOM     25  O   UNL     1       2.718   2.711  16.711  0.00  0.00    +0.000 OA
ATOM     26  O   UNL     1       3.899   0.837  17.915  0.00  0.00    +0.000 OA
BRANCH  24  27
ATOM     27  C   UNL     1       2.642   2.656  19.318  0.00  0.00    +0.000 A 
ATOM     28  C   UNL     1       1.332   3.145  19.250  0.00  0.00    +0.000 A 
ATOM     29  C   UNL     1       0.650   3.448  20.430  0.00  0.00    +0.000 A 
ATOM     30  C   UNL     1       1.274   3.259  21.664  0.00  0.00    +0.000 A 
ATOM     31  C   UNL     1       2.575   2.760  21.727  0.00  0.00    +0.000 A 
ATOM     32  C   UNL     1       3.261   2.447  20.554  0.00  0.00    +0.000 A 
ENDBRANCH  24  27
ENDBRANCH  22  24
ENDBRANCH   5  22
TORSDOF 6
ENDMDL
MODEL 8
REMARK VINA RESULT:      -8.4      2.445      4.132
REMARK  Name = 
REMARK  6 active torsions:
REMARK  status: ('A' for Active; 'I' for Inactive)
REMARK    1  A    between atoms: C_2  and  C_4
REMARK    2  A    between atoms: C_8  and  C_9
REMARK    3  A    between atoms: N_11  and  C_12
REMARK    4  A    between atoms: C_16  and  N_17
REMARK    5  A    between atoms: N_17  and  S_18
REMARK    6  A    between atoms: S_18  and  C_21
REMARK                            x       y       z     vdW  Elec       q    Type
REMARK                         _______ _______ _______ _____ _____    ______ ____
ROOT
ATOM      1  C   UNL     1       3.626   6.847  17.949  0.00  0.00    +0.000 A 
ATOM      2  C   UNL     1       4.434   7.382  16.942  0.00  0.00    +0.000 A 
ATOM      3  C   UNL     1       5.335   6.574  16.243  0.00  0.00    +0.000 A 
ATOM      4  C   UNL     1       5.452   5.224  16.561  0.00  0.00    +0.000 A 
ATOM      5  C   UNL     1       4.683   4.690  17.591  0.00  0.00    +0.000 A 
ATOM      6  C   UNL     1       3.773   5.494  18.287  0.00  0.00    +0.000 A 
ENDROOT
BRANCH   1   9
ATOM      7  C   UNL     1       2.007   8.731  18.145  0.00  0.00    +0.000 C 
ATOM      8  O   UNL     1       2.117   9.193  17.012  0.00  0.00    +0.000 OA
ATOM      9  N   UNL     1       2.659   7.612  18.643  0.00  0.00    +0.000 N 
ATOM     10  H   UNL     1       2.326   7.226  19.518  0.00  0.00    +0.000 HD
BRANCH   7  15
ATOM     11  C   UNL     1       0.181   9.886  21.272  0.00  0.00    +0.000 A 
ATOM     12  C   UNL     1      -0.772  10.748  20.714  0.00  0.00    +0.000 A 
ATOM     13  C   UNL     1      -0.828  10.926  19.331  0.00  0.00    +0.000 A 
ATOM     14  C   UNL     1       0.071  10.246  18.507  0.00  0.00    +0.000 A 
ATOM     15  C   UNL     1       1.031   9.386  19.059  0.00  0.00    +0.000 A 
ATOM     16  C   UNL     1       1.093   9.214  20.444  0.00  0.00    +0.000 A 
BRANCH  11  18
ATOM     17  N   UNL     1      -0.880   9.522  23.431  0.00  0.00    +0.000 N 
ATOM     18  C   UNL     1       0.288   9.680  22.738  0.00  0.00    +0.000 C 
ATOM     19  O   UNL     1       1.373   9.598  23.295  0.00  0.00    +0.000 OA
ATOM     20  H   UNL     1      -0.794   9.279  24.410  0.00  0.00    +0.000 HD
ATOM     21  H   UNL     1      -1.761   9.329  22.976  0.00  0.00    +0.000 HD
ENDBRANCH  11  18
ENDBRANCH   7  15
ENDBRANCH   1   9
BRANCH   5  22
ATOM     22  N   UNL     1       4.786   3.311  17.891  0.00  0.00    +0.000 N 
ATOM     23  H   UNL     1       5.695   2.873  18.015  0.00  0.00    +0.000 HD
BRANCH  22  24
ATOM     24  S   UNL     1       3.460   2.294  17.795  0.00  0.00    +0.000 S 
ATOM     25  O   UNL     1       2.637   2.808  16.719  0.00  0.00    +0.000 OA
ATOM     26  O   UNL     1       3.903   0.917  17.806  0.00  0.00    +0.000 OA
BRANCH  24  27
ATOM     27  C   UNL     1       2.602   2.612  19.320  0.00  0.00    +0.000 A 
ATOM     28  C   UNL     1       1.245   2.953  19.300  0.00  0.00    +0.000 A 
ATOM     29  C   UNL     1       0.573   3.169  20.504  0.00  0.00    +0.000 A 
ATOM     30  C   UNL     1       1.253   3.039  21.716  0.00  0.00    +0.000 A 
ATOM     31  C   UNL     1       2.604   2.686  21.731  0.00  0.00    +0.000 A 
ATOM     32  C   UNL     1       3.280   2.462  20.532  0.00  0.00    +0.000 A 
ENDBRANCH  24  27
ENDBRANCH  22  24
ENDBRANCH   5  22
TORSDOF 6
ENDMDL
MODEL 9
REMARK VINA RESULT:      -8.3      2.132      2.774
REMARK  Name = 
REMARK  6 active torsions:
REMARK  status: ('A' for Active; 'I' for Inactive)
REMARK    1  A    between atoms: C_2  and  C_4
REMARK    2  A    between atoms: C_8  and  C_9
REMARK    3  A    between atoms: N_11  and  C_12
REMARK    4  A    between atoms: C_16  and  N_17
REMARK    5  A    between atoms: N_17  and  S_18
REMARK    6  A    between atoms: S_18  and  C_21
REMARK                            x       y       z     vdW  Elec       q    Type
REMARK                         _______ _______ _______ _____ _____    ______ ____
ROOT
ATOM      1  C   UNL     1       2.460   5.024  18.130  0.00  0.00    +0.000 A 
ATOM      2  C   UNL     1       1.710   3.867  18.364  0.00  0.00    +0.000 A 
ATOM      3  C   UNL     1       2.206   2.610  18.010  0.00  0.00    +0.000 A 
ATOM      4  C   UNL     1       3.452   2.498  17.397  0.00  0.00    +0.000 A 
ATOM      5  C   UNL     1       4.188   3.647  17.121  0.00  0.00    +0.000 A 
ATOM      6  C   UNL     1       3.699   4.907  17.482  0.00  0.00    +0.000 A 
ENDROOT
BRANCH   1   9
ATOM      7  C   UNL     1       1.868   6.744  19.832  0.00  0.00    +0.000 C 
ATOM      8  O   UNL     1       2.139   6.107  20.846  0.00  0.00    +0.000 OA
ATOM      9  N   UNL     1       2.026   6.311  18.523  0.00  0.00    +0.000 N 
ATOM     10  H   UNL     1       1.958   7.005  17.788  0.00  0.00    +0.000 HD
BRANCH   7  15
ATOM     11  C   UNL     1       0.409   9.911  21.344  0.00  0.00    +0.000 A 
ATOM     12  C   UNL     1       0.622  10.821  20.300  0.00  0.00    +0.000 A 
ATOM     13  C   UNL     1       1.214  10.393  19.111  0.00  0.00    +0.000 A 
ATOM     14  C   UNL     1       1.595   9.058  18.967  0.00  0.00    +0.000 A 
ATOM     15  C   UNL     1       1.389   8.143  20.010  0.00  0.00    +0.000 A 
ATOM     16  C   UNL     1       0.805   8.572  21.203  0.00  0.00    +0.000 A 
BRANCH  11  18
ATOM     17  N   UNL     1      -0.498   9.336  23.527  0.00  0.00    +0.000 N 
ATOM     18  C   UNL     1      -0.201  10.326  22.633  0.00  0.00    +0.000 C 
ATOM     19  O   UNL     1      -0.379  11.504  22.906  0.00  0.00    +0.000 OA
ATOM     20  H   UNL     1      -0.817   9.634  24.440  0.00  0.00    +0.000 HD
ATOM     21  H   UNL     1      -0.134   8.397  23.442  0.00  0.00    +0.000 HD
ENDBRANCH  11  18
ENDBRANCH   7  15
ENDBRANCH   1   9
BRANCH   5  22
ATOM     22  N   UNL     1       5.465   3.525  16.524  0.00  0.00    +0.000 N 
ATOM     23  H   UNL     1       6.060   2.726  16.730  0.00  0.00    +0.000 HD
BRANCH  22  24
ATOM     24  S   UNL     1       6.159   4.789  15.676  0.00  0.00    +0.000 S 
ATOM     25  O   UNL     1       7.163   4.195  14.818  0.00  0.00    +0.000 OA
ATOM     26  O   UNL     1       5.120   5.638  15.134  0.00  0.00    +0.000 OA
BRANCH  24  27
ATOM     27  C   UNL     1       7.013   5.700  16.943  0.00  0.00    +0.000 A 
ATOM     28  C   UNL     1       7.185   7.083  16.815  0.00  0.00    +0.000 A 
ATOM     29  C   UNL     1       7.828   7.792  17.830  0.00  0.00    +0.000 A 
ATOM     30  C   UNL     1       8.291   7.122  18.964  0.00  0.00    +0.000 A 
ATOM     31  C   UNL     1       8.106   5.745  19.093  0.00  0.00    +0.000 A 
ATOM     32  C   UNL     1       7.457   5.030  18.086  0.00  0.00    +0.000 A 
ENDBRANCH  24  27
ENDBRANCH  22  24
ENDBRANCH   5  22
TORSDOF 6
ENDMDL
