MODEL 1
REMARK VINA RESULT:      -9.0      0.000      0.000
REMARK  Name = 
REMARK  5 active torsions:
REMARK  status: ('A' for Active; 'I' for Inactive)
REMARK    1  A    between atoms: C_1  and  N_2
REMARK    2  A    between atoms: C_6  and  C_7
REMARK    3  A    between atoms: C_11  and  N_12
REMARK    4  A    between atoms: C_17  and  C_18
REMARK    5  A    between atoms: C_21  and  C_22
REMARK                            x       y       z     vdW  Elec       q    Type
REMARK                         _______ _______ _______ _____ _____    ______ ____
ROOT
ATOM      1  N   UNL     1       3.696   4.993  19.269  0.00  0.00    +0.000 N 
ATOM      2  C   UNL     1       5.082   5.516  19.363  0.00  0.00    +0.000 C 
ATOM      3  C   UNL     1       5.635   5.202  18.005  0.00  0.00    +0.000 A 
ATOM      4  C   UNL     1       4.923   4.111  17.503  0.00  0.00    +0.000 A 
ATOM      5  C   UNL     1       5.088   3.629  16.216  0.00  0.00    +0.000 A 
ATOM      6  C   UNL     1       6.008   4.284  15.388  0.00  0.00    +0.000 A 
ATOM      7  C   UNL     1       6.725   5.397  15.888  0.00  0.00    +0.000 A 
ATOM      8  C   UNL     1       6.547   5.881  17.203  0.00  0.00    +0.000 A 
ATOM      9  C   UNL     1       3.761   3.878  18.391  0.00  0.00    +0.000 C 
ATOM     10  O   UNL     1       2.930   3.004  18.200  0.00  0.00    +0.000 OA
ENDROOT
BRANCH   1  15
ATOM     11  C   UNL     1       1.836   8.107  19.770  0.00  0.00    +0.000 A 
ATOM     12  C   UNL     1       2.321   8.760  18.631  0.00  0.00    +0.000 A 
ATOM     13  C   UNL     1       2.797   8.046  17.537  0.00  0.00    +0.000 A 
ATOM     14  C   UNL     1       2.952   6.674  17.634  0.00  0.00    +0.000 A 
ATOM     15  C   UNL     1       2.777   6.053  18.879  0.00  0.00    +0.000 A 
ATOM     16  C   UNL     1       2.075   6.731  19.888  0.00  0.00    +0.000 A 
BRANCH  11  22
ATOM     17  C   UNL     1      -0.636  10.064  19.631  0.00  0.00    +0.000 C 
ATOM     18  N   UNL     1       0.148   9.715  20.784  0.00  0.00    +0.000 N 
ATOM     19  C   UNL     1      -0.088  10.168  22.047  0.00  0.00    +0.000 A 
ATOM     20  N   UNL     1       0.751   9.592  22.882  0.00  0.00    +0.000 NA
ATOM     21  N   UNL     1       1.548   8.753  22.148  0.00  0.00    +0.000 NA
ATOM     22  C   UNL     1       1.209   8.842  20.872  0.00  0.00    +0.000 A 
ENDBRANCH  11  22
ENDBRANCH   1  15
BRANCH   8  23
ATOM     23  C   UNL     1       7.255   7.145  17.622  0.00  0.00    +0.000 C 
ATOM     24  F   UNL     1       7.970   7.030  18.771  0.00  0.00    +0.000 F 
ATOM     25  F   UNL     1       8.137   7.577  16.680  0.00  0.00    +0.000 F 
ATOM     26  F   UNL     1       6.388   8.176  17.824  0.00  0.00    +0.000 F 
ENDBRANCH   8  23
BRANCH   6  27
ATOM     27  C   UNL     1       6.168   3.853  13.952  0.00  0.00    +0.000 C 
ATOM     28  F   UNL     1       5.011   3.930  13.236  0.00  0.00    +0.000 F 
ENDBRANCH   6  27
TORSDOF 4
ENDMDL
MODEL 2
REMARK VINA RESULT:      -7.7      4.163      7.987
REMARK  Name = 
REMARK  5 active torsions:
REMARK  status: ('A' for Active; 'I' for Inactive)
REMARK    1  A    between atoms: C_1  and  N_2
REMARK    2  A    between atoms: C_6  and  C_7
REMARK    3  A    between atoms: C_11  and  N_12
REMARK    4  A    between atoms: C_17  and  C_18
REMARK    5  A    between atoms: C_21  and  C_22
REMARK                            x       y       z     vdW  Elec       q    Type
REMARK                         _______ _______ _______ _____ _____    ______ ____
ROOT
ATOM      1  N   UNL     1       0.744   8.269  21.220  0.00  0.00    +0.000 N 
ATOM      2  C   UNL     1      -0.494   8.599  20.471  0.00  0.00    +0.000 C 
ATOM      3  C   UNL     1      -0.300  10.053  20.158  0.00  0.00    +0.000 A 
ATOM      4  C   UNL     1       0.547  10.583  21.134  0.00  0.00    +0.000 A 
ATOM      5  C   UNL     1       1.039  11.876  21.085  0.00  0.00    +0.000 A 
ATOM      6  C   UNL     1       0.667  12.673  19.995  0.00  0.00    +0.000 A 
ATOM      7  C   UNL     1      -0.184  12.138  18.999  0.00  0.00    +0.000 A 
ATOM      8  C   UNL     1      -0.677  10.816  19.058  0.00  0.00    +0.000 A 
ATOM      9  C   UNL     1       1.106   9.454  21.913  0.00  0.00    +0.000 C 
ATOM     10  O   UNL     1       1.905   9.595  22.825  0.00  0.00    +0.000 OA
ENDROOT
BRANCH   1  15
ATOM     11  C   UNL     1       2.298   5.650  19.184  0.00  0.00    +0.000 A 
ATOM     12  C   UNL     1       2.300   6.371  17.985  0.00  0.00    +0.000 A 
ATOM     13  C   UNL     1       2.279   7.762  17.977  0.00  0.00    +0.000 A 
ATOM     14  C   UNL     1       2.084   8.446  19.163  0.00  0.00    +0.000 A 
ATOM     15  C   UNL     1       1.754   7.727  20.322  0.00  0.00    +0.000 A 
ATOM     16  C   UNL     1       2.017   6.349  20.367  0.00  0.00    +0.000 A 
BRANCH  11  22
ATOM     17  C   UNL     1       4.983   3.995  19.093  0.00  0.00    +0.000 C 
ATOM     18  N   UNL     1       3.638   3.491  19.139  0.00  0.00    +0.000 N 
ATOM     19  C   UNL     1       3.307   2.170  19.186  0.00  0.00    +0.000 A 
ATOM     20  N   UNL     1       2.002   2.050  19.310  0.00  0.00    +0.000 NA
ATOM     21  N   UNL     1       1.475   3.316  19.342  0.00  0.00    +0.000 NA
ATOM     22  C   UNL     1       2.456   4.194  19.210  0.00  0.00    +0.000 A 
ENDBRANCH  11  22
ENDBRANCH   1  15
BRANCH   8  23
ATOM     23  C   UNL     1      -1.477  10.279  17.898  0.00  0.00    +0.000 C 
ATOM     24  F   UNL     1      -2.619   9.637  18.257  0.00  0.00    +0.000 F 
ATOM     25  F   UNL     1      -1.860  11.261  17.038  0.00  0.00    +0.000 F 
ATOM     26  F   UNL     1      -0.766   9.387  17.153  0.00  0.00    +0.000 F 
ENDBRANCH   8  23
BRANCH   6  27
ATOM     27  C   UNL     1       1.238  14.061  19.849  0.00  0.00    +0.000 C 
ATOM     28  F   UNL     1       1.259  14.499  18.558  0.00  0.00    +0.000 F 
ENDBRANCH   6  27
TORSDOF 4
ENDMDL
MODEL 3
REMARK VINA RESULT:      -7.6      4.388      8.022
REMARK  Name = 
REMARK  5 active torsions:
REMARK  status: ('A' for Active; 'I' for Inactive)
REMARK    1  A    between atoms: C_1  and  N_2
REMARK    2  A    between atoms: C_6  and  C_7
REMARK    3  A    between atoms: C_11  and  N_12
REMARK    4  A    between atoms: C_17  and  C_18
REMARK    5  A    between atoms: C_21  and  C_22
REMARK                            x       y       z     vdW  Elec       q    Type
REMARK                         _______ _______ _______ _____ _____    ______ ____
ROOT
ATOM      1  N   UNL     1       0.763   8.317  21.097  0.00  0.00    +0.000 N 
ATOM      2  C   UNL     1      -0.486   8.586  20.341  0.00  0.00    +0.000 C 
ATOM      3  C   UNL     1      -0.416  10.068  20.127  0.00  0.00    +0.000 A 
ATOM      4  C   UNL     1       0.363  10.605  21.154  0.00  0.00    +0.000 A 
ATOM      5  C   UNL     1       0.738  11.937  21.200  0.00  0.00    +0.000 A 
ATOM      6  C   UNL     1       0.318  12.768  20.155  0.00  0.00    +0.000 A 
ATOM      7  C   UNL     1      -0.464  12.227  19.106  0.00  0.00    +0.000 A 
ATOM      8  C   UNL     1      -0.839  10.866  19.069  0.00  0.00    +0.000 A 
ATOM      9  C   UNL     1       1.006   9.481  21.873  0.00  0.00    +0.000 C 
ATOM     10  O   UNL     1       1.772   9.631  22.811  0.00  0.00    +0.000 OA
ENDROOT
BRANCH   1  15
ATOM     11  C   UNL     1       2.863   5.913  19.302  0.00  0.00    +0.000 A 
ATOM     12  C   UNL     1       2.605   6.412  18.020  0.00  0.00    +0.000 A 
ATOM     13  C   UNL     1       2.203   7.729  17.824  0.00  0.00    +0.000 A 
ATOM     14  C   UNL     1       1.891   8.515  18.919  0.00  0.00    +0.000 A 
ATOM     15  C   UNL     1       1.833   7.926  20.191  0.00  0.00    +0.000 A 
ATOM     16  C   UNL     1       2.466   6.690  20.399  0.00  0.00    +0.000 A 
BRANCH  11  22
ATOM     17  C   UNL     1       1.293   3.251  19.940  0.00  0.00    +0.000 C 
ATOM     18  N   UNL     1       2.714   3.428  19.819  0.00  0.00    +0.000 N 
ATOM     19  C   UNL     1       3.633   2.429  19.933  0.00  0.00    +0.000 A 
ATOM     20  N   UNL     1       4.833   2.906  19.681  0.00  0.00    +0.000 NA
ATOM     21  N   UNL     1       4.693   4.241  19.403  0.00  0.00    +0.000 NA
ATOM     22  C   UNL     1       3.416   4.573  19.511  0.00  0.00    +0.000 A 
ENDBRANCH  11  22
ENDBRANCH   1  15
BRANCH   8  23
ATOM     23  C   UNL     1      -1.567  10.338  17.858  0.00  0.00    +0.000 C 
ATOM     24  F   UNL     1      -2.690   9.631  18.146  0.00  0.00    +0.000 F 
ATOM     25  F   UNL     1      -1.963  11.335  17.021  0.00  0.00    +0.000 F 
ATOM     26  F   UNL     1      -0.786   9.510  17.110  0.00  0.00    +0.000 F 
ENDBRANCH   8  23
BRANCH   6  27
ATOM     27  C   UNL     1       0.765  14.207  20.111  0.00  0.00    +0.000 C 
ATOM     28  F   UNL     1       1.299  14.568  18.910  0.00  0.00    +0.000 F 
ENDBRANCH   6  27
TORSDOF 4
ENDMDL
MODEL 4
REMARK VINA RESULT:      -7.4      6.876      9.456
REMARK  Name = 
REMARK  5 active torsions:
REMARK  status: ('A' for Active; 'I' for Inactive)
REMARK    1  A    between atoms: C_1  and  N_2
REMARK    2  A    between atoms: C_6  and  C_7
REMARK    3  A    between atoms: C_11  and  N_12
REMARK    4  A    between atoms: C_17  and  C_18
REMARK    5  A    between atoms: C_21  and  C_22
REMARK                            x       y       z     vdW  Elec       q    Type
REMARK                         _______ _______ _______ _____ _____    ______ ____
ROOT
ATOM      1  N   UNL     1      -0.462  11.121  18.256  0.00  0.00    +0.000 N 
ATOM      2  C   UNL     1       0.257  10.306  19.267  0.00  0.00    +0.000 C 
ATOM      3  C   UNL     1      -0.070  11.021  20.544  0.00  0.00    +0.000 A 
ATOM      4  C   UNL     1      -0.341  12.353  20.222  0.00  0.00    +0.000 A 
ATOM      5  C   UNL     1      -0.800  13.275  21.148  0.00  0.00    +0.000 A 
ATOM      6  C   UNL     1      -1.007  12.833  22.460  0.00  0.00    +0.000 A 
ATOM      7  C   UNL     1      -0.742  11.482  22.789  0.00  0.00    +0.000 A 
ATOM      8  C   UNL     1      -0.276  10.550  21.836  0.00  0.00    +0.000 A 
ATOM      9  C   UNL     1      -0.448  12.453  18.749  0.00  0.00    +0.000 C 
ATOM     10  O   UNL     1      -0.705  13.491  18.160  0.00  0.00    +0.000 OA
ENDROOT
BRANCH   1  15
ATOM     11  C   UNL     1      -4.119  11.199  18.088  0.00  0.00    +0.000 A 
ATOM     12  C   UNL     1      -4.218  10.841  16.739  0.00  0.00    +0.000 A 
ATOM     13  C   UNL     1      -3.204  10.132  16.103  0.00  0.00    +0.000 A 
ATOM     14  C   UNL     1      -2.005   9.921  16.761  0.00  0.00    +0.000 A 
ATOM     15  C   UNL     1      -1.778  10.558  17.990  0.00  0.00    +0.000 A 
ATOM     16  C   UNL     1      -2.874  11.053  18.715  0.00  0.00    +0.000 A 
BRANCH  11  22
ATOM     17  C   UNL     1      -6.780   9.834  19.095  0.00  0.00    +0.000 C 
ATOM     18  N   UNL     1      -6.402  11.215  19.208  0.00  0.00    +0.000 N 
ATOM     19  C   UNL     1      -7.148  12.176  19.821  0.00  0.00    +0.000 A 
ATOM     20  N   UNL     1      -6.480  13.311  19.830  0.00  0.00    +0.000 NA
ATOM     21  N   UNL     1      -5.279  13.084  19.209  0.00  0.00    +0.000 NA
ATOM     22  C   UNL     1      -5.234  11.824  18.804  0.00  0.00    +0.000 A 
ENDBRANCH  11  22
ENDBRANCH   1  15
BRANCH   8  23
ATOM     23  C   UNL     1      -0.137   9.101  22.233  0.00  0.00    +0.000 C 
ATOM     24  F   UNL     1       1.097   8.579  22.014  0.00  0.00    +0.000 F 
ATOM     25  F   UNL     1      -0.392   8.903  23.555  0.00  0.00    +0.000 F 
ATOM     26  F   UNL     1      -1.007   8.298  21.560  0.00  0.00    +0.000 F 
ENDBRANCH   8  23
BRANCH   6  27
ATOM     27  C   UNL     1      -1.582  13.772  23.489  0.00  0.00    +0.000 C 
ATOM     28  F   UNL     1      -2.731  13.308  24.057  0.00  0.00    +0.000 F 
ENDBRANCH   6  27
TORSDOF 4
ENDMDL
MODEL 5
REMARK VINA RESULT:      -7.4      0.845      1.386
REMARK  Name = 
REMARK  5 active torsions:
REMARK  status: ('A' for Active; 'I' for Inactive)
REMARK    1  A    between atoms: C_1  and  N_2
REMARK    2  A    between atoms: C_6  and  C_7
REMARK    3  A    between atoms: C_11  and  N_12
REMARK    4  A    between atoms: C_17  and  C_18
REMARK    5  A    between atoms: C_21  and  C_22
REMARK                            x       y       z     vdW  Elec       q    Type
REMARK                         _______ _______ _______ _____ _____    ______ ____
ROOT
ATOM      1  N   UNL     1       3.861   4.909  19.405  0.00  0.00    +0.000 N 
ATOM      2  C   UNL     1       5.225   5.493  19.441  0.00  0.00    +0.000 C 
ATOM      3  C   UNL     1       5.738   5.195  18.064  0.00  0.00    +0.000 A 
ATOM      4  C   UNL     1       5.056   4.069  17.597  0.00  0.00    +0.000 A 
ATOM      5  C   UNL     1       5.192   3.585  16.307  0.00  0.00    +0.000 A 
ATOM      6  C   UNL     1       6.048   4.274  15.440  0.00  0.00    +0.000 A 
ATOM      7  C   UNL     1       6.734   5.421  15.905  0.00  0.00    +0.000 A 
ATOM      8  C   UNL     1       6.586   5.907  17.223  0.00  0.00    +0.000 A 
ATOM      9  C   UNL     1       3.941   3.791  18.531  0.00  0.00    +0.000 C 
ATOM     10  O   UNL     1       3.143   2.880  18.378  0.00  0.00    +0.000 OA
ENDROOT
BRANCH   1  15
ATOM     11  C   UNL     1       1.649   7.751  20.068  0.00  0.00    +0.000 A 
ATOM     12  C   UNL     1       2.176   8.589  19.078  0.00  0.00    +0.000 A 
ATOM     13  C   UNL     1       2.830   8.070  17.965  0.00  0.00    +0.000 A 
ATOM     14  C   UNL     1       3.114   6.717  17.912  0.00  0.00    +0.000 A 
ATOM     15  C   UNL     1       2.881   5.924  19.045  0.00  0.00    +0.000 A 
ATOM     16  C   UNL     1       2.016   6.399  20.043  0.00  0.00    +0.000 A 
BRANCH  11  22
ATOM     17  C   UNL     1       2.619   9.489  22.518  0.00  0.00    +0.000 C 
ATOM     18  N   UNL     1       1.292   9.007  22.249  0.00  0.00    +0.000 N 
ATOM     19  C   UNL     1       0.202   9.265  23.025  0.00  0.00    +0.000 A 
ATOM     20  N   UNL     1      -0.871   8.756  22.456  0.00  0.00    +0.000 NA
ATOM     21  N   UNL     1      -0.470   8.152  21.292  0.00  0.00    +0.000 NA
ATOM     22  C   UNL     1       0.842   8.275  21.172  0.00  0.00    +0.000 A 
ENDBRANCH  11  22
ENDBRANCH   1  15
BRANCH   8  23
ATOM     23  C   UNL     1       7.253   7.204  17.606  0.00  0.00    +0.000 C 
ATOM     24  F   UNL     1       6.392   8.229  17.832  0.00  0.00    +0.000 F 
ATOM     25  F   UNL     1       7.994   7.087  18.741  0.00  0.00    +0.000 F 
ATOM     26  F   UNL     1       8.111   7.644  16.644  0.00  0.00    +0.000 F 
ENDBRANCH   8  23
BRANCH   6  27
ATOM     27  C   UNL     1       6.171   3.841  14.001  0.00  0.00    +0.000 C 
ATOM     28  F   UNL     1       6.930   4.687  13.248  0.00  0.00    +0.000 F 
ENDBRANCH   6  27
TORSDOF 4
ENDMDL
MODEL 6
REMARK VINA RESULT:      -7.4      2.890      4.098
REMARK  Name = 
REMARK  5 active torsions:
REMARK  status: ('A' for Active; 'I' for Inactive)
REMARK    1  A    between atoms: C_1  and  N_2
REMARK    2  A    between atoms: C_6  and  C_7
REMARK    3  A    between atoms: C_11  and  N_12
REMARK    4  A    between atoms: C_17  and  C_18
REMARK    5  A    between atoms: C_21  and  C_22
REMARK                            x       y       z     vdW  Elec       q    Type
REMARK                         _______ _______ _______ _____ _____    ______ ____
ROOT
ATOM      1  N   UNL     1       2.058   7.002  18.138  0.00  0.00    +0.000 N 
ATOM      2  C   UNL     1       1.999   5.532  18.335  0.00  0.00    +0.000 C 
ATOM      3  C   UNL     1       3.451   5.159  18.386  0.00  0.00    +0.000 A 
ATOM      4  C   UNL     1       4.158   6.126  17.670  0.00  0.00    +0.000 A 
ATOM      5  C   UNL     1       5.541   6.163  17.614  0.00  0.00    +0.000 A 
ATOM      6  C   UNL     1       6.248   5.183  18.321  0.00  0.00    +0.000 A 
ATOM      7  C   UNL     1       5.536   4.205  19.056  0.00  0.00    +0.000 A 
ATOM      8  C   UNL     1       4.124   4.179  19.108  0.00  0.00    +0.000 A 
ATOM      9  C   UNL     1       3.233   7.246  17.380  0.00  0.00    +0.000 C 
ATOM     10  O   UNL     1       3.566   8.259  16.786  0.00  0.00    +0.000 OA
ENDROOT
BRANCH   1  15
ATOM     11  C   UNL     1       0.883   9.617  20.418  0.00  0.00    +0.000 A 
ATOM     12  C   UNL     1       0.367   8.752  21.390  0.00  0.00    +0.000 A 
ATOM     13  C   UNL     1       0.838   7.450  21.521  0.00  0.00    +0.000 A 
ATOM     14  C   UNL     1       1.709   6.942  20.574  0.00  0.00    +0.000 A 
ATOM     15  C   UNL     1       1.976   7.691  19.418  0.00  0.00    +0.000 A 
ATOM     16  C   UNL     1       1.698   9.068  19.419  0.00  0.00    +0.000 A 
BRANCH  11  22
ATOM     17  C   UNL     1      -1.421  10.917  18.695  0.00  0.00    +0.000 C 
ATOM     18  N   UNL     1      -0.496  11.579  19.573  0.00  0.00    +0.000 N 
ATOM     19  C   UNL     1      -0.495  12.917  19.831  0.00  0.00    +0.000 A 
ATOM     20  N   UNL     1       0.416  13.187  20.742  0.00  0.00    +0.000 NA
ATOM     21  N   UNL     1       1.021  12.003  21.079  0.00  0.00    +0.000 NA
ATOM     22  C   UNL     1       0.494  11.028  20.356  0.00  0.00    +0.000 A 
ENDBRANCH  11  22
ENDBRANCH   1  15
BRANCH   8  23
ATOM     23  C   UNL     1       3.442   3.183  20.012  0.00  0.00    +0.000 C 
ATOM     24  F   UNL     1       2.736   3.744  21.027  0.00  0.00    +0.000 F 
ATOM     25  F   UNL     1       2.559   2.397  19.338  0.00  0.00    +0.000 F 
ATOM     26  F   UNL     1       4.328   2.332  20.600  0.00  0.00    +0.000 F 
ENDBRANCH   8  23
BRANCH   6  27
ATOM     27  C   UNL     1       7.755   5.222  18.361  0.00  0.00    +0.000 C 
ATOM     28  F   UNL     1       8.336   4.126  17.794  0.00  0.00    +0.000 F 
ENDBRANCH   6  27
TORSDOF 4
ENDMDL
MODEL 7
REMARK VINA RESULT:      -7.3      7.132      9.790
REMARK  Name = 
REMARK  5 active torsions:
REMARK  status: ('A' for Active; 'I' for Inactive)
REMARK    1  A    between atoms: C_1  and  N_2
REMARK    2  A    between atoms: C_6  and  C_7
REMARK    3  A    between atoms: C_11  and  N_12
REMARK    4  A    between atoms: C_17  and  C_18
REMARK    5  A    between atoms: C_21  and  C_22
REMARK                            x       y       z     vdW  Elec       q    Type
REMARK                         _______ _______ _______ _____ _____    ______ ____
ROOT
ATOM      1  N   UNL     1      -0.610  11.578  18.484  0.00  0.00    +0.000 N 
ATOM      2  C   UNL     1       0.193  10.805  19.463  0.00  0.00    +0.000 C 
ATOM      3  C   UNL     1      -0.333  11.307  20.775  0.00  0.00    +0.000 A 
ATOM      4  C   UNL     1      -0.833  12.593  20.562  0.00  0.00    +0.000 A 
ATOM      5  C   UNL     1      -1.509  13.311  21.535  0.00  0.00    +0.000 A 
ATOM      6  C   UNL     1      -1.699  12.700  22.780  0.00  0.00    +0.000 A 
ATOM      7  C   UNL     1      -1.202  11.393  22.998  0.00  0.00    +0.000 A 
ATOM      8  C   UNL     1      -0.516  10.670  21.997  0.00  0.00    +0.000 A 
ATOM      9  C   UNL     1      -0.876  12.830  19.101  0.00  0.00    +0.000 C 
ATOM     10  O   UNL     1      -1.293  13.860  18.596  0.00  0.00    +0.000 OA
ENDROOT
BRANCH   1  15
ATOM     11  C   UNL     1      -4.076  11.184  17.368  0.00  0.00    +0.000 A 
ATOM     12  C   UNL     1      -3.782  10.458  16.209  0.00  0.00    +0.000 A 
ATOM     13  C   UNL     1      -2.606   9.723  16.095  0.00  0.00    +0.000 A 
ATOM     14  C   UNL     1      -1.632   9.842  17.070  0.00  0.00    +0.000 A 
ATOM     15  C   UNL     1      -1.780  10.816  18.069  0.00  0.00    +0.000 A 
ATOM     16  C   UNL     1      -3.051  11.362  18.307  0.00  0.00    +0.000 A 
BRANCH  11  22
ATOM     17  C   UNL     1      -6.551  10.169  19.043  0.00  0.00    +0.000 C 
ATOM     18  N   UNL     1      -6.447  11.374  18.266  0.00  0.00    +0.000 N 
ATOM     19  C   UNL     1      -7.428  12.314  18.158  0.00  0.00    +0.000 A 
ATOM     20  N   UNL     1      -6.984  13.331  17.450  0.00  0.00    +0.000 NA
ATOM     21  N   UNL     1      -5.692  13.045  17.088  0.00  0.00    +0.000 NA
ATOM     22  C   UNL     1      -5.368  11.849  17.555  0.00  0.00    +0.000 A 
ENDBRANCH  11  22
ENDBRANCH   1  15
BRANCH   8  23
ATOM     23  C   UNL     1      -0.127   9.237  22.264  0.00  0.00    +0.000 C 
ATOM     24  F   UNL     1      -0.820   8.325  21.534  0.00  0.00    +0.000 F 
ATOM     25  F   UNL     1       1.186   9.002  21.998  0.00  0.00    +0.000 F 
ATOM     26  F   UNL     1      -0.312   8.889  23.568  0.00  0.00    +0.000 F 
ENDBRANCH   8  23
BRANCH   6  27
ATOM     27  C   UNL     1      -2.498  13.403  23.849  0.00  0.00    +0.000 C 
ATOM     28  F   UNL     1      -3.430  12.600  24.437  0.00  0.00    +0.000 F 
ENDBRANCH   6  27
TORSDOF 4
ENDMDL
MODEL 8
REMARK VINA RESULT:      -7.2      2.950      4.368
REMARK  Name = 
REMARK  5 active torsions:
REMARK  status: ('A' for Active; 'I' for Inactive)
REMARK    1  A    between atoms: C_1  and  N_2
REMARK    2  A    between atoms: C_6  and  C_7
REMARK    3  A    between atoms: C_11  and  N_12
REMARK    4  A    between atoms: C_17  and  C_18
REMARK    5  A    between atoms: C_21  and  C_22
REMARK                            x       y       z     vdW  Elec       q    Type
REMARK                         _______ _______ _______ _____ _____    ______ ____
ROOT
ATOM      1  N   UNL     1       2.131   7.173  17.907  0.00  0.00    +0.000 N 
ATOM      2  C   UNL     1       1.998   5.732  18.238  0.00  0.00    +0.000 C 
ATOM      3  C   UNL     1       3.424   5.320  18.448  0.00  0.00    +0.000 A 
ATOM      4  C   UNL     1       4.226   6.189  17.705  0.00  0.00    +0.000 A 
ATOM      5  C   UNL     1       5.610   6.176  17.764  0.00  0.00    +0.000 A 
ATOM      6  C   UNL     1       6.216   5.248  18.619  0.00  0.00    +0.000 A 
ATOM      7  C   UNL     1       5.408   4.370  19.380  0.00  0.00    +0.000 A 
ATOM      8  C   UNL     1       3.997   4.395  19.314  0.00  0.00    +0.000 A 
ATOM      9  C   UNL     1       3.373   7.304  17.232  0.00  0.00    +0.000 C 
ATOM     10  O   UNL     1       3.793   8.243  16.575  0.00  0.00    +0.000 OA
ENDROOT
BRANCH   1  15
ATOM     11  C   UNL     1       0.530   9.737  19.976  0.00  0.00    +0.000 A 
ATOM     12  C   UNL     1       0.288   8.912  21.081  0.00  0.00    +0.000 A 
ATOM     13  C   UNL     1       1.053   7.774  21.315  0.00  0.00    +0.000 A 
ATOM     14  C   UNL     1       1.957   7.353  20.356  0.00  0.00    +0.000 A 
ATOM     15  C   UNL     1       1.972   7.987  19.104  0.00  0.00    +0.000 A 
ATOM     16  C   UNL     1       1.386   9.256  18.976  0.00  0.00    +0.000 A 
BRANCH  11  22
ATOM     17  C   UNL     1       1.591  12.645  20.587  0.00  0.00    +0.000 C 
ATOM     18  N   UNL     1       0.295  12.265  20.094  0.00  0.00    +0.000 N 
ATOM     19  C   UNL     1      -0.699  13.140  19.771  0.00  0.00    +0.000 A 
ATOM     20  N   UNL     1      -1.719  12.477  19.268  0.00  0.00    +0.000 NA
ATOM     21  N   UNL     1      -1.383  11.148  19.268  0.00  0.00    +0.000 NA
ATOM     22  C   UNL     1      -0.176  11.007  19.792  0.00  0.00    +0.000 A 
ENDBRANCH  11  22
ENDBRANCH   1  15
BRANCH   8  23
ATOM     23  C   UNL     1       3.204   3.515  20.247  0.00  0.00    +0.000 C 
ATOM     24  F   UNL     1       2.187   2.842  19.649  0.00  0.00    +0.000 F 
ATOM     25  F   UNL     1       3.977   2.565  20.840  0.00  0.00    +0.000 F 
ATOM     26  F   UNL     1       2.636   4.223  21.263  0.00  0.00    +0.000 F 
ENDBRANCH   8  23
BRANCH   6  27
ATOM     27  C   UNL     1       7.715   5.243  18.783  0.00  0.00    +0.000 C 
ATOM     28  F   UNL     1       8.239   6.488  18.965  0.00  0.00    +0.000 F 
ENDBRANCH   6  27
TORSDOF 4
ENDMDL
MODEL 9
REMARK VINA RESULT:      -7.2      6.967      9.592
REMARK  Name = 
REMARK  5 active torsions:
REMARK  status: ('A' for Active; 'I' for Inactive)
REMARK    1  A    between atoms: C_1  and  N_2
REMARK    2  A    between atoms: C_6  and  C_7
REMARK    3  A    between atoms: C_11  and  N_12
REMARK    4  A    between atoms: C_17  and  C_18
REMARK    5  A    between atoms: C_21  and  C_22
REMARK                            x       y       z     vdW  Elec       q    Type
REMARK                         _______ _______ _______ _____ _____    ______ ____
ROOT
ATOM      1  N   UNL     1      -0.335  11.316  18.427  0.00  0.00    +0.000 N 
ATOM      2  C   UNL     1       0.366  10.510  19.458  0.00  0.00    +0.000 C 
ATOM      3  C   UNL     1      -0.059  11.179  20.731  0.00  0.00    +0.000 A 
ATOM      4  C   UNL     1      -0.373  12.505  20.423  0.00  0.00    +0.000 A 
ATOM      5  C   UNL     1      -0.921  13.384  21.343  0.00  0.00    +0.000 A 
ATOM      6  C   UNL     1      -1.175  12.902  22.632  0.00  0.00    +0.000 A 
ATOM      7  C   UNL     1      -0.867  11.557  22.946  0.00  0.00    +0.000 A 
ATOM      8  C   UNL     1      -0.311  10.669  21.999  0.00  0.00    +0.000 A 
ATOM      9  C   UNL     1      -0.408  12.635  18.949  0.00  0.00    +0.000 C 
ATOM     10  O   UNL     1      -0.681  13.674  18.369  0.00  0.00    +0.000 OA
ENDROOT
BRANCH   1  15
ATOM     11  C   UNL     1      -3.902  11.342  17.598  0.00  0.00    +0.000 A 
ATOM     12  C   UNL     1      -3.782  10.654  16.385  0.00  0.00    +0.000 A 
ATOM     13  C   UNL     1      -2.705   9.810  16.136  0.00  0.00    +0.000 A 
ATOM     14  C   UNL     1      -1.648   9.774  17.029  0.00  0.00    +0.000 A 
ATOM     15  C   UNL     1      -1.609  10.702  18.080  0.00  0.00    +0.000 A 
ATOM     16  C   UNL     1      -2.791  11.362  18.452  0.00  0.00    +0.000 A 
BRANCH  11  22
ATOM     17  C   UNL     1      -4.642  12.678  20.360  0.00  0.00    +0.000 C 
ATOM     18  N   UNL     1      -5.414  12.674  19.148  0.00  0.00    +0.000 N 
ATOM     19  C   UNL     1      -6.614  13.301  18.992  0.00  0.00    +0.000 A 
ATOM     20  N   UNL     1      -7.012  13.181  17.743  0.00  0.00    +0.000 NA
ATOM     21  N   UNL     1      -6.054  12.460  17.076  0.00  0.00    +0.000 NA
ATOM     22  C   UNL     1      -5.096  12.125  17.926  0.00  0.00    +0.000 A 
ENDBRANCH  11  22
ENDBRANCH   1  15
BRANCH   8  23
ATOM     23  C   UNL     1      -0.126   9.219  22.373  0.00  0.00    +0.000 C 
ATOM     24  F   UNL     1      -0.901   8.358  21.664  0.00  0.00    +0.000 F 
ATOM     25  F   UNL     1       1.155   8.800  22.191  0.00  0.00    +0.000 F 
ATOM     26  F   UNL     1      -0.413   8.986  23.684  0.00  0.00    +0.000 F 
ENDBRANCH   8  23
BRANCH   6  27
ATOM     27  C   UNL     1      -1.846  13.791  23.649  0.00  0.00    +0.000 C 
ATOM     28  F   UNL     1      -0.970  14.582  24.331  0.00  0.00    +0.000 F 
ENDBRANCH   6  27
TORSDOF 4
ENDMDL
