MODEL 1
REMARK VINA RESULT:      -7.9      0.000      0.000
REMARK  Name = 
REMARK  5 active torsions:
REMARK  status: ('A' for Active; 'I' for Inactive)
REMARK    1  A    between atoms: C_2  and  C_24
REMARK    2  A    between atoms: N_3  and  C_4
REMARK    3  A    between atoms: C_7  and  C_8
REMARK    4  A    between atoms: C_8  and  N_9
REMARK    5  A    between atoms: C_10  and  C_12
REMARK                            x       y       z     vdW  Elec       q    Type
REMARK                         _______ _______ _______ _____ _____    ______ ____
ROOT
ATOM      1  C   UNL     1       0.496  11.696  19.695  0.00  0.00    +0.000 A 
ATOM      2  C   UNL     1       0.312  11.293  21.023  0.00  0.00    +0.000 A 
ATOM      3  C   UNL     1       0.569   9.979  21.434  0.00  0.00    +0.000 A 
ATOM      4  C   UNL     1       1.019   9.017  20.528  0.00  0.00    +0.000 A 
ATOM      5  C   UNL     1       1.122   9.389  19.178  0.00  0.00    +0.000 A 
ATOM      6  C   UNL     1       0.855  10.715  18.764  0.00  0.00    +0.000 A 
ENDROOT
BRANCH   1   9
ATOM      7  O   UNL     1       2.542  13.716  19.455  0.00  0.00    +0.000 OA
ATOM      8  C   UNL     1       1.365  13.987  19.231  0.00  0.00    +0.000 C 
ATOM      9  N   UNL     1       0.334  13.049  19.286  0.00  0.00    +0.000 N 
ATOM     10  H   UNL     1      -0.548  13.328  18.875  0.00  0.00    +0.000 HD
BRANCH   8  11
ATOM     11  C   UNL     1       1.000  15.342  18.861  0.00  0.00    +0.000 A 
ATOM     12  C   UNL     1      -0.266  15.846  18.619  0.00  0.00    +0.000 A 
ATOM     13  C   UNL     1      -0.110  17.193  18.237  0.00  0.00    +0.000 A 
ATOM     14  C   UNL     1       1.242  17.440  18.280  0.00  0.00    +0.000 A 
ATOM     15  O   UNL     1       1.930  16.329  18.674  0.00  0.00    +0.000 OA
ENDBRANCH   8  11
ENDBRANCH   1   9
BRANCH   4  16
ATOM     16  C   UNL     1       1.420   7.649  21.034  0.00  0.00    +0.000 C 
BRANCH  16  17
ATOM     17  N   UNL     1       2.251   6.916  20.109  0.00  0.00    +0.000 N 
ATOM     18  C   UNL     1       2.466   5.547  20.253  0.00  0.00    +0.000 C 
ATOM     19  O   UNL     1       2.084   4.897  21.214  0.00  0.00    +0.000 OA
ATOM     20  H   UNL     1       2.370   7.285  19.171  0.00  0.00    +0.000 HD
BRANCH  18  21
ATOM     21  C   UNL     1       3.335   4.974  19.128  0.00  0.00    +0.000 C 
ATOM     22  C   UNL     1       3.201   5.641  17.752  0.00  0.00    +0.000 C 
ATOM     23  C   UNL     1       4.568   5.329  17.246  0.00  0.00    +0.000 A 
ATOM     24  C   UNL     1       5.084   5.293  15.961  0.00  0.00    +0.000 A 
ATOM     25  C   UNL     1       6.443   4.985  15.809  0.00  0.00    +0.000 A 
ATOM     26 CL   UNL     1       7.119   4.856  14.230  0.00  0.00    +0.000 Cl
ATOM     27  C   UNL     1       7.270   4.764  16.923  0.00  0.00    +0.000 A 
ATOM     28  C   UNL     1       6.738   4.815  18.210  0.00  0.00    +0.000 A 
ATOM     29  C   UNL     1       5.391   5.069  18.334  0.00  0.00    +0.000 A 
ATOM     30  O   UNL     1       4.728   5.061  19.531  0.00  0.00    +0.000 OA
ENDBRANCH  18  21
ENDBRANCH  16  17
ENDBRANCH   4  16
TORSDOF 5
ENDMDL
MODEL 2
REMARK VINA RESULT:      -7.7      4.499     10.046
REMARK  Name = 
REMARK  5 active torsions:
REMARK  status: ('A' for Active; 'I' for Inactive)
REMARK    1  A    between atoms: C_2  and  C_24
REMARK    2  A    between atoms: N_3  and  C_4
REMARK    3  A    between atoms: C_7  and  C_8
REMARK    4  A    between atoms: C_8  and  N_9
REMARK    5  A    between atoms: C_10  and  C_12
REMARK                            x       y       z     vdW  Elec       q    Type
REMARK                         _______ _______ _______ _____ _____    ______ ____
ROOT
ATOM      1  C   UNL     1       3.157   6.812  18.180  0.00  0.00    +0.000 A 
ATOM      2  C   UNL     1       2.938   6.307  19.466  0.00  0.00    +0.000 A 
ATOM      3  C   UNL     1       2.158   6.997  20.403  0.00  0.00    +0.000 A 
ATOM      4  C   UNL     1       1.569   8.222  20.085  0.00  0.00    +0.000 A 
ATOM      5  C   UNL     1       1.854   8.778  18.829  0.00  0.00    +0.000 A 
ATOM      6  C   UNL     1       2.648   8.083  17.887  0.00  0.00    +0.000 A 
ENDROOT
BRANCH   1   9
ATOM      7  O   UNL     1       5.917   7.119  17.399  0.00  0.00    +0.000 OA
ATOM      8  C   UNL     1       5.193   6.306  16.831  0.00  0.00    +0.000 C 
ATOM      9  N   UNL     1       3.863   6.076  17.188  0.00  0.00    +0.000 N 
ATOM     10  H   UNL     1       3.434   5.243  16.806  0.00  0.00    +0.000 HD
BRANCH   8  11
ATOM     11  C   UNL     1       5.727   5.506  15.744  0.00  0.00    +0.000 A 
ATOM     12  C   UNL     1       5.200   4.347  15.201  0.00  0.00    +0.000 A 
ATOM     13  C   UNL     1       6.102   3.906  14.212  0.00  0.00    +0.000 A 
ATOM     14  C   UNL     1       7.122   4.828  14.197  0.00  0.00    +0.000 A 
ATOM     15  O   UNL     1       6.901   5.817  15.111  0.00  0.00    +0.000 OA
ENDBRANCH   8  11
ENDBRANCH   1   9
BRANCH   4  16
ATOM     16  C   UNL     1       0.619   8.868  21.071  0.00  0.00    +0.000 C 
BRANCH  16  17
ATOM     17  N   UNL     1      -0.358   9.727  20.447  0.00  0.00    +0.000 N 
ATOM     18  C   UNL     1      -0.311  11.111  20.601  0.00  0.00    +0.000 C 
ATOM     19  O   UNL     1       0.460  11.685  21.354  0.00  0.00    +0.000 OA
ATOM     20  H   UNL     1      -0.836   9.391  19.617  0.00  0.00    +0.000 HD
BRANCH  18  21
ATOM     21  C   UNL     1      -1.414  11.821  19.807  0.00  0.00    +0.000 C 
ATOM     22  C   UNL     1      -2.124  10.991  18.728  0.00  0.00    +0.000 C 
ATOM     23  C   UNL     1      -3.428  11.714  18.747  0.00  0.00    +0.000 A 
ATOM     24  C   UNL     1      -4.452  11.780  17.817  0.00  0.00    +0.000 A 
ATOM     25  C   UNL     1      -5.584  12.539  18.143  0.00  0.00    +0.000 A 
ATOM     26 CL   UNL     1      -6.856  12.715  16.995  0.00  0.00    +0.000 Cl
ATOM     27  C   UNL     1      -5.701  13.177  19.391  0.00  0.00    +0.000 A 
ATOM     28  C   UNL     1      -4.666  13.091  20.320  0.00  0.00    +0.000 A 
ATOM     29  C   UNL     1      -3.541  12.383  19.958  0.00  0.00    +0.000 A 
ATOM     30  O   UNL     1      -2.422  12.293  20.740  0.00  0.00    +0.000 OA
ENDBRANCH  18  21
ENDBRANCH  16  17
ENDBRANCH   4  16
TORSDOF 5
ENDMDL
MODEL 3
REMARK VINA RESULT:      -7.7      0.520      1.043
REMARK  Name = 
REMARK  5 active torsions:
REMARK  status: ('A' for Active; 'I' for Inactive)
REMARK    1  A    between atoms: C_2  and  C_24
REMARK    2  A    between atoms: N_3  and  C_4
REMARK    3  A    between atoms: C_7  and  C_8
REMARK    4  A    between atoms: C_8  and  N_9
REMARK    5  A    between atoms: C_10  and  C_12
REMARK                            x       y       z     vdW  Elec       q    Type
REMARK                         _______ _______ _______ _____ _____    ______ ____
ROOT
ATOM      1  C   UNL     1       0.775  11.812  19.649  0.00  0.00    +0.000 A 
ATOM      2  C   UNL     1       1.176  10.792  18.779  0.00  0.00    +0.000 A 
ATOM      3  C   UNL     1       1.354   9.476  19.223  0.00  0.00    +0.000 A 
ATOM      4  C   UNL     1       1.138   9.133  20.559  0.00  0.00    +0.000 A 
ATOM      5  C   UNL     1       0.822  10.165  21.456  0.00  0.00    +0.000 A 
ATOM      6  C   UNL     1       0.649  11.495  21.006  0.00  0.00    +0.000 A 
ENDROOT
BRANCH   1   9
ATOM      7  O   UNL     1       2.502  14.120  19.776  0.00  0.00    +0.000 OA
ATOM      8  C   UNL     1       1.365  14.214  19.322  0.00  0.00    +0.000 C 
ATOM      9  N   UNL     1       0.495  13.130  19.192  0.00  0.00    +0.000 N 
ATOM     10  H   UNL     1      -0.322  13.278  18.612  0.00  0.00    +0.000 HD
BRANCH   8  11
ATOM     11  C   UNL     1       0.880  15.503  18.864  0.00  0.00    +0.000 A 
ATOM     12  C   UNL     1      -0.429  15.947  18.805  0.00  0.00    +0.000 A 
ATOM     13  C   UNL     1      -0.404  17.237  18.238  0.00  0.00    +0.000 A 
ATOM     14  C   UNL     1       0.921  17.513  17.995  0.00  0.00    +0.000 A 
ATOM     15  O   UNL     1       1.717  16.475  18.386  0.00  0.00    +0.000 OA
ENDBRANCH   8  11
ENDBRANCH   1   9
BRANCH   4  16
ATOM     16  C   UNL     1       1.203   7.679  20.973  0.00  0.00    +0.000 C 
BRANCH  16  17
ATOM     17  N   UNL     1       2.169   6.912  20.223  0.00  0.00    +0.000 N 
ATOM     18  C   UNL     1       2.119   5.520  20.184  0.00  0.00    +0.000 C 
ATOM     19  O   UNL     1       1.354   4.849  20.859  0.00  0.00    +0.000 OA
ATOM     20  H   UNL     1       2.638   7.359  19.442  0.00  0.00    +0.000 HD
BRANCH  18  21
ATOM     21  C   UNL     1       3.209   4.925  19.285  0.00  0.00    +0.000 C 
ATOM     22  C   UNL     1       2.865   4.777  17.797  0.00  0.00    +0.000 C 
ATOM     23  C   UNL     1       4.252   4.875  17.260  0.00  0.00    +0.000 A 
ATOM     24  C   UNL     1       4.796   4.484  16.048  0.00  0.00    +0.000 A 
ATOM     25  C   UNL     1       6.156   4.741  15.827  0.00  0.00    +0.000 A 
ATOM     26 CL   UNL     1       6.901   4.212  14.367  0.00  0.00    +0.000 Cl
ATOM     27  C   UNL     1       6.936   5.414  16.784  0.00  0.00    +0.000 A 
ATOM     28  C   UNL     1       6.371   5.811  17.994  0.00  0.00    +0.000 A 
ATOM     29  C   UNL     1       5.047   5.503  18.211  0.00  0.00    +0.000 A 
ATOM     30  O   UNL     1       4.395   5.758  19.387  0.00  0.00    +0.000 OA
ENDBRANCH  18  21
ENDBRANCH  16  17
ENDBRANCH   4  16
TORSDOF 5
ENDMDL
MODEL 4
REMARK VINA RESULT:      -7.6      1.348      1.860
REMARK  Name = 
REMARK  5 active torsions:
REMARK  status: ('A' for Active; 'I' for Inactive)
REMARK    1  A    between atoms: C_2  and  C_24
REMARK    2  A    between atoms: N_3  and  C_4
REMARK    3  A    between atoms: C_7  and  C_8
REMARK    4  A    between atoms: C_8  and  N_9
REMARK    5  A    between atoms: C_10  and  C_12
REMARK                            x       y       z     vdW  Elec       q    Type
REMARK                         _______ _______ _______ _____ _____    ______ ____
ROOT
ATOM      1  C   UNL     1      -0.146  11.734  20.328  0.00  0.00    +0.000 A 
ATOM      2  C   UNL     1       0.466  10.876  19.408  0.00  0.00    +0.000 A 
ATOM      3  C   UNL     1       0.853   9.578  19.760  0.00  0.00    +0.000 A 
ATOM      4  C   UNL     1       0.643   9.089  21.051  0.00  0.00    +0.000 A 
ATOM      5  C   UNL     1       0.111   9.971  22.004  0.00  0.00    +0.000 A 
ATOM      6  C   UNL     1      -0.273  11.285  21.648  0.00  0.00    +0.000 A 
ENDROOT
BRANCH   1   9
ATOM      7  O   UNL     1       1.399  14.108  19.777  0.00  0.00    +0.000 OA
ATOM      8  C   UNL     1       0.172  14.138  19.744  0.00  0.00    +0.000 C 
ATOM      9  N   UNL     1      -0.634  13.018  19.958  0.00  0.00    +0.000 N 
ATOM     10  H   UNL     1      -1.607  13.109  19.694  0.00  0.00    +0.000 HD
BRANCH   8  11
ATOM     11  C   UNL     1      -0.507  15.386  19.446  0.00  0.00    +0.000 A 
ATOM     12  C   UNL     1      -0.182  16.321  18.478  0.00  0.00    +0.000 A 
ATOM     13  C   UNL     1      -1.092  17.388  18.610  0.00  0.00    +0.000 A 
ATOM     14  C   UNL     1      -1.931  17.038  19.642  0.00  0.00    +0.000 A 
ATOM     15  O   UNL     1      -1.599  15.816  20.150  0.00  0.00    +0.000 OA
ENDBRANCH   8  11
ENDBRANCH   1   9
BRANCH   4  16
ATOM     16  C   UNL     1       0.945   7.638  21.355  0.00  0.00    +0.000 C 
BRANCH  16  17
ATOM     17  N   UNL     1       2.003   7.089  20.541  0.00  0.00    +0.000 N 
ATOM     18  C   UNL     1       2.094   5.722  20.293  0.00  0.00    +0.000 C 
ATOM     19  O   UNL     1       1.383   4.886  20.828  0.00  0.00    +0.000 OA
ATOM     20  H   UNL     1       2.446   7.693  19.856  0.00  0.00    +0.000 HD
BRANCH  18  21
ATOM     21  C   UNL     1       3.263   5.377  19.362  0.00  0.00    +0.000 C 
ATOM     22  C   UNL     1       3.066   4.169  18.435  0.00  0.00    +0.000 C 
ATOM     23  C   UNL     1       3.983   4.606  17.343  0.00  0.00    +0.000 A 
ATOM     24  C   UNL     1       4.605   3.895  16.330  0.00  0.00    +0.000 A 
ATOM     25  C   UNL     1       5.402   4.608  15.424  0.00  0.00    +0.000 A 
ATOM     26 CL   UNL     1       6.257   3.765  14.189  0.00  0.00    +0.000 Cl
ATOM     27  C   UNL     1       5.533   6.005  15.510  0.00  0.00    +0.000 A 
ATOM     28  C   UNL     1       4.892   6.707  16.529  0.00  0.00    +0.000 A 
ATOM     29  C   UNL     1       4.155   5.980  17.437  0.00  0.00    +0.000 A 
ATOM     30  O   UNL     1       3.547   6.534  18.531  0.00  0.00    +0.000 OA
ENDBRANCH  18  21
ENDBRANCH  16  17
ENDBRANCH   4  16
TORSDOF 5
ENDMDL
MODEL 5
REMARK VINA RESULT:      -7.6      1.177      1.248
REMARK  Name = 
REMARK  5 active torsions:
REMARK  status: ('A' for Active; 'I' for Inactive)
REMARK    1  A    between atoms: C_2  and  C_24
REMARK    2  A    between atoms: N_3  and  C_4
REMARK    3  A    between atoms: C_7  and  C_8
REMARK    4  A    between atoms: C_8  and  N_9
REMARK    5  A    between atoms: C_10  and  C_12
REMARK                            x       y       z     vdW  Elec       q    Type
REMARK                         _______ _______ _______ _____ _____    ______ ____
ROOT
ATOM      1  C   UNL     1       0.147  12.014  19.989  0.00  0.00    +0.000 A 
ATOM      2  C   UNL     1      -0.066  11.573  21.299  0.00  0.00    +0.000 A 
ATOM      3  C   UNL     1       0.186  10.249  21.679  0.00  0.00    +0.000 A 
ATOM      4  C   UNL     1       0.660   9.315  20.757  0.00  0.00    +0.000 A 
ATOM      5  C   UNL     1       0.793   9.725  19.421  0.00  0.00    +0.000 A 
ATOM      6  C   UNL     1       0.532  11.061  19.039  0.00  0.00    +0.000 A 
ENDROOT
BRANCH   1   9
ATOM      7  O   UNL     1       2.107  14.124  20.170  0.00  0.00    +0.000 OA
ATOM      8  C   UNL     1       0.971  14.358  19.767  0.00  0.00    +0.000 C 
ATOM      9  N   UNL     1      -0.010  13.377  19.614  0.00  0.00    +0.000 N 
ATOM     10  H   UNL     1      -0.826  13.641  19.075  0.00  0.00    +0.000 HD
BRANCH   8  11
ATOM     11  C   UNL     1       0.607  15.714  19.398  0.00  0.00    +0.000 A 
ATOM     12  C   UNL     1      -0.365  16.119  18.500  0.00  0.00    +0.000 A 
ATOM     13  C   UNL     1      -0.307  17.525  18.433  0.00  0.00    +0.000 A 
ATOM     14  C   UNL     1       0.688  17.900  19.305  0.00  0.00    +0.000 A 
ATOM     15  O   UNL     1       1.243  16.811  19.913  0.00  0.00    +0.000 OA
ENDBRANCH   8  11
ENDBRANCH   1   9
BRANCH   4  16
ATOM     16  C   UNL     1       1.055   7.934  21.234  0.00  0.00    +0.000 C 
BRANCH  16  17
ATOM     17  N   UNL     1       2.096   7.328  20.439  0.00  0.00    +0.000 N 
ATOM     18  C   UNL     1       2.138   5.953  20.222  0.00  0.00    +0.000 C 
ATOM     19  O   UNL     1       1.393   5.156  20.772  0.00  0.00    +0.000 OA
ATOM     20  H   UNL     1       2.564   7.899  19.742  0.00  0.00    +0.000 HD
BRANCH  18  21
ATOM     21  C   UNL     1       3.297   5.543  19.307  0.00  0.00    +0.000 C 
ATOM     22  C   UNL     1       3.067   4.312  18.419  0.00  0.00    +0.000 C 
ATOM     23  C   UNL     1       3.997   4.686  17.315  0.00  0.00    +0.000 A 
ATOM     24  C   UNL     1       4.599   3.925  16.328  0.00  0.00    +0.000 A 
ATOM     25  C   UNL     1       5.419   4.584  15.401  0.00  0.00    +0.000 A 
ATOM     26 CL   UNL     1       6.250   3.677  14.196  0.00  0.00    +0.000 Cl
ATOM     27  C   UNL     1       5.590   5.979  15.441  0.00  0.00    +0.000 A 
ATOM     28  C   UNL     1       4.967   6.732  16.434  0.00  0.00    +0.000 A 
ATOM     29  C   UNL     1       4.209   6.058  17.365  0.00  0.00    +0.000 A 
ATOM     30  O   UNL     1       3.616   6.664  18.439  0.00  0.00    +0.000 OA
ENDBRANCH  18  21
ENDBRANCH  16  17
ENDBRANCH   4  16
TORSDOF 5
ENDMDL
MODEL 6
REMARK VINA RESULT:      -7.6      1.475      2.020
REMARK  Name = 
REMARK  5 active torsions:
REMARK  status: ('A' for Active; 'I' for Inactive)
REMARK    1  A    between atoms: C_2  and  C_24
REMARK    2  A    between atoms: N_3  and  C_4
REMARK    3  A    between atoms: C_7  and  C_8
REMARK    4  A    between atoms: C_8  and  N_9
REMARK    5  A    between atoms: C_10  and  C_12
REMARK                            x       y       z     vdW  Elec       q    Type
REMARK                         _______ _______ _______ _____ _____    ______ ____
ROOT
ATOM      1  C   UNL     1       0.935  10.195  19.847  0.00  0.00    +0.000 A 
ATOM      2  C   UNL     1       1.596   9.417  18.890  0.00  0.00    +0.000 A 
ATOM      3  C   UNL     1       1.943   8.084  19.140  0.00  0.00    +0.000 A 
ATOM      4  C   UNL     1       1.642   7.479  20.361  0.00  0.00    +0.000 A 
ATOM      5  C   UNL     1       1.058   8.276  21.358  0.00  0.00    +0.000 A 
ATOM      6  C   UNL     1       0.715   9.625  21.106  0.00  0.00    +0.000 A 
ENDROOT
BRANCH   1   9
ATOM      7  O   UNL     1       1.864  12.649  21.048  0.00  0.00    +0.000 OA
ATOM      8  C   UNL     1       0.956  12.661  20.221  0.00  0.00    +0.000 C 
ATOM      9  N   UNL     1       0.489  11.518  19.571  0.00  0.00    +0.000 N 
ATOM     10  H   UNL     1      -0.100  11.671  18.762  0.00  0.00    +0.000 HD
BRANCH   8  11
ATOM     11  C   UNL     1       0.331  13.921  19.861  0.00  0.00    +0.000 A 
ATOM     12  C   UNL     1       0.424  14.604  18.660  0.00  0.00    +0.000 A 
ATOM     13  C   UNL     1      -0.304  15.801  18.808  0.00  0.00    +0.000 A 
ATOM     14  C   UNL     1      -0.811  15.776  20.085  0.00  0.00    +0.000 A 
ATOM     15  O   UNL     1      -0.448  14.631  20.734  0.00  0.00    +0.000 OA
ENDBRANCH   8  11
ENDBRANCH   1   9
BRANCH   4  16
ATOM     16  C   UNL     1       1.904   6.000  20.544  0.00  0.00    +0.000 C 
BRANCH  16  17
ATOM     17  N   UNL     1       2.806   5.452  19.558  0.00  0.00    +0.000 N 
ATOM     18  C   UNL     1       3.253   4.135  19.636  0.00  0.00    +0.000 C 
ATOM     19  O   UNL     1       3.029   3.396  20.582  0.00  0.00    +0.000 OA
ATOM     20  H   UNL     1       2.819   5.868  18.633  0.00  0.00    +0.000 HD
BRANCH  18  21
ATOM     21  C   UNL     1       4.156   3.758  18.456  0.00  0.00    +0.000 C 
ATOM     22  C   UNL     1       3.546   3.897  17.055  0.00  0.00    +0.000 C 
ATOM     23  C   UNL     1       4.813   4.136  16.308  0.00  0.00    +0.000 A 
ATOM     24  C   UNL     1       5.123   4.006  14.964  0.00  0.00    +0.000 A 
ATOM     25  C   UNL     1       6.424   4.338  14.558  0.00  0.00    +0.000 A 
ATOM     26 CL   UNL     1       6.885   4.126  12.911  0.00  0.00    +0.000 Cl
ATOM     27  C   UNL     1       7.371   4.828  15.472  0.00  0.00    +0.000 A 
ATOM     28  C   UNL     1       7.040   4.964  16.819  0.00  0.00    +0.000 A 
ATOM     29  C   UNL     1       5.774   4.584  17.205  0.00  0.00    +0.000 A 
ATOM     30  O   UNL     1       5.349   4.585  18.506  0.00  0.00    +0.000 OA
ENDBRANCH  18  21
ENDBRANCH  16  17
ENDBRANCH   4  16
TORSDOF 5
ENDMDL
MODEL 7
REMARK VINA RESULT:      -7.6      1.351      1.564
REMARK  Name = 
REMARK  5 active torsions:
REMARK  status: ('A' for Active; 'I' for Inactive)
REMARK    1  A    between atoms: C_2  and  C_24
REMARK    2  A    between atoms: N_3  and  C_4
REMARK    3  A    between atoms: C_7  and  C_8
REMARK    4  A    between atoms: C_8  and  N_9
REMARK    5  A    between atoms: C_10  and  C_12
REMARK                            x       y       z     vdW  Elec       q    Type
REMARK                         _______ _______ _______ _____ _____    ______ ____
ROOT
ATOM      1  C   UNL     1       0.549  10.321  19.981  0.00  0.00    +0.000 A 
ATOM      2  C   UNL     1       0.184   9.676  21.168  0.00  0.00    +0.000 A 
ATOM      3  C   UNL     1       0.610   8.375  21.458  0.00  0.00    +0.000 A 
ATOM      4  C   UNL     1       1.419   7.668  20.566  0.00  0.00    +0.000 A 
ATOM      5  C   UNL     1       1.717   8.272  19.335  0.00  0.00    +0.000 A 
ATOM      6  C   UNL     1       1.279   9.584  19.041  0.00  0.00    +0.000 A 
ENDROOT
BRANCH   1   9
ATOM      7  O   UNL     1       1.775  12.689  21.082  0.00  0.00    +0.000 OA
ATOM      8  C   UNL     1       0.816  12.778  20.320  0.00  0.00    +0.000 C 
ATOM      9  N   UNL     1       0.205  11.676  19.719  0.00  0.00    +0.000 N 
ATOM     10  H   UNL     1      -0.424  11.877  18.951  0.00  0.00    +0.000 HD
BRANCH   8  11
ATOM     11  C   UNL     1       0.283  14.086  19.988  0.00  0.00    +0.000 A 
ATOM     12  C   UNL     1       0.163  14.663  18.735  0.00  0.00    +0.000 A 
ATOM     13  C   UNL     1      -0.353  15.960  18.925  0.00  0.00    +0.000 A 
ATOM     14  C   UNL     1      -0.532  16.098  20.281  0.00  0.00    +0.000 A 
ATOM     15  O   UNL     1      -0.166  14.960  20.941  0.00  0.00    +0.000 OA
ENDBRANCH   8  11
ENDBRANCH   1   9
BRANCH   4  16
ATOM     16  C   UNL     1       1.976   6.321  20.975  0.00  0.00    +0.000 C 
BRANCH  16  17
ATOM     17  N   UNL     1       2.817   5.719  19.968  0.00  0.00    +0.000 N 
ATOM     18  C   UNL     1       3.064   4.348  19.953  0.00  0.00    +0.000 C 
ATOM     19  O   UNL     1       2.703   3.583  20.835  0.00  0.00    +0.000 OA
ATOM     20  H   UNL     1       2.920   6.195  19.078  0.00  0.00    +0.000 HD
BRANCH  18  21
ATOM     21  C   UNL     1       3.937   3.928  18.766  0.00  0.00    +0.000 C 
ATOM     22  C   UNL     1       3.432   4.322  17.371  0.00  0.00    +0.000 C 
ATOM     23  C   UNL     1       4.757   4.390  16.691  0.00  0.00    +0.000 A 
ATOM     24  C   UNL     1       5.103   4.341  15.351  0.00  0.00    +0.000 A 
ATOM     25  C   UNL     1       6.460   4.459  15.020  0.00  0.00    +0.000 A 
ATOM     26 CL   UNL     1       6.954   4.332  13.375  0.00  0.00    +0.000 Cl
ATOM     27  C   UNL     1       7.437   4.666  16.010  0.00  0.00    +0.000 A 
ATOM     28  C   UNL     1       7.071   4.725  17.353  0.00  0.00    +0.000 A 
ATOM     29  C   UNL     1       5.739   4.555  17.659  0.00  0.00    +0.000 A 
ATOM     30  O   UNL     1       5.259   4.505  18.939  0.00  0.00    +0.000 OA
ENDBRANCH  18  21
ENDBRANCH  16  17
ENDBRANCH   4  16
TORSDOF 5
ENDMDL
MODEL 8
REMARK VINA RESULT:      -7.5      6.557     10.303
REMARK  Name = 
REMARK  5 active torsions:
REMARK  status: ('A' for Active; 'I' for Inactive)
REMARK    1  A    between atoms: C_2  and  C_24
REMARK    2  A    between atoms: N_3  and  C_4
REMARK    3  A    between atoms: C_7  and  C_8
REMARK    4  A    between atoms: C_8  and  N_9
REMARK    5  A    between atoms: C_10  and  C_12
REMARK                            x       y       z     vdW  Elec       q    Type
REMARK                         _______ _______ _______ _____ _____    ______ ____
ROOT
ATOM      1  C   UNL     1       5.912   5.734  18.374  0.00  0.00    +0.000 A 
ATOM      2  C   UNL     1       7.152   5.821  19.016  0.00  0.00    +0.000 A 
ATOM      3  C   UNL     1       8.049   6.860  18.741  0.00  0.00    +0.000 A 
ATOM      4  C   UNL     1       7.738   7.852  17.810  0.00  0.00    +0.000 A 
ATOM      5  C   UNL     1       6.535   7.724  17.098  0.00  0.00    +0.000 A 
ATOM      6  C   UNL     1       5.633   6.670  17.372  0.00  0.00    +0.000 A 
ENDROOT
BRANCH   1   9
ATOM      7  O   UNL     1       3.336   6.133  19.611  0.00  0.00    +0.000 OA
ATOM      8  C   UNL     1       3.737   5.001  19.351  0.00  0.00    +0.000 C 
ATOM      9  N   UNL     1       4.951   4.741  18.715  0.00  0.00    +0.000 N 
ATOM     10  H   UNL     1       5.078   3.802  18.358  0.00  0.00    +0.000 HD
BRANCH   8  11
ATOM     11  C   UNL     1       2.914   3.854  19.689  0.00  0.00    +0.000 A 
ATOM     12  C   UNL     1       2.438   2.869  18.841  0.00  0.00    +0.000 A 
ATOM     13  C   UNL     1       1.640   2.005  19.617  0.00  0.00    +0.000 A 
ATOM     14  C   UNL     1       1.685   2.503  20.898  0.00  0.00    +0.000 A 
ATOM     15  O   UNL     1       2.470   3.618  20.962  0.00  0.00    +0.000 OA
ENDBRANCH   8  11
ENDBRANCH   1   9
BRANCH   4  16
ATOM     16  C   UNL     1       8.668   9.034  17.643  0.00  0.00    +0.000 C 
BRANCH  16  17
ATOM     17  N   UNL     1       8.926   9.739  18.876  0.00  0.00    +0.000 N 
ATOM     18  C   UNL     1       9.768  10.848  18.915  0.00  0.00    +0.000 C 
ATOM     19  O   UNL     1      10.436  11.228  17.966  0.00  0.00    +0.000 OA
ATOM     20  H   UNL     1       8.235   9.683  19.617  0.00  0.00    +0.000 HD
BRANCH  18  21
ATOM     21  C   UNL     1       9.850  11.466  20.316  0.00  0.00    +0.000 C 
ATOM     22  C   UNL     1       9.714  12.993  20.401  0.00  0.00    +0.000 C 
ATOM     23  C   UNL     1       9.159  13.067  21.782  0.00  0.00    +0.000 A 
ATOM     24  C   UNL     1       9.104  14.109  22.692  0.00  0.00    +0.000 A 
ATOM     25  C   UNL     1       8.482  13.870  23.925  0.00  0.00    +0.000 A 
ATOM     26 CL   UNL     1       8.450  15.108  25.123  0.00  0.00    +0.000 Cl
ATOM     27  C   UNL     1       7.891  12.628  24.215  0.00  0.00    +0.000 A 
ATOM     28  C   UNL     1       7.945  11.593  23.284  0.00  0.00    +0.000 A 
ATOM     29  C   UNL     1       8.605  11.834  22.100  0.00  0.00    +0.000 A 
ATOM     30  O   UNL     1       8.805  10.881  21.139  0.00  0.00    +0.000 OA
ENDBRANCH  18  21
ENDBRANCH  16  17
ENDBRANCH   4  16
TORSDOF 5
ENDMDL
MODEL 9
REMARK VINA RESULT:      -7.5      5.175     10.901
REMARK  Name = 
REMARK  5 active torsions:
REMARK  status: ('A' for Active; 'I' for Inactive)
REMARK    1  A    between atoms: C_2  and  C_24
REMARK    2  A    between atoms: N_3  and  C_4
REMARK    3  A    between atoms: C_7  and  C_8
REMARK    4  A    between atoms: C_8  and  N_9
REMARK    5  A    between atoms: C_10  and  C_12
REMARK                            x       y       z     vdW  Elec       q    Type
REMARK                         _______ _______ _______ _____ _____    ______ ____
ROOT
ATOM      1  C   UNL     1       1.719   8.093  19.998  0.00  0.00    +0.000 A 
ATOM      2  C   UNL     1       1.138   9.031  20.858  0.00  0.00    +0.000 A 
ATOM      3  C   UNL     1       0.742  10.296  20.405  0.00  0.00    +0.000 A 
ATOM      4  C   UNL     1       0.917  10.670  19.072  0.00  0.00    +0.000 A 
ATOM      5  C   UNL     1       1.579   9.770  18.223  0.00  0.00    +0.000 A 
ATOM      6  C   UNL     1       1.984   8.495  18.683  0.00  0.00    +0.000 A 
ENDROOT
BRANCH   1   9
ATOM      7  O   UNL     1       2.363   5.823  18.337  0.00  0.00    +0.000 OA
ATOM      8  C   UNL     1       2.297   5.707  19.557  0.00  0.00    +0.000 C 
ATOM      9  N   UNL     1       2.035   6.772  20.421  0.00  0.00    +0.000 N 
ATOM     10  H   UNL     1       2.219   6.609  21.403  0.00  0.00    +0.000 HD
BRANCH   8  11
ATOM     11  C   UNL     1       2.526   4.410  20.167  0.00  0.00    +0.000 A 
ATOM     12  C   UNL     1       1.855   3.842  21.236  0.00  0.00    +0.000 A 
ATOM     13  C   UNL     1       2.472   2.603  21.501  0.00  0.00    +0.000 A 
ATOM     14  C   UNL     1       3.476   2.478  20.571  0.00  0.00    +0.000 A 
ATOM     15  O   UNL     1       3.512   3.561  19.741  0.00  0.00    +0.000 OA
ENDBRANCH   8  11
ENDBRANCH   1   9
BRANCH   4  16
ATOM     16  C   UNL     1       0.350  11.987  18.589  0.00  0.00    +0.000 C 
BRANCH  16  17
ATOM     17  N   UNL     1      -0.673  12.524  19.455  0.00  0.00    +0.000 N 
ATOM     18  C   UNL     1      -2.022  12.257  19.237  0.00  0.00    +0.000 C 
ATOM     19  O   UNL     1      -2.449  11.669  18.255  0.00  0.00    +0.000 OA
ATOM     20  H   UNL     1      -0.418  12.768  20.406  0.00  0.00    +0.000 HD
BRANCH  18  21
ATOM     21  C   UNL     1      -2.919  12.885  20.310  0.00  0.00    +0.000 C 
ATOM     22  C   UNL     1      -4.429  12.658  20.159  0.00  0.00    +0.000 C 
ATOM     23  C   UNL     1      -4.791  12.759  21.602  0.00  0.00    +0.000 A 
ATOM     24  C   UNL     1      -6.001  13.011  22.228  0.00  0.00    +0.000 A 
ATOM     25  C   UNL     1      -6.024  13.016  23.629  0.00  0.00    +0.000 A 
ATOM     26 CL   UNL     1      -7.485  13.396  24.459  0.00  0.00    +0.000 Cl
ATOM     27  C   UNL     1      -4.870  12.730  24.379  0.00  0.00    +0.000 A 
ATOM     28  C   UNL     1      -3.664  12.467  23.735  0.00  0.00    +0.000 A 
ATOM     29  C   UNL     1      -3.652  12.518  22.358  0.00  0.00    +0.000 A 
ATOM     30  O   UNL     1      -2.519  12.365  21.607  0.00  0.00    +0.000 OA
ENDBRANCH  18  21
ENDBRANCH  16  17
ENDBRANCH   4  16
TORSDOF 5
ENDMDL
