MODEL 1
REMARK VINA RESULT:      -8.0      0.000      0.000
REMARK  Name = 
REMARK  4 active torsions:
REMARK  status: ('A' for Active; 'I' for Inactive)
REMARK    1  A    between atoms: C_1  and  C_2
REMARK    2  A    between atoms: C_4  and  C_5
REMARK    3  A    between atoms: N_7  and  C_8
REMARK    4  A    between atoms: N_17  and  C_18
REMARK                            x       y       z     vdW  Elec       q    Type
REMARK                         _______ _______ _______ _____ _____    ______ ____
ROOT
ATOM      1  C   UNL     1       2.524   7.214  18.767  0.00  0.00    +0.000 C 
ATOM      2  O   UNL     1       2.281   7.379  19.957  0.00  0.00    +0.000 OA
ATOM      3  N   UNL     1       2.243   8.120  17.749  0.00  0.00    +0.000 N 
ATOM      4  H   UNL     1       2.341   7.802  16.793  0.00  0.00    +0.000 HD
ENDROOT
BRANCH   1   8
ATOM      5  C   UNL     1       2.076   2.405  17.583  0.00  0.00    +0.000 C 
ATOM      6  C   UNL     1       2.900   3.647  17.748  0.00  0.00    +0.000 A 
ATOM      7  C   UNL     1       2.348   4.803  18.267  0.00  0.00    +0.000 A 
ATOM      8  C   UNL     1       3.158   5.931  18.365  0.00  0.00    +0.000 A 
ATOM      9  C   UNL     1       4.519   5.894  17.942  0.00  0.00    +0.000 A 
ATOM     10  C   UNL     1       5.442   6.975  18.010  0.00  0.00    +0.000 A 
ATOM     11  C   UNL     1       6.726   6.863  17.485  0.00  0.00    +0.000 A 
ATOM     12 BR   UNL     1       7.899   8.343  17.527  0.00  0.00    +0.000 Br
ATOM     13  C   UNL     1       7.136   5.670  16.913  0.00  0.00    +0.000 A 
ATOM     14  C   UNL     1       6.253   4.586  16.894  0.00  0.00    +0.000 A 
ATOM     15  C   UNL     1       4.961   4.672  17.398  0.00  0.00    +0.000 A 
ATOM     16  N   UNL     1       4.181   3.581  17.324  0.00  0.00    +0.000 NA
ENDBRANCH   1   8
BRANCH   3  17
ATOM     17  C   UNL     1       1.554   9.341  17.938  0.00  0.00    +0.000 A 
ATOM     18  C   UNL     1       2.228  10.555  18.206  0.00  0.00    +0.000 A 
ATOM     19  C   UNL     1       1.542  11.702  18.604  0.00  0.00    +0.000 A 
ATOM     20  C   UNL     1       0.177  11.599  18.702  0.00  0.00    +0.000 A 
ATOM     21  C   UNL     1      -0.505  10.454  18.351  0.00  0.00    +0.000 A 
ATOM     22  C   UNL     1       0.153   9.310  17.939  0.00  0.00    +0.000 A 
ATOM     23  O   UNL     1      -1.870  10.568  18.568  0.00  0.00    +0.000 OA
ATOM     24  C   UNL     1      -1.981  11.844  19.148  0.00  0.00    +0.000 A 
ATOM     25  O   UNL     1      -3.040  12.292  19.569  0.00  0.00    +0.000 OA
ATOM     26  N   UNL     1      -0.756  12.475  19.186  0.00  0.00    +0.000 N 
ATOM     27  C   UNL     1      -0.450  13.734  19.805  0.00  0.00    +0.000 C 
ENDBRANCH   3  17
TORSDOF 2
ENDMDL
MODEL 2
REMARK VINA RESULT:      -7.9      3.081      8.637
REMARK  Name = 
REMARK  4 active torsions:
REMARK  status: ('A' for Active; 'I' for Inactive)
REMARK    1  A    between atoms: C_1  and  C_2
REMARK    2  A    between atoms: C_4  and  C_5
REMARK    3  A    between atoms: N_7  and  C_8
REMARK    4  A    between atoms: N_17  and  C_18
REMARK                            x       y       z     vdW  Elec       q    Type
REMARK                         _______ _______ _______ _____ _____    ______ ____
ROOT
ATOM      1  C   UNL     1       0.955   9.707  19.131  0.00  0.00    +0.000 C 
ATOM      2  O   UNL     1       1.583  10.172  18.186  0.00  0.00    +0.000 OA
ATOM      3  N   UNL     1       1.205   8.486  19.748  0.00  0.00    +0.000 N 
ATOM      4  H   UNL     1       0.519   8.140  20.408  0.00  0.00    +0.000 HD
ENDROOT
BRANCH   1   8
ATOM      5  C   UNL     1      -0.910  12.705  22.633  0.00  0.00    +0.000 C 
ATOM      6  C   UNL     1      -1.025  11.982  21.325  0.00  0.00    +0.000 A 
ATOM      7  C   UNL     1      -0.032  11.119  20.900  0.00  0.00    +0.000 A 
ATOM      8  C   UNL     1      -0.184  10.503  19.660  0.00  0.00    +0.000 A 
ATOM      9  C   UNL     1      -1.332  10.755  18.854  0.00  0.00    +0.000 A 
ATOM     10  C   UNL     1      -1.602  10.171  17.584  0.00  0.00    +0.000 A 
ATOM     11  C   UNL     1      -2.710  10.553  16.833  0.00  0.00    +0.000 A 
ATOM     12 BR   UNL     1      -2.995   9.811  15.120  0.00  0.00    +0.000 Br
ATOM     13  C   UNL     1      -3.593  11.493  17.337  0.00  0.00    +0.000 A 
ATOM     14  C   UNL     1      -3.364  12.029  18.609  0.00  0.00    +0.000 A 
ATOM     15  C   UNL     1      -2.260  11.677  19.374  0.00  0.00    +0.000 A 
ATOM     16  N   UNL     1      -2.118  12.254  20.579  0.00  0.00    +0.000 NA
ENDBRANCH   1   8
BRANCH   3  17
ATOM     17  C   UNL     1       2.181   7.559  19.313  0.00  0.00    +0.000 A 
ATOM     18  C   UNL     1       2.897   7.726  18.105  0.00  0.00    +0.000 A 
ATOM     19  C   UNL     1       3.692   6.710  17.578  0.00  0.00    +0.000 A 
ATOM     20  C   UNL     1       3.763   5.545  18.301  0.00  0.00    +0.000 A 
ATOM     21  C   UNL     1       3.151   5.399  19.528  0.00  0.00    +0.000 A 
ATOM     22  C   UNL     1       2.371   6.399  20.077  0.00  0.00    +0.000 A 
ATOM     23  O   UNL     1       3.327   4.129  20.055  0.00  0.00    +0.000 OA
ATOM     24  C   UNL     1       4.033   3.470  19.032  0.00  0.00    +0.000 A 
ATOM     25  O   UNL     1       4.311   2.279  19.080  0.00  0.00    +0.000 OA
ATOM     26  N   UNL     1       4.329   4.336  18.002  0.00  0.00    +0.000 N 
ATOM     27  C   UNL     1       4.935   4.008  16.742  0.00  0.00    +0.000 C 
ENDBRANCH   3  17
TORSDOF 2
ENDMDL
MODEL 3
REMARK VINA RESULT:      -7.9      1.881      1.981
REMARK  Name = 
REMARK  4 active torsions:
REMARK  status: ('A' for Active; 'I' for Inactive)
REMARK    1  A    between atoms: C_1  and  C_2
REMARK    2  A    between atoms: C_4  and  C_5
REMARK    3  A    between atoms: N_7  and  C_8
REMARK    4  A    between atoms: N_17  and  C_18
REMARK                            x       y       z     vdW  Elec       q    Type
REMARK                         _______ _______ _______ _____ _____    ______ ____
ROOT
ATOM      1  C   UNL     1       2.520   7.035  18.713  0.00  0.00    +0.000 C 
ATOM      2  O   UNL     1       2.352   7.850  17.813  0.00  0.00    +0.000 OA
ATOM      3  N   UNL     1       2.119   7.193  20.035  0.00  0.00    +0.000 N 
ATOM      4  H   UNL     1       2.459   6.524  20.716  0.00  0.00    +0.000 HD
ENDROOT
BRANCH   1   8
ATOM      5  C   UNL     1       2.341   2.173  17.678  0.00  0.00    +0.000 C 
ATOM      6  C   UNL     1       3.099   3.458  17.828  0.00  0.00    +0.000 A 
ATOM      7  C   UNL     1       2.475   4.603  18.289  0.00  0.00    +0.000 A 
ATOM      8  C   UNL     1       3.228   5.771  18.375  0.00  0.00    +0.000 A 
ATOM      9  C   UNL     1       4.602   5.786  17.999  0.00  0.00    +0.000 A 
ATOM     10  C   UNL     1       5.471   6.912  18.062  0.00  0.00    +0.000 A 
ATOM     11  C   UNL     1       6.777   6.845  17.584  0.00  0.00    +0.000 A 
ATOM     12 BR   UNL     1       7.876   8.381  17.615  0.00  0.00    +0.000 Br
ATOM     13  C   UNL     1       7.262   5.656  17.067  0.00  0.00    +0.000 A 
ATOM     14  C   UNL     1       6.432   4.530  17.055  0.00  0.00    +0.000 A 
ATOM     15  C   UNL     1       5.121   4.571  17.513  0.00  0.00    +0.000 A 
ATOM     16  N   UNL     1       4.396   3.441  17.450  0.00  0.00    +0.000 NA
ENDBRANCH   1   8
BRANCH   3  17
ATOM     17  C   UNL     1       1.524   8.368  20.551  0.00  0.00    +0.000 A 
ATOM     18  C   UNL     1       1.358   8.585  21.939  0.00  0.00    +0.000 A 
ATOM     19  C   UNL     1       0.582   9.634  22.429  0.00  0.00    +0.000 A 
ATOM     20  C   UNL     1       0.004  10.459  21.498  0.00  0.00    +0.000 A 
ATOM     21  C   UNL     1       0.232  10.322  20.145  0.00  0.00    +0.000 A 
ATOM     22  C   UNL     1       1.011   9.299  19.637  0.00  0.00    +0.000 A 
ATOM     23  O   UNL     1      -0.486  11.241  19.395  0.00  0.00    +0.000 OA
ATOM     24  C   UNL     1      -1.235  11.915  20.375  0.00  0.00    +0.000 A 
ATOM     25  O   UNL     1      -2.074  12.764  20.101  0.00  0.00    +0.000 OA
ATOM     26  N   UNL     1      -0.906  11.471  21.638  0.00  0.00    +0.000 N 
ATOM     27  C   UNL     1      -1.536  11.838  22.876  0.00  0.00    +0.000 C 
ENDBRANCH   3  17
TORSDOF 2
ENDMDL
MODEL 4
REMARK VINA RESULT:      -7.8      2.796      3.773
REMARK  Name = 
REMARK  4 active torsions:
REMARK  status: ('A' for Active; 'I' for Inactive)
REMARK    1  A    between atoms: C_1  and  C_2
REMARK    2  A    between atoms: C_4  and  C_5
REMARK    3  A    between atoms: N_7  and  C_8
REMARK    4  A    between atoms: N_17  and  C_18
REMARK                            x       y       z     vdW  Elec       q    Type
REMARK                         _______ _______ _______ _____ _____    ______ ____
ROOT
ATOM      1  C   UNL     1       2.654   7.867  18.058  0.00  0.00    +0.000 C 
ATOM      2  O   UNL     1       2.291   8.519  17.085  0.00  0.00    +0.000 OA
ATOM      3  N   UNL     1       2.126   7.963  19.341  0.00  0.00    +0.000 N 
ATOM      4  H   UNL     1       2.617   7.492  20.091  0.00  0.00    +0.000 HD
ENDROOT
BRANCH   1   8
ATOM      5  C   UNL     1       7.499   6.999  17.348  0.00  0.00    +0.000 C 
ATOM      6  C   UNL     1       6.098   6.518  17.581  0.00  0.00    +0.000 A 
ATOM      7  C   UNL     1       5.038   7.405  17.610  0.00  0.00    +0.000 A 
ATOM      8  C   UNL     1       3.765   6.898  17.863  0.00  0.00    +0.000 A 
ATOM      9  C   UNL     1       3.563   5.505  18.082  0.00  0.00    +0.000 A 
ATOM     10  C   UNL     1       2.311   4.874  18.330  0.00  0.00    +0.000 A 
ATOM     11  C   UNL     1       2.231   3.516  18.623  0.00  0.00    +0.000 A 
ATOM     12 BR   UNL     1       0.560   2.729  19.020  0.00  0.00    +0.000 Br
ATOM     13  C   UNL     1       3.382   2.746  18.643  0.00  0.00    +0.000 A 
ATOM     14  C   UNL     1       4.609   3.348  18.345  0.00  0.00    +0.000 A 
ATOM     15  C   UNL     1       4.720   4.703  18.062  0.00  0.00    +0.000 A 
ATOM     16  N   UNL     1       5.943   5.194  17.799  0.00  0.00    +0.000 NA
ENDBRANCH   1   8
BRANCH   3  17
ATOM     17  C   UNL     1       1.137   8.899  19.727  0.00  0.00    +0.000 A 
ATOM     18  C   UNL     1       0.391   9.643  18.784  0.00  0.00    +0.000 A 
ATOM     19  C   UNL     1      -0.419  10.710  19.167  0.00  0.00    +0.000 A 
ATOM     20  C   UNL     1      -0.474  10.989  20.510  0.00  0.00    +0.000 A 
ATOM     21  C   UNL     1       0.168  10.215  21.453  0.00  0.00    +0.000 A 
ATOM     22  C   UNL     1       0.965   9.143  21.096  0.00  0.00    +0.000 A 
ATOM     23  O   UNL     1       0.004  10.709  22.738  0.00  0.00    +0.000 OA
ATOM     24  C   UNL     1      -0.729  11.889  22.520  0.00  0.00    +0.000 A 
ATOM     25  O   UNL     1      -1.008  12.671  23.419  0.00  0.00    +0.000 OA
ATOM     26  N   UNL     1      -1.049  12.029  21.187  0.00  0.00    +0.000 N 
ATOM     27  C   UNL     1      -1.687  13.156  20.565  0.00  0.00    +0.000 C 
ENDBRANCH   3  17
TORSDOF 2
ENDMDL
MODEL 5
REMARK VINA RESULT:      -7.8      2.132      3.061
REMARK  Name = 
REMARK  4 active torsions:
REMARK  status: ('A' for Active; 'I' for Inactive)
REMARK    1  A    between atoms: C_1  and  C_2
REMARK    2  A    between atoms: C_4  and  C_5
REMARK    3  A    between atoms: N_7  and  C_8
REMARK    4  A    between atoms: N_17  and  C_18
REMARK                            x       y       z     vdW  Elec       q    Type
REMARK                         _______ _______ _______ _____ _____    ______ ____
ROOT
ATOM      1  C   UNL     1       2.747   7.425  18.407  0.00  0.00    +0.000 C 
ATOM      2  O   UNL     1       2.459   7.399  19.598  0.00  0.00    +0.000 OA
ATOM      3  N   UNL     1       2.464   8.464  17.527  0.00  0.00    +0.000 N 
ATOM      4  H   UNL     1       2.606   8.298  16.537  0.00  0.00    +0.000 HD
ENDROOT
BRANCH   1   8
ATOM      5  C   UNL     1       6.099   5.531  15.259  0.00  0.00    +0.000 C 
ATOM      6  C   UNL     1       5.096   5.373  16.362  0.00  0.00    +0.000 A 
ATOM      7  C   UNL     1       4.334   6.445  16.789  0.00  0.00    +0.000 A 
ATOM      8  C   UNL     1       3.443   6.240  17.840  0.00  0.00    +0.000 A 
ATOM      9  C   UNL     1       3.320   4.960  18.455  0.00  0.00    +0.000 A 
ATOM     10  C   UNL     1       2.434   4.630  19.519  0.00  0.00    +0.000 A 
ATOM     11  C   UNL     1       2.455   3.371  20.113  0.00  0.00    +0.000 A 
ATOM     12 BR   UNL     1       1.316   2.994  21.572  0.00  0.00    +0.000 Br
ATOM     13  C   UNL     1       3.327   2.402  19.645  0.00  0.00    +0.000 A 
ATOM     14  C   UNL     1       4.160   2.702  18.562  0.00  0.00    +0.000 A 
ATOM     15  C   UNL     1       4.170   3.954  17.959  0.00  0.00    +0.000 A 
ATOM     16  N   UNL     1       5.014   4.151  16.933  0.00  0.00    +0.000 NA
ENDBRANCH   1   8
BRANCH   3  17
ATOM     17  C   UNL     1       1.723   9.619  17.871  0.00  0.00    +0.000 A 
ATOM     18  C   UNL     1       2.344  10.851  18.182  0.00  0.00    +0.000 A 
ATOM     19  C   UNL     1       1.629  11.916  18.727  0.00  0.00    +0.000 A 
ATOM     20  C   UNL     1       0.285  11.716  18.928  0.00  0.00    +0.000 A 
ATOM     21  C   UNL     1      -0.355  10.558  18.541  0.00  0.00    +0.000 A 
ATOM     22  C   UNL     1       0.331   9.496  17.985  0.00  0.00    +0.000 A 
ATOM     23  O   UNL     1      -1.700  10.565  18.879  0.00  0.00    +0.000 OA
ATOM     24  C   UNL     1      -1.836  11.783  19.569  0.00  0.00    +0.000 A 
ATOM     25  O   UNL     1      -2.879  12.125  20.110  0.00  0.00    +0.000 OA
ATOM     26  N   UNL     1      -0.652  12.488  19.557  0.00  0.00    +0.000 N 
ATOM     27  C   UNL     1      -0.368  13.714  20.250  0.00  0.00    +0.000 C 
ENDBRANCH   3  17
TORSDOF 2
ENDMDL
MODEL 6
REMARK VINA RESULT:      -7.7      3.161      8.514
REMARK  Name = 
REMARK  4 active torsions:
REMARK  status: ('A' for Active; 'I' for Inactive)
REMARK    1  A    between atoms: C_1  and  C_2
REMARK    2  A    between atoms: C_4  and  C_5
REMARK    3  A    between atoms: N_7  and  C_8
REMARK    4  A    between atoms: N_17  and  C_18
REMARK                            x       y       z     vdW  Elec       q    Type
REMARK                         _______ _______ _______ _____ _____    ______ ____
ROOT
ATOM      1  C   UNL     1       1.093   9.601  18.987  0.00  0.00    +0.000 C 
ATOM      2  O   UNL     1       1.739  10.118  18.083  0.00  0.00    +0.000 OA
ATOM      3  N   UNL     1       1.317   8.338  19.524  0.00  0.00    +0.000 N 
ATOM      4  H   UNL     1       0.616   7.959  20.151  0.00  0.00    +0.000 HD
ENDROOT
BRANCH   1   8
ATOM      5  C   UNL     1      -0.743  12.478  22.604  0.00  0.00    +0.000 C 
ATOM      6  C   UNL     1      -0.870  11.798  21.274  0.00  0.00    +0.000 A 
ATOM      7  C   UNL     1       0.121  10.952  20.811  0.00  0.00    +0.000 A 
ATOM      8  C   UNL     1      -0.043  10.377  19.553  0.00  0.00    +0.000 A 
ATOM      9  C   UNL     1      -1.199  10.652  18.767  0.00  0.00    +0.000 A 
ATOM     10  C   UNL     1      -1.480  10.110  17.482  0.00  0.00    +0.000 A 
ATOM     11  C   UNL     1      -2.597  10.514  16.755  0.00  0.00    +0.000 A 
ATOM     12 BR   UNL     1      -2.897   9.829  15.020  0.00  0.00    +0.000 Br
ATOM     13  C   UNL     1      -3.476  11.436  17.298  0.00  0.00    +0.000 A 
ATOM     14  C   UNL     1      -3.236  11.930  18.584  0.00  0.00    +0.000 A 
ATOM     15  C   UNL     1      -2.123  11.555  19.327  0.00  0.00    +0.000 A 
ATOM     16  N   UNL     1      -1.971  12.093  20.548  0.00  0.00    +0.000 NA
ENDBRANCH   1   8
BRANCH   3  17
ATOM     17  C   UNL     1       2.286   7.428  19.041  0.00  0.00    +0.000 A 
ATOM     18  C   UNL     1       2.744   6.332  19.809  0.00  0.00    +0.000 A 
ATOM     19  C   UNL     1       3.845   5.573  19.420  0.00  0.00    +0.000 A 
ATOM     20  C   UNL     1       4.453   5.929  18.242  0.00  0.00    +0.000 A 
ATOM     21  C   UNL     1       3.964   6.932  17.432  0.00  0.00    +0.000 A 
ATOM     22  C   UNL     1       2.863   7.687  17.790  0.00  0.00    +0.000 A 
ATOM     23  O   UNL     1       4.760   7.142  16.316  0.00  0.00    +0.000 OA
ATOM     24  C   UNL     1       5.822   6.244  16.527  0.00  0.00    +0.000 A 
ATOM     25  O   UNL     1       6.797   6.186  15.788  0.00  0.00    +0.000 OA
ATOM     26  N   UNL     1       5.611   5.490  17.661  0.00  0.00    +0.000 N 
ATOM     27  C   UNL     1       6.522   4.555  18.260  0.00  0.00    +0.000 C 
ENDBRANCH   3  17
TORSDOF 2
ENDMDL
MODEL 7
REMARK VINA RESULT:      -7.7      2.577      3.524
REMARK  Name = 
REMARK  4 active torsions:
REMARK  status: ('A' for Active; 'I' for Inactive)
REMARK    1  A    between atoms: C_1  and  C_2
REMARK    2  A    between atoms: C_4  and  C_5
REMARK    3  A    between atoms: N_7  and  C_8
REMARK    4  A    between atoms: N_17  and  C_18
REMARK                            x       y       z     vdW  Elec       q    Type
REMARK                         _______ _______ _______ _____ _____    ______ ____
ROOT
ATOM      1  C   UNL     1       3.587   7.036  17.873  0.00  0.00    +0.000 C 
ATOM      2  O   UNL     1       4.396   7.956  17.843  0.00  0.00    +0.000 OA
ATOM      3  N   UNL     1       2.323   7.087  18.452  0.00  0.00    +0.000 N 
ATOM      4  H   UNL     1       1.816   6.216  18.556  0.00  0.00    +0.000 HD
ENDROOT
BRANCH   1   8
ATOM      5  C   UNL     1       6.370   4.546  14.589  0.00  0.00    +0.000 C 
ATOM      6  C   UNL     1       5.377   4.581  15.712  0.00  0.00    +0.000 A 
ATOM      7  C   UNL     1       4.884   5.781  16.189  0.00  0.00    +0.000 A 
ATOM      8  C   UNL     1       3.989   5.745  17.255  0.00  0.00    +0.000 A 
ATOM      9  C   UNL     1       3.592   4.506  17.836  0.00  0.00    +0.000 A 
ATOM     10  C   UNL     1       2.673   4.347  18.912  0.00  0.00    +0.000 A 
ATOM     11  C   UNL     1       2.421   3.096  19.468  0.00  0.00    +0.000 A 
ATOM     12 BR   UNL     1       1.253   2.935  20.944  0.00  0.00    +0.000 Br
ATOM     13  C   UNL     1       3.044   1.973  18.951  0.00  0.00    +0.000 A 
ATOM     14  C   UNL     1       3.904   2.115  17.857  0.00  0.00    +0.000 A 
ATOM     15  C   UNL     1       4.184   3.351  17.290  0.00  0.00    +0.000 A 
ATOM     16  N   UNL     1       5.033   3.389  16.249  0.00  0.00    +0.000 NA
ENDBRANCH   1   8
BRANCH   3  17
ATOM     17  C   UNL     1       1.819   8.198  19.168  0.00  0.00    +0.000 A 
ATOM     18  C   UNL     1       1.622   8.170  20.568  0.00  0.00    +0.000 A 
ATOM     19  C   UNL     1       0.927   9.180  21.231  0.00  0.00    +0.000 A 
ATOM     20  C   UNL     1       0.462  10.215  20.460  0.00  0.00    +0.000 A 
ATOM     21  C   UNL     1       0.728  10.309  19.110  0.00  0.00    +0.000 A 
ATOM     22  C   UNL     1       1.428   9.327  18.435  0.00  0.00    +0.000 A 
ATOM     23  O   UNL     1       0.125  11.416  18.532  0.00  0.00    +0.000 OA
ATOM     24  C   UNL     1      -0.596  11.967  19.606  0.00  0.00    +0.000 A 
ATOM     25  O   UNL     1      -1.342  12.928  19.480  0.00  0.00    +0.000 OA
ATOM     26  N   UNL     1      -0.356  11.267  20.769  0.00  0.00    +0.000 N 
ATOM     27  C   UNL     1      -0.996  11.457  22.041  0.00  0.00    +0.000 C 
ENDBRANCH   3  17
TORSDOF 2
ENDMDL
MODEL 8
REMARK VINA RESULT:      -7.6      2.249      3.335
REMARK  Name = 
REMARK  4 active torsions:
REMARK  status: ('A' for Active; 'I' for Inactive)
REMARK    1  A    between atoms: C_1  and  C_2
REMARK    2  A    between atoms: C_4  and  C_5
REMARK    3  A    between atoms: N_7  and  C_8
REMARK    4  A    between atoms: N_17  and  C_18
REMARK                            x       y       z     vdW  Elec       q    Type
REMARK                         _______ _______ _______ _____ _____    ______ ____
ROOT
ATOM      1  C   UNL     1       2.605   7.628  18.520  0.00  0.00    +0.000 C 
ATOM      2  O   UNL     1       2.230   7.483  19.678  0.00  0.00    +0.000 OA
ATOM      3  N   UNL     1       2.154   8.605  17.638  0.00  0.00    +0.000 N 
ATOM      4  H   UNL     1       2.417   8.519  16.663  0.00  0.00    +0.000 HD
ENDROOT
BRANCH   1   8
ATOM      5  C   UNL     1       7.236   6.726  16.947  0.00  0.00    +0.000 C 
ATOM      6  C   UNL     1       5.855   6.262  17.305  0.00  0.00    +0.000 A 
ATOM      7  C   UNL     1       4.867   7.167  17.645  0.00  0.00    +0.000 A 
ATOM      8  C   UNL     1       3.615   6.670  17.998  0.00  0.00    +0.000 A 
ATOM      9  C   UNL     1       3.360   5.268  18.006  0.00  0.00    +0.000 A 
ATOM     10  C   UNL     1       2.120   4.649  18.330  0.00  0.00    +0.000 A 
ATOM     11  C   UNL     1       2.000   3.263  18.398  0.00  0.00    +0.000 A 
ATOM     12 BR   UNL     1       0.357   2.479  18.905  0.00  0.00    +0.000 Br
ATOM     13  C   UNL     1       3.092   2.461  18.112  0.00  0.00    +0.000 A 
ATOM     14  C   UNL     1       4.298   3.062  17.738  0.00  0.00    +0.000 A 
ATOM     15  C   UNL     1       4.451   4.442  17.675  0.00  0.00    +0.000 A 
ATOM     16  N   UNL     1       5.652   4.927  17.317  0.00  0.00    +0.000 NA
ENDBRANCH   1   8
BRANCH   3  17
ATOM     17  C   UNL     1       1.128   9.532  17.934  0.00  0.00    +0.000 A 
ATOM     18  C   UNL     1       1.292  10.564  18.886  0.00  0.00    +0.000 A 
ATOM     19  C   UNL     1       0.217  11.332  19.329  0.00  0.00    +0.000 A 
ATOM     20  C   UNL     1      -1.008  11.050  18.778  0.00  0.00    +0.000 A 
ATOM     21  C   UNL     1      -1.172  10.115  17.779  0.00  0.00    +0.000 A 
ATOM     22  C   UNL     1      -0.117   9.353  17.314  0.00  0.00    +0.000 A 
ATOM     23  O   UNL     1      -2.500   9.972  17.406  0.00  0.00    +0.000 OA
ATOM     24  C   UNL     1      -3.161  10.836  18.296  0.00  0.00    +0.000 A 
ATOM     25  O   UNL     1      -4.381  10.932  18.343  0.00  0.00    +0.000 OA
ATOM     26  N   UNL     1      -2.258  11.512  19.087  0.00  0.00    +0.000 N 
ATOM     27  C   UNL     1      -2.556  12.389  20.185  0.00  0.00    +0.000 C 
ENDBRANCH   3  17
TORSDOF 2
ENDMDL
MODEL 9
REMARK VINA RESULT:      -7.6      2.310      3.185
REMARK  Name = 
REMARK  4 active torsions:
REMARK  status: ('A' for Active; 'I' for Inactive)
REMARK    1  A    between atoms: C_1  and  C_2
REMARK    2  A    between atoms: C_4  and  C_5
REMARK    3  A    between atoms: N_7  and  C_8
REMARK    4  A    between atoms: N_17  and  C_18
REMARK                            x       y       z     vdW  Elec       q    Type
REMARK                         _______ _______ _______ _____ _____    ______ ____
ROOT
ATOM      1  C   UNL     1       2.356   7.578  18.715  0.00  0.00    +0.000 C 
ATOM      2  O   UNL     1       2.182   7.528  19.927  0.00  0.00    +0.000 OA
ATOM      3  N   UNL     1       1.855   8.556  17.863  0.00  0.00    +0.000 N 
ATOM      4  H   UNL     1       1.930   8.398  16.865  0.00  0.00    +0.000 HD
ENDROOT
BRANCH   1   8
ATOM      5  C   UNL     1       5.858   6.166  15.478  0.00  0.00    +0.000 C 
ATOM      6  C   UNL     1       4.878   5.860  16.571  0.00  0.00    +0.000 A 
ATOM      7  C   UNL     1       4.022   6.833  17.051  0.00  0.00    +0.000 A 
ATOM      8  C   UNL     1       3.158   6.493  18.090  0.00  0.00    +0.000 A 
ATOM      9  C   UNL     1       3.157   5.178  18.639  0.00  0.00    +0.000 A 
ATOM     10  C   UNL     1       2.310   4.714  19.685  0.00  0.00    +0.000 A 
ATOM     11  C   UNL     1       2.450   3.434  20.214  0.00  0.00    +0.000 A 
ATOM     12 BR   UNL     1       1.358   2.879  21.652  0.00  0.00    +0.000 Br
ATOM     13  C   UNL     1       3.406   2.575  19.698  0.00  0.00    +0.000 A 
ATOM     14  C   UNL     1       4.204   3.006  18.633  0.00  0.00    +0.000 A 
ATOM     15  C   UNL     1       4.095   4.281  18.093  0.00  0.00    +0.000 A 
ATOM     16  N   UNL     1       4.913   4.608  17.079  0.00  0.00    +0.000 NA
ENDBRANCH   1   8
BRANCH   3  17
ATOM     17  C   UNL     1       0.994   9.602  18.271  0.00  0.00    +0.000 A 
ATOM     18  C   UNL     1       1.317  10.475  19.335  0.00  0.00    +0.000 A 
ATOM     19  C   UNL     1       0.379  11.356  19.870  0.00  0.00    +0.000 A 
ATOM     20  C   UNL     1      -0.869  11.350  19.298  0.00  0.00    +0.000 A 
ATOM     21  C   UNL     1      -1.173  10.576  18.198  0.00  0.00    +0.000 A 
ATOM     22  C   UNL     1      -0.254   9.707  17.641  0.00  0.00    +0.000 A 
ATOM     23  O   UNL     1      -2.501  10.702  17.818  0.00  0.00    +0.000 OA
ATOM     24  C   UNL     1      -3.020  11.557  18.807  0.00  0.00    +0.000 A 
ATOM     25  O   UNL     1      -4.207  11.850  18.872  0.00  0.00    +0.000 OA
ATOM     26  N   UNL     1      -2.028  11.976  19.666  0.00  0.00    +0.000 N 
ATOM     27  C   UNL     1      -2.190  12.758  20.860  0.00  0.00    +0.000 C 
ENDBRANCH   3  17
TORSDOF 2
ENDMDL
