MODEL 1
REMARK VINA RESULT:      -8.6      0.000      0.000
REMARK  Name = 
REMARK  5 active torsions:
REMARK  status: ('A' for Active; 'I' for Inactive)
REMARK    1  A    between atoms: C_1  and  C_2
REMARK    2  A    between atoms: C_5  and  C_6
REMARK    3  A    between atoms: N_8  and  C_9
REMARK    4  A    between atoms: C_19  and  N_20
REMARK    5  A    between atoms: C_21  and  C_23
REMARK                            x       y       z     vdW  Elec       q    Type
REMARK                         _______ _______ _______ _____ _____    ______ ____
ROOT
ATOM      1  C   UNL     1       4.142   2.827  19.071  0.00  0.00    +0.000 C 
ATOM      2  C   UNL     1       3.523   4.191  19.222  0.00  0.00    +0.000 A 
ATOM      3  C   UNL     1       2.814   4.452  20.411  0.00  0.00    +0.000 A 
ATOM      4  C   UNL     1       2.214   5.693  20.637  0.00  0.00    +0.000 A 
ATOM      5  C   UNL     1       2.290   6.689  19.666  0.00  0.00    +0.000 A 
ATOM      6  C   UNL     1       2.954   6.418  18.466  0.00  0.00    +0.000 A 
ATOM      7  C   UNL     1       3.610   5.198  18.237  0.00  0.00    +0.000 A 
ENDROOT
BRANCH   5   8
ATOM      8  C   UNL     1       1.615   7.995  19.932  0.00  0.00    +0.000 C 
ATOM      9  O   UNL     1       1.545   8.795  19.004  0.00  0.00    +0.000 OA
ATOM     10  N   UNL     1       1.138   8.190  21.219  0.00  0.00    +0.000 N 
ATOM     11  H   UNL     1       1.288   7.463  21.905  0.00  0.00    +0.000 HD
BRANCH  10  12
ATOM     12  C   UNL     1       0.527   9.364  21.719  0.00  0.00    +0.000 A 
ATOM     13  C   UNL     1      -0.438   9.355  22.737  0.00  0.00    +0.000 A 
ATOM     14  C   UNL     1      -1.059  10.535  23.152  0.00  0.00    +0.000 A 
ATOM     15  C   UNL     1      -0.720  11.720  22.524  0.00  0.00    +0.000 A 
ATOM     16  C   UNL     1       0.252  11.746  21.529  0.00  0.00    +0.000 A 
ATOM     17  C   UNL     1       0.900  10.583  21.134  0.00  0.00    +0.000 A 
ATOM     18  C   UNL     1       0.427  13.117  20.966  0.00  0.00    +0.000 C 
ATOM     19  C   UNL     1      -0.579  13.965  21.762  0.00  0.00    +0.000 C 
ATOM     20  C   UNL     1      -1.311  13.066  22.769  0.00  0.00    +0.000 C 
ENDBRANCH  10  12
ENDBRANCH   5   8
BRANCH   7  21
ATOM     21  N   UNL     1       4.341   4.977  17.043  0.00  0.00    +0.000 N 
ATOM     22  C   UNL     1       5.676   5.309  16.819  0.00  0.00    +0.000 C 
ATOM     23  O   UNL     1       6.418   5.830  17.648  0.00  0.00    +0.000 OA
ATOM     24  H   UNL     1       3.897   4.454  16.296  0.00  0.00    +0.000 HD
BRANCH  22  25
ATOM     25  C   UNL     1       6.181   4.949  15.507  0.00  0.00    +0.000 A 
ATOM     26  C   UNL     1       5.668   4.067  14.573  0.00  0.00    +0.000 A 
ATOM     27  C   UNL     1       6.526   4.112  13.452  0.00  0.00    +0.000 A 
ATOM     28  C   UNL     1       7.520   5.006  13.773  0.00  0.00    +0.000 A 
ATOM     29  O   UNL     1       7.325   5.522  15.017  0.00  0.00    +0.000 OA
ENDBRANCH  22  25
ENDBRANCH   7  21
TORSDOF 4
ENDMDL
MODEL 2
REMARK VINA RESULT:      -8.6      2.134      2.241
REMARK  Name = 
REMARK  5 active torsions:
REMARK  status: ('A' for Active; 'I' for Inactive)
REMARK    1  A    between atoms: C_1  and  C_2
REMARK    2  A    between atoms: C_5  and  C_6
REMARK    3  A    between atoms: N_8  and  C_9
REMARK    4  A    between atoms: C_19  and  N_20
REMARK    5  A    between atoms: C_21  and  C_23
REMARK                            x       y       z     vdW  Elec       q    Type
REMARK                         _______ _______ _______ _____ _____    ______ ____
ROOT
ATOM      1  C   UNL     1       4.007   2.685  18.649  0.00  0.00    +0.000 C 
ATOM      2  C   UNL     1       3.485   4.081  18.858  0.00  0.00    +0.000 A 
ATOM      3  C   UNL     1       2.776   4.336  20.048  0.00  0.00    +0.000 A 
ATOM      4  C   UNL     1       2.262   5.605  20.327  0.00  0.00    +0.000 A 
ATOM      5  C   UNL     1       2.424   6.637  19.406  0.00  0.00    +0.000 A 
ATOM      6  C   UNL     1       3.086   6.376  18.202  0.00  0.00    +0.000 A 
ATOM      7  C   UNL     1       3.658   5.125  17.924  0.00  0.00    +0.000 A 
ENDROOT
BRANCH   5   8
ATOM      8  C   UNL     1       1.839   7.974  19.726  0.00  0.00    +0.000 C 
ATOM      9  O   UNL     1       1.584   8.212  20.902  0.00  0.00    +0.000 OA
ATOM     10  N   UNL     1       1.626   8.825  18.652  0.00  0.00    +0.000 N 
ATOM     11  H   UNL     1       1.849   8.495  17.723  0.00  0.00    +0.000 HD
BRANCH  10  12
ATOM     12  C   UNL     1       1.027  10.105  18.702  0.00  0.00    +0.000 A 
ATOM     13  C   UNL     1      -0.360  10.308  18.638  0.00  0.00    +0.000 A 
ATOM     14  C   UNL     1      -0.901  11.596  18.627  0.00  0.00    +0.000 A 
ATOM     15  C   UNL     1      -0.039  12.678  18.659  0.00  0.00    +0.000 A 
ATOM     16  C   UNL     1       1.337  12.490  18.746  0.00  0.00    +0.000 A 
ATOM     17  C   UNL     1       1.882  11.213  18.793  0.00  0.00    +0.000 A 
ATOM     18  C   UNL     1       2.072  13.789  18.726  0.00  0.00    +0.000 C 
ATOM     19  C   UNL     1       0.951  14.836  18.622  0.00  0.00    +0.000 C 
ATOM     20  C   UNL     1      -0.407  14.120  18.586  0.00  0.00    +0.000 C 
ENDBRANCH  10  12
ENDBRANCH   5   8
BRANCH   7  21
ATOM     21  N   UNL     1       4.390   4.908  16.729  0.00  0.00    +0.000 N 
ATOM     22  C   UNL     1       5.685   5.350  16.463  0.00  0.00    +0.000 C 
ATOM     23  O   UNL     1       6.386   5.982  17.251  0.00  0.00    +0.000 OA
ATOM     24  H   UNL     1       3.987   4.307  16.019  0.00  0.00    +0.000 HD
BRANCH  22  25
ATOM     25  C   UNL     1       6.204   4.969  15.163  0.00  0.00    +0.000 A 
ATOM     26  C   UNL     1       5.660   4.134  14.204  0.00  0.00    +0.000 A 
ATOM     27  C   UNL     1       6.553   4.131  13.110  0.00  0.00    +0.000 A 
ATOM     28  C   UNL     1       7.597   4.949  13.471  0.00  0.00    +0.000 A 
ATOM     29  O   UNL     1       7.400   5.465  14.715  0.00  0.00    +0.000 OA
ENDBRANCH  22  25
ENDBRANCH   7  21
TORSDOF 4
ENDMDL
MODEL 3
REMARK VINA RESULT:      -8.4      1.587      2.073
REMARK  Name = 
REMARK  5 active torsions:
REMARK  status: ('A' for Active; 'I' for Inactive)
REMARK    1  A    between atoms: C_1  and  C_2
REMARK    2  A    between atoms: C_5  and  C_6
REMARK    3  A    between atoms: N_8  and  C_9
REMARK    4  A    between atoms: C_19  and  N_20
REMARK    5  A    between atoms: C_21  and  C_23
REMARK                            x       y       z     vdW  Elec       q    Type
REMARK                         _______ _______ _______ _____ _____    ______ ____
ROOT
ATOM      1  C   UNL     1       3.375   2.799  18.767  0.00  0.00    +0.000 C 
ATOM      2  C   UNL     1       2.986   4.229  19.034  0.00  0.00    +0.000 A 
ATOM      3  C   UNL     1       2.230   4.490  20.192  0.00  0.00    +0.000 A 
ATOM      4  C   UNL     1       1.832   5.788  20.519  0.00  0.00    +0.000 A 
ATOM      5  C   UNL     1       2.161   6.848  19.678  0.00  0.00    +0.000 A 
ATOM      6  C   UNL     1       2.872   6.587  18.503  0.00  0.00    +0.000 A 
ATOM      7  C   UNL     1       3.329   5.300  18.180  0.00  0.00    +0.000 A 
ENDROOT
BRANCH   5   8
ATOM      8  C   UNL     1       1.697   8.220  20.047  0.00  0.00    +0.000 C 
ATOM      9  O   UNL     1       1.564   8.469  21.241  0.00  0.00    +0.000 OA
ATOM     10  N   UNL     1       1.446   9.088  18.995  0.00  0.00    +0.000 N 
ATOM     11  H   UNL     1       1.564   8.748  18.050  0.00  0.00    +0.000 HD
BRANCH  10  12
ATOM     12  C   UNL     1       0.941  10.404  19.096  0.00  0.00    +0.000 A 
ATOM     13  C   UNL     1       1.672  11.541  18.716  0.00  0.00    +0.000 A 
ATOM     14  C   UNL     1       1.154  12.825  18.896  0.00  0.00    +0.000 A 
ATOM     15  C   UNL     1      -0.094  12.962  19.477  0.00  0.00    +0.000 A 
ATOM     16  C   UNL     1      -0.839  11.844  19.837  0.00  0.00    +0.000 A 
ATOM     17  C   UNL     1      -0.346  10.561  19.631  0.00  0.00    +0.000 A 
ATOM     18  C   UNL     1      -2.130  12.226  20.480  0.00  0.00    +0.000 C 
ATOM     19  C   UNL     1      -2.097  13.763  20.468  0.00  0.00    +0.000 C 
ATOM     20  C   UNL     1      -0.790  14.235  19.816  0.00  0.00    +0.000 C 
ENDBRANCH  10  12
ENDBRANCH   5   8
BRANCH   7  21
ATOM     21  N   UNL     1       4.115   5.075  17.021  0.00  0.00    +0.000 N 
ATOM     22  C   UNL     1       5.499   5.208  16.923  0.00  0.00    +0.000 C 
ATOM     23  O   UNL     1       6.240   5.527  17.850  0.00  0.00    +0.000 OA
ATOM     24  H   UNL     1       3.659   4.700  16.196  0.00  0.00    +0.000 HD
BRANCH  22  25
ATOM     25  C   UNL     1       6.050   4.895  15.618  0.00  0.00    +0.000 A 
ATOM     26  C   UNL     1       5.592   4.015  14.653  0.00  0.00    +0.000 A 
ATOM     27  C   UNL     1       6.477   4.114  13.557  0.00  0.00    +0.000 A 
ATOM     28  C   UNL     1       7.431   5.034  13.922  0.00  0.00    +0.000 A 
ATOM     29  O   UNL     1       7.185   5.516  15.171  0.00  0.00    +0.000 OA
ENDBRANCH  22  25
ENDBRANCH   7  21
TORSDOF 4
ENDMDL
MODEL 4
REMARK VINA RESULT:      -8.3      0.845      1.589
REMARK  Name = 
REMARK  5 active torsions:
REMARK  status: ('A' for Active; 'I' for Inactive)
REMARK    1  A    between atoms: C_1  and  C_2
REMARK    2  A    between atoms: C_5  and  C_6
REMARK    3  A    between atoms: N_8  and  C_9
REMARK    4  A    between atoms: C_19  and  N_20
REMARK    5  A    between atoms: C_21  and  C_23
REMARK                            x       y       z     vdW  Elec       q    Type
REMARK                         _______ _______ _______ _____ _____    ______ ____
ROOT
ATOM      1  C   UNL     1       3.505   3.510  19.468  0.00  0.00    +0.000 C 
ATOM      2  C   UNL     1       2.995   4.926  19.444  0.00  0.00    +0.000 A 
ATOM      3  C   UNL     1       2.242   5.362  20.552  0.00  0.00    +0.000 A 
ATOM      4  C   UNL     1       1.737   6.663  20.616  0.00  0.00    +0.000 A 
ATOM      5  C   UNL     1       1.952   7.545  19.560  0.00  0.00    +0.000 A 
ATOM      6  C   UNL     1       2.660   7.102  18.438  0.00  0.00    +0.000 A 
ATOM      7  C   UNL     1       3.224   5.817  18.374  0.00  0.00    +0.000 A 
ENDROOT
BRANCH   5   8
ATOM      8  C   UNL     1       1.376   8.920  19.652  0.00  0.00    +0.000 C 
ATOM      9  O   UNL     1       1.313   9.577  18.617  0.00  0.00    +0.000 OA
ATOM     10  N   UNL     1       0.972   9.335  20.912  0.00  0.00    +0.000 N 
ATOM     11  H   UNL     1       1.108   8.708  21.693  0.00  0.00    +0.000 HD
BRANCH  10  12
ATOM     12  C   UNL     1       0.462  10.609  21.252  0.00  0.00    +0.000 A 
ATOM     13  C   UNL     1       1.085  11.811  20.882  0.00  0.00    +0.000 A 
ATOM     14  C   UNL     1       0.577  13.044  21.297  0.00  0.00    +0.000 A 
ATOM     15  C   UNL     1      -0.548  13.061  22.102  0.00  0.00    +0.000 A 
ATOM     16  C   UNL     1      -1.188  11.879  22.457  0.00  0.00    +0.000 A 
ATOM     17  C   UNL     1      -0.710  10.649  22.021  0.00  0.00    +0.000 A 
ATOM     18  C   UNL     1      -2.350  12.131  23.358  0.00  0.00    +0.000 C 
ATOM     19  C   UNL     1      -2.357  13.660  23.518  0.00  0.00    +0.000 C 
ATOM     20  C   UNL     1      -1.201  14.258  22.704  0.00  0.00    +0.000 C 
ENDBRANCH  10  12
ENDBRANCH   5   8
BRANCH   7  21
ATOM     21  N   UNL     1       4.002   5.419  17.257  0.00  0.00    +0.000 N 
ATOM     22  C   UNL     1       5.348   5.709  17.044  0.00  0.00    +0.000 C 
ATOM     23  O   UNL     1       6.060   6.344  17.818  0.00  0.00    +0.000 OA
ATOM     24  H   UNL     1       3.584   4.793  16.578  0.00  0.00    +0.000 HD
BRANCH  22  25
ATOM     25  C   UNL     1       5.904   5.157  15.823  0.00  0.00    +0.000 A 
ATOM     26  C   UNL     1       5.393   4.189  14.977  0.00  0.00    +0.000 A 
ATOM     27  C   UNL     1       6.314   4.044  13.916  0.00  0.00    +0.000 A 
ATOM     28  C   UNL     1       7.340   4.918  14.185  0.00  0.00    +0.000 A 
ATOM     29  O   UNL     1       7.106   5.600  15.339  0.00  0.00    +0.000 OA
ENDBRANCH  22  25
ENDBRANCH   7  21
TORSDOF 4
ENDMDL
MODEL 5
REMARK VINA RESULT:      -8.2      1.347      1.732
REMARK  Name = 
REMARK  5 active torsions:
REMARK  status: ('A' for Active; 'I' for Inactive)
REMARK    1  A    between atoms: C_1  and  C_2
REMARK    2  A    between atoms: C_5  and  C_6
REMARK    3  A    between atoms: N_8  and  C_9
REMARK    4  A    between atoms: C_19  and  N_20
REMARK    5  A    between atoms: C_21  and  C_23
REMARK                            x       y       z     vdW  Elec       q    Type
REMARK                         _______ _______ _______ _____ _____    ______ ____
ROOT
ATOM      1  C   UNL     1       4.445   3.716  19.010  0.00  0.00    +0.000 C 
ATOM      2  C   UNL     1       3.766   5.054  18.875  0.00  0.00    +0.000 A 
ATOM      3  C   UNL     1       3.064   5.539  19.995  0.00  0.00    +0.000 A 
ATOM      4  C   UNL     1       2.410   6.773  19.960  0.00  0.00    +0.000 A 
ATOM      5  C   UNL     1       2.425   7.534  18.793  0.00  0.00    +0.000 A 
ATOM      6  C   UNL     1       3.082   7.034  17.665  0.00  0.00    +0.000 A 
ATOM      7  C   UNL     1       3.790   5.822  17.692  0.00  0.00    +0.000 A 
ENDROOT
BRANCH   5   8
ATOM      8  C   UNL     1       1.695   8.837  18.784  0.00  0.00    +0.000 C 
ATOM      9  O   UNL     1       2.085   9.698  18.002  0.00  0.00    +0.000 OA
ATOM     10  N   UNL     1       0.642   8.959  19.678  0.00  0.00    +0.000 N 
ATOM     11  H   UNL     1       0.441   8.183  20.295  0.00  0.00    +0.000 HD
BRANCH  10  12
ATOM     12  C   UNL     1      -0.147  10.113  19.894  0.00  0.00    +0.000 A 
ATOM     13  C   UNL     1      -0.804  10.799  18.861  0.00  0.00    +0.000 A 
ATOM     14  C   UNL     1      -1.519  11.972  19.115  0.00  0.00    +0.000 A 
ATOM     15  C   UNL     1      -1.553  12.461  20.408  0.00  0.00    +0.000 A 
ATOM     16  C   UNL     1      -0.925  11.779  21.445  0.00  0.00    +0.000 A 
ATOM     17  C   UNL     1      -0.240  10.593  21.208  0.00  0.00    +0.000 A 
ATOM     18  C   UNL     1      -1.055  12.505  22.742  0.00  0.00    +0.000 C 
ATOM     19  C   UNL     1      -1.870  13.756  22.373  0.00  0.00    +0.000 C 
ATOM     20  C   UNL     1      -2.195  13.722  20.873  0.00  0.00    +0.000 C 
ENDBRANCH  10  12
ENDBRANCH   5   8
BRANCH   7  21
ATOM     21  N   UNL     1       4.512   5.375  16.556  0.00  0.00    +0.000 N 
ATOM     22  C   UNL     1       5.752   5.847  16.127  0.00  0.00    +0.000 C 
ATOM     23  O   UNL     1       6.406   6.717  16.697  0.00  0.00    +0.000 OA
ATOM     24  H   UNL     1       4.153   4.580  16.040  0.00  0.00    +0.000 HD
BRANCH  22  25
ATOM     25  C   UNL     1       6.274   5.196  14.941  0.00  0.00    +0.000 A 
ATOM     26  C   UNL     1       5.740   4.163  14.191  0.00  0.00    +0.000 A 
ATOM     27  C   UNL     1       6.632   3.929  13.122  0.00  0.00    +0.000 A 
ATOM     28  C   UNL     1       7.666   4.820  13.290  0.00  0.00    +0.000 A 
ATOM     29  O   UNL     1       7.463   5.595  14.390  0.00  0.00    +0.000 OA
ENDBRANCH  22  25
ENDBRANCH   7  21
TORSDOF 4
ENDMDL
MODEL 6
REMARK VINA RESULT:      -8.1      2.465      9.719
REMARK  Name = 
REMARK  5 active torsions:
REMARK  status: ('A' for Active; 'I' for Inactive)
REMARK    1  A    between atoms: C_1  and  C_2
REMARK    2  A    between atoms: C_5  and  C_6
REMARK    3  A    between atoms: N_8  and  C_9
REMARK    4  A    between atoms: C_19  and  N_20
REMARK    5  A    between atoms: C_21  and  C_23
REMARK                            x       y       z     vdW  Elec       q    Type
REMARK                         _______ _______ _______ _____ _____    ______ ____
ROOT
ATOM      1  C   UNL     1      -0.829  10.784  22.923  0.00  0.00    +0.000 C 
ATOM      2  C   UNL     1      -0.079  10.197  21.758  0.00  0.00    +0.000 A 
ATOM      3  C   UNL     1       0.310   8.847  21.851  0.00  0.00    +0.000 A 
ATOM      4  C   UNL     1       1.005   8.221  20.813  0.00  0.00    +0.000 A 
ATOM      5  C   UNL     1       1.346   8.942  19.671  0.00  0.00    +0.000 A 
ATOM      6  C   UNL     1       1.002  10.295  19.594  0.00  0.00    +0.000 A 
ATOM      7  C   UNL     1       0.259  10.932  20.601  0.00  0.00    +0.000 A 
ENDROOT
BRANCH   5   8
ATOM      8  C   UNL     1       2.110   8.247  18.592  0.00  0.00    +0.000 C 
ATOM      9  O   UNL     1       2.201   8.814  17.508  0.00  0.00    +0.000 OA
ATOM     10  N   UNL     1       2.641   7.007  18.915  0.00  0.00    +0.000 N 
ATOM     11  H   UNL     1       2.466   6.633  19.839  0.00  0.00    +0.000 HD
BRANCH  10  12
ATOM     12  C   UNL     1       3.340   6.140  18.043  0.00  0.00    +0.000 A 
ATOM     13  C   UNL     1       2.884   4.856  17.707  0.00  0.00    +0.000 A 
ATOM     14  C   UNL     1       3.643   4.013  16.892  0.00  0.00    +0.000 A 
ATOM     15  C   UNL     1       4.869   4.459  16.434  0.00  0.00    +0.000 A 
ATOM     16  C   UNL     1       5.322   5.738  16.741  0.00  0.00    +0.000 A 
ATOM     17  C   UNL     1       4.559   6.597  17.523  0.00  0.00    +0.000 A 
ATOM     18  C   UNL     1       6.681   5.992  16.179  0.00  0.00    +0.000 C 
ATOM     19  C   UNL     1       7.023   4.677  15.458  0.00  0.00    +0.000 C 
ATOM     20  C   UNL     1       5.854   3.695  15.617  0.00  0.00    +0.000 C 
ENDBRANCH  10  12
ENDBRANCH   5   8
BRANCH   7  21
ATOM     21  N   UNL     1      -0.143  12.285  20.463  0.00  0.00    +0.000 N 
ATOM     22  C   UNL     1       0.590  13.407  20.847  0.00  0.00    +0.000 C 
ATOM     23  O   UNL     1       1.712  13.374  21.348  0.00  0.00    +0.000 OA
ATOM     24  H   UNL     1      -1.004  12.484  19.966  0.00  0.00    +0.000 HD
BRANCH  22  25
ATOM     25  C   UNL     1      -0.053  14.678  20.571  0.00  0.00    +0.000 A 
ATOM     26  C   UNL     1      -0.504  15.198  19.371  0.00  0.00    +0.000 A 
ATOM     27  C   UNL     1      -1.080  16.455  19.661  0.00  0.00    +0.000 A 
ATOM     28  C   UNL     1      -0.931  16.636  21.016  0.00  0.00    +0.000 A 
ATOM     29  O   UNL     1      -0.309  15.566  21.582  0.00  0.00    +0.000 OA
ENDBRANCH  22  25
ENDBRANCH   7  21
TORSDOF 4
ENDMDL
MODEL 7
REMARK VINA RESULT:      -8.1      5.413      8.014
REMARK  Name = 
REMARK  5 active torsions:
REMARK  status: ('A' for Active; 'I' for Inactive)
REMARK    1  A    between atoms: C_1  and  C_2
REMARK    2  A    between atoms: C_5  and  C_6
REMARK    3  A    between atoms: N_8  and  C_9
REMARK    4  A    between atoms: C_19  and  N_20
REMARK    5  A    between atoms: C_21  and  C_23
REMARK                            x       y       z     vdW  Elec       q    Type
REMARK                         _______ _______ _______ _____ _____    ______ ____
ROOT
ATOM      1  C   UNL     1       4.896   3.598  15.830  0.00  0.00    +0.000 C 
ATOM      2  C   UNL     1       5.644   4.727  16.488  0.00  0.00    +0.000 A 
ATOM      3  C   UNL     1       6.724   5.289  15.779  0.00  0.00    +0.000 A 
ATOM      4  C   UNL     1       7.468   6.344  16.312  0.00  0.00    +0.000 A 
ATOM      5  C   UNL     1       7.164   6.840  17.578  0.00  0.00    +0.000 A 
ATOM      6  C   UNL     1       6.122   6.254  18.304  0.00  0.00    +0.000 A 
ATOM      7  C   UNL     1       5.326   5.229  17.768  0.00  0.00    +0.000 A 
ENDROOT
BRANCH   5   8
ATOM      8  C   UNL     1       7.997   7.952  18.126  0.00  0.00    +0.000 C 
ATOM      9  O   UNL     1       8.743   7.689  19.064  0.00  0.00    +0.000 OA
ATOM     10  N   UNL     1       7.839   9.192  17.527  0.00  0.00    +0.000 N 
ATOM     11  H   UNL     1       7.163   9.285  16.779  0.00  0.00    +0.000 HD
BRANCH  10  12
ATOM     12  C   UNL     1       8.467  10.398  17.915  0.00  0.00    +0.000 A 
ATOM     13  C   UNL     1       8.028  11.664  17.497  0.00  0.00    +0.000 A 
ATOM     14  C   UNL     1       8.721  12.822  17.856  0.00  0.00    +0.000 A 
ATOM     15  C   UNL     1       9.867  12.700  18.619  0.00  0.00    +0.000 A 
ATOM     16  C   UNL     1      10.301  11.453  19.059  0.00  0.00    +0.000 A 
ATOM     17  C   UNL     1       9.599  10.298  18.737  0.00  0.00    +0.000 A 
ATOM     18  C   UNL     1      11.575  11.553  19.830  0.00  0.00    +0.000 C 
ATOM     19  C   UNL     1      11.885  13.060  19.820  0.00  0.00    +0.000 C 
ATOM     20  C   UNL     1      10.781  13.796  19.046  0.00  0.00    +0.000 C 
ENDBRANCH  10  12
ENDBRANCH   5   8
BRANCH   7  21
ATOM     21  N   UNL     1       4.228   4.704  18.496  0.00  0.00    +0.000 N 
ATOM     22  C   UNL     1       4.277   3.681  19.440  0.00  0.00    +0.000 C 
ATOM     23  O   UNL     1       5.301   3.097  19.790  0.00  0.00    +0.000 OA
ATOM     24  H   UNL     1       3.325   5.156  18.398  0.00  0.00    +0.000 HD
BRANCH  22  25
ATOM     25  C   UNL     1       3.002   3.353  20.051  0.00  0.00    +0.000 A 
ATOM     26  C   UNL     1       2.733   2.704  21.242  0.00  0.00    +0.000 A 
ATOM     27  C   UNL     1       1.328   2.673  21.383  0.00  0.00    +0.000 A 
ATOM     28  C   UNL     1       0.822   3.289  20.263  0.00  0.00    +0.000 A 
ATOM     29  O   UNL     1       1.825   3.707  19.445  0.00  0.00    +0.000 OA
ENDBRANCH  22  25
ENDBRANCH   7  21
TORSDOF 4
ENDMDL
MODEL 8
REMARK VINA RESULT:      -8.1      2.006      2.454
REMARK  Name = 
REMARK  5 active torsions:
REMARK  status: ('A' for Active; 'I' for Inactive)
REMARK    1  A    between atoms: C_1  and  C_2
REMARK    2  A    between atoms: C_5  and  C_6
REMARK    3  A    between atoms: N_8  and  C_9
REMARK    4  A    between atoms: C_19  and  N_20
REMARK    5  A    between atoms: C_21  and  C_23
REMARK                            x       y       z     vdW  Elec       q    Type
REMARK                         _______ _______ _______ _____ _____    ______ ____
ROOT
ATOM      1  C   UNL     1       3.573   2.112  17.929  0.00  0.00    +0.000 C 
ATOM      2  C   UNL     1       3.245   3.549  18.236  0.00  0.00    +0.000 A 
ATOM      3  C   UNL     1       2.471   3.805  19.385  0.00  0.00    +0.000 A 
ATOM      4  C   UNL     1       2.125   5.109  19.748  0.00  0.00    +0.000 A 
ATOM      5  C   UNL     1       2.526   6.181  18.954  0.00  0.00    +0.000 A 
ATOM      6  C   UNL     1       3.255   5.927  17.788  0.00  0.00    +0.000 A 
ATOM      7  C   UNL     1       3.659   4.631  17.431  0.00  0.00    +0.000 A 
ENDROOT
BRANCH   5   8
ATOM      8  C   UNL     1       2.117   7.559  19.360  0.00  0.00    +0.000 C 
ATOM      9  O   UNL     1       1.995   7.782  20.560  0.00  0.00    +0.000 OA
ATOM     10  N   UNL     1       1.901   8.465  18.332  0.00  0.00    +0.000 N 
ATOM     11  H   UNL     1       2.005   8.146  17.378  0.00  0.00    +0.000 HD
BRANCH  10  12
ATOM     12  C   UNL     1       1.449   9.797  18.469  0.00  0.00    +0.000 A 
ATOM     13  C   UNL     1       2.262  10.915  18.224  0.00  0.00    +0.000 A 
ATOM     14  C   UNL     1       1.788  12.211  18.436  0.00  0.00    +0.000 A 
ATOM     15  C   UNL     1       0.501  12.378  18.915  0.00  0.00    +0.000 A 
ATOM     16  C   UNL     1      -0.323  11.280  19.141  0.00  0.00    +0.000 A 
ATOM     17  C   UNL     1       0.128   9.987  18.900  0.00  0.00    +0.000 A 
ATOM     18  C   UNL     1      -1.648  11.689  19.692  0.00  0.00    +0.000 C 
ATOM     19  C   UNL     1      -1.545  13.221  19.777  0.00  0.00    +0.000 C 
ATOM     20  C   UNL     1      -0.164  13.663  19.270  0.00  0.00    +0.000 C 
ENDBRANCH  10  12
ENDBRANCH   5   8
BRANCH   7  21
ATOM     21  N   UNL     1       4.463   4.409  16.284  0.00  0.00    +0.000 N 
ATOM     22  C   UNL     1       5.264   5.353  15.642  0.00  0.00    +0.000 C 
ATOM     23  O   UNL     1       5.397   6.520  16.001  0.00  0.00    +0.000 OA
ATOM     24  H   UNL     1       4.546   3.463  15.929  0.00  0.00    +0.000 HD
BRANCH  22  25
ATOM     25  C   UNL     1       6.000   4.849  14.498  0.00  0.00    +0.000 A 
ATOM     26  C   UNL     1       5.685   3.824  13.625  0.00  0.00    +0.000 A 
ATOM     27  C   UNL     1       6.724   3.765  12.670  0.00  0.00    +0.000 A 
ATOM     28  C   UNL     1       7.620   4.745  13.025  0.00  0.00    +0.000 A 
ATOM     29  O   UNL     1       7.195   5.412  14.133  0.00  0.00    +0.000 OA
ENDBRANCH  22  25
ENDBRANCH   7  21
TORSDOF 4
ENDMDL
MODEL 9
REMARK VINA RESULT:      -8.1      1.699      2.069
REMARK  Name = 
REMARK  5 active torsions:
REMARK  status: ('A' for Active; 'I' for Inactive)
REMARK    1  A    between atoms: C_1  and  C_2
REMARK    2  A    between atoms: C_5  and  C_6
REMARK    3  A    between atoms: N_8  and  C_9
REMARK    4  A    between atoms: C_19  and  N_20
REMARK    5  A    between atoms: C_21  and  C_23
REMARK                            x       y       z     vdW  Elec       q    Type
REMARK                         _______ _______ _______ _____ _____    ______ ____
ROOT
ATOM      1  C   UNL     1       3.091   2.873  19.125  0.00  0.00    +0.000 C 
ATOM      2  C   UNL     1       2.725   4.305  19.411  0.00  0.00    +0.000 A 
ATOM      3  C   UNL     1       1.953   4.560  20.561  0.00  0.00    +0.000 A 
ATOM      4  C   UNL     1       1.574   5.860  20.904  0.00  0.00    +0.000 A 
ATOM      5  C   UNL     1       1.939   6.928  20.089  0.00  0.00    +0.000 A 
ATOM      6  C   UNL     1       2.667   6.675  18.922  0.00  0.00    +0.000 A 
ATOM      7  C   UNL     1       3.104   5.384  18.584  0.00  0.00    +0.000 A 
ENDROOT
BRANCH   5   8
ATOM      8  C   UNL     1       1.496   8.302  20.474  0.00  0.00    +0.000 C 
ATOM      9  O   UNL     1       1.467   8.571  21.671  0.00  0.00    +0.000 OA
ATOM     10  N   UNL     1       1.144   9.149  19.434  0.00  0.00    +0.000 N 
ATOM     11  H   UNL     1       1.181   8.794  18.488  0.00  0.00    +0.000 HD
BRANCH  10  12
ATOM     12  C   UNL     1       0.636  10.463  19.558  0.00  0.00    +0.000 A 
ATOM     13  C   UNL     1      -0.648  10.748  20.051  0.00  0.00    +0.000 A 
ATOM     14  C   UNL     1      -1.128  12.058  20.094  0.00  0.00    +0.000 A 
ATOM     15  C   UNL     1      -0.322  13.077  19.621  0.00  0.00    +0.000 A 
ATOM     16  C   UNL     1       0.960  12.811  19.151  0.00  0.00    +0.000 A 
ATOM     17  C   UNL     1       1.461  11.515  19.136  0.00  0.00    +0.000 A 
ATOM     18  C   UNL     1       1.633  14.047  18.655  0.00  0.00    +0.000 C 
ATOM     19  C   UNL     1       0.583  15.147  18.888  0.00  0.00    +0.000 C 
ATOM     20  C   UNL     1      -0.671  14.522  19.515  0.00  0.00    +0.000 C 
ENDBRANCH  10  12
ENDBRANCH   5   8
BRANCH   7  21
ATOM     21  N   UNL     1       3.906   5.165  17.435  0.00  0.00    +0.000 N 
ATOM     22  C   UNL     1       5.297   5.086  17.402  0.00  0.00    +0.000 C 
ATOM     23  O   UNL     1       6.029   5.179  18.385  0.00  0.00    +0.000 OA
ATOM     24  H   UNL     1       3.443   4.959  16.556  0.00  0.00    +0.000 HD
BRANCH  22  25
ATOM     25  C   UNL     1       5.862   4.832  16.089  0.00  0.00    +0.000 A 
ATOM     26  C   UNL     1       7.084   5.212  15.564  0.00  0.00    +0.000 A 
ATOM     27  C   UNL     1       7.151   4.680  14.258  0.00  0.00    +0.000 A 
ATOM     28  C   UNL     1       5.961   4.022  14.056  0.00  0.00    +0.000 A 
ATOM     29  O   UNL     1       5.168   4.106  15.158  0.00  0.00    +0.000 OA
ENDBRANCH  22  25
ENDBRANCH   7  21
TORSDOF 4
ENDMDL
