MODEL 1
REMARK VINA RESULT:      -8.7      0.000      0.000
REMARK  Name = 
REMARK  5 active torsions:
REMARK  status: ('A' for Active; 'I' for Inactive)
REMARK    1  A    between atoms: C_1  and  C_2
REMARK    2  A    between atoms: C_4  and  C_5
REMARK    3  A    between atoms: C_9  and  N_10
REMARK    4  A    between atoms: C_11  and  C_13
REMARK    5  A    between atoms: C_13  and  N_14
REMARK                            x       y       z     vdW  Elec       q    Type
REMARK                         _______ _______ _______ _____ _____    ______ ____
ROOT
ATOM      1  N   UNL     1       2.880   6.356  19.731  0.00  0.00    +0.000 N 
ATOM      2  C   UNL     1       2.462   5.199  19.076  0.00  0.00    +0.000 C 
ATOM      3  O   UNL     1       1.557   5.140  18.246  0.00  0.00    +0.000 OA
ATOM      4  H   UNL     1       3.897   6.389  19.813  0.00  0.00    +0.000 HD
ENDROOT
BRANCH   1   9
ATOM      5  C   UNL     1       0.796   9.442  19.990  0.00  0.00    +0.000 A 
ATOM      6  C   UNL     1       1.062  10.002  18.730  0.00  0.00    +0.000 A 
ATOM      7  C   UNL     1       1.914   9.361  17.828  0.00  0.00    +0.000 A 
ATOM      8  C   UNL     1       2.530   8.164  18.184  0.00  0.00    +0.000 A 
ATOM      9  C   UNL     1       2.269   7.591  19.429  0.00  0.00    +0.000 A 
ATOM     10  C   UNL     1       1.385   8.208  20.321  0.00  0.00    +0.000 A 
BRANCH   5  14
ATOM     11  C   UNL     1      -2.265  13.053  21.418  0.00  0.00    +0.000 C 
ATOM     12  C   UNL     1      -1.415  11.834  21.515  0.00  0.00    +0.000 A 
ATOM     13  N   UNL     1      -0.794  11.276  20.500  0.00  0.00    +0.000 NA
ATOM     14  C   UNL     1      -0.035  10.193  20.930  0.00  0.00    +0.000 A 
ATOM     15  C   UNL     1      -0.143   9.920  22.280  0.00  0.00    +0.000 A 
ATOM     16  S   UNL     1      -1.174  11.067  23.033  0.00  0.00    +0.000 S 
ENDBRANCH   5  14
ENDBRANCH   1   9
BRANCH   2  17
ATOM     17  C   UNL     1       3.290   3.956  19.436  0.00  0.00    +0.000 C 
BRANCH  17  18
ATOM     18  N   UNL     1       4.035   3.463  18.270  0.00  0.00    +0.000 N 
ATOM     19  C   UNL     1       5.291   3.959  18.002  0.00  0.00    +0.000 C 
ATOM     20  N   UNL     1       6.050   4.510  18.909  0.00  0.00    +0.000 NA
ATOM     21  S   UNL     1       7.391   5.164  18.216  0.00  0.00    +0.000 S 
ATOM     22  O   UNL     1       8.561   4.370  18.513  0.00  0.00    +0.000 OA
ATOM     23  O   UNL     1       7.349   6.603  18.380  0.00  0.00    +0.000 OA
ATOM     24  C   UNL     1       6.923   4.828  16.583  0.00  0.00    +0.000 A 
ATOM     25  C   UNL     1       7.465   5.310  15.412  0.00  0.00    +0.000 A 
ATOM     26  C   UNL     1       6.895   4.857  14.222  0.00  0.00    +0.000 A 
ATOM     27  C   UNL     1       5.833   3.930  14.240  0.00  0.00    +0.000 A 
ATOM     28  C   UNL     1       5.263   3.511  15.447  0.00  0.00    +0.000 A 
ATOM     29  C   UNL     1       5.802   4.020  16.615  0.00  0.00    +0.000 A 
ATOM     30  H   UNL     1       3.418   3.364  17.467  0.00  0.00    +0.000 HD
ENDBRANCH  17  18
ENDBRANCH   2  17
TORSDOF 4
ENDMDL
MODEL 2
REMARK VINA RESULT:      -8.6      3.247      4.917
REMARK  Name = 
REMARK  5 active torsions:
REMARK  status: ('A' for Active; 'I' for Inactive)
REMARK    1  A    between atoms: C_1  and  C_2
REMARK    2  A    between atoms: C_4  and  C_5
REMARK    3  A    between atoms: C_9  and  N_10
REMARK    4  A    between atoms: C_11  and  C_13
REMARK    5  A    between atoms: C_13  and  N_14
REMARK                            x       y       z     vdW  Elec       q    Type
REMARK                         _______ _______ _______ _____ _____    ______ ____
ROOT
ATOM      1  N   UNL     1       0.869   9.268  19.046  0.00  0.00    +0.000 N 
ATOM      2  C   UNL     1       1.896   9.442  18.120  0.00  0.00    +0.000 C 
ATOM      3  O   UNL     1       2.154  10.492  17.535  0.00  0.00    +0.000 OA
ATOM      4  H   UNL     1       1.171   8.688  19.830  0.00  0.00    +0.000 HD
ENDROOT
BRANCH   1   9
ATOM      5  C   UNL     1      -2.004  11.645  19.204  0.00  0.00    +0.000 A 
ATOM      6  C   UNL     1      -1.476  12.580  20.109  0.00  0.00    +0.000 A 
ATOM      7  C   UNL     1      -0.198  12.413  20.646  0.00  0.00    +0.000 A 
ATOM      8  C   UNL     1       0.559  11.295  20.302  0.00  0.00    +0.000 A 
ATOM      9  C   UNL     1       0.052  10.362  19.399  0.00  0.00    +0.000 A 
ATOM     10  C   UNL     1      -1.213  10.545  18.827  0.00  0.00    +0.000 A 
BRANCH   5  14
ATOM     11  C   UNL     1      -6.799  12.782  19.613  0.00  0.00    +0.000 C 
ATOM     12  C   UNL     1      -5.524  12.351  18.976  0.00  0.00    +0.000 A 
ATOM     13  N   UNL     1      -4.357  12.332  19.582  0.00  0.00    +0.000 NA
ATOM     14  C   UNL     1      -3.379  11.821  18.737  0.00  0.00    +0.000 A 
ATOM     15  C   UNL     1      -3.827  11.507  17.468  0.00  0.00    +0.000 A 
ATOM     16  S   UNL     1      -5.511  11.812  17.345  0.00  0.00    +0.000 S 
ENDBRANCH   5  14
ENDBRANCH   1   9
BRANCH   2  17
ATOM     17  C   UNL     1       2.761   8.188  17.919  0.00  0.00    +0.000 C 
BRANCH  17  18
ATOM     18  N   UNL     1       2.587   7.244  19.031  0.00  0.00    +0.000 N 
ATOM     19  C   UNL     1       3.246   6.035  19.010  0.00  0.00    +0.000 C 
ATOM     20  N   UNL     1       4.327   5.823  18.310  0.00  0.00    +0.000 NA
ATOM     21  S   UNL     1       4.739   4.231  18.358  0.00  0.00    +0.000 S 
ATOM     22  O   UNL     1       5.902   4.027  19.190  0.00  0.00    +0.000 OA
ATOM     23  O   UNL     1       4.610   3.675  17.026  0.00  0.00    +0.000 OA
ATOM     24  C   UNL     1       3.349   3.719  19.255  0.00  0.00    +0.000 A 
ATOM     25  C   UNL     1       2.884   2.442  19.475  0.00  0.00    +0.000 A 
ATOM     26  C   UNL     1       1.735   2.317  20.256  0.00  0.00    +0.000 A 
ATOM     27  C   UNL     1       1.111   3.454  20.807  0.00  0.00    +0.000 A 
ATOM     28  C   UNL     1       1.571   4.743  20.510  0.00  0.00    +0.000 A 
ATOM     29  C   UNL     1       2.674   4.849  19.682  0.00  0.00    +0.000 A 
ATOM     30  H   UNL     1       1.614   7.212  19.325  0.00  0.00    +0.000 HD
ENDBRANCH  17  18
ENDBRANCH   2  17
TORSDOF 4
ENDMDL
MODEL 3
REMARK VINA RESULT:      -8.5      5.286      8.249
REMARK  Name = 
REMARK  5 active torsions:
REMARK  status: ('A' for Active; 'I' for Inactive)
REMARK    1  A    between atoms: C_1  and  C_2
REMARK    2  A    between atoms: C_4  and  C_5
REMARK    3  A    between atoms: C_9  and  N_10
REMARK    4  A    between atoms: C_11  and  C_13
REMARK    5  A    between atoms: C_13  and  N_14
REMARK                            x       y       z     vdW  Elec       q    Type
REMARK                         _______ _______ _______ _____ _____    ______ ____
ROOT
ATOM      1  N   UNL     1       7.786   6.364  17.696  0.00  0.00    +0.000 N 
ATOM      2  C   UNL     1       7.522   7.731  17.641  0.00  0.00    +0.000 C 
ATOM      3  O   UNL     1       6.536   8.244  17.115  0.00  0.00    +0.000 OA
ATOM      4  H   UNL     1       8.166   6.095  18.604  0.00  0.00    +0.000 HD
ENDROOT
BRANCH   1   9
ATOM      5  C   UNL     1       4.911   4.011  17.326  0.00  0.00    +0.000 A 
ATOM      6  C   UNL     1       5.116   3.611  15.996  0.00  0.00    +0.000 A 
ATOM      7  C   UNL     1       6.184   4.117  15.252  0.00  0.00    +0.000 A 
ATOM      8  C   UNL     1       7.047   5.049  15.823  0.00  0.00    +0.000 A 
ATOM      9  C   UNL     1       6.863   5.451  17.146  0.00  0.00    +0.000 A 
ATOM     10  C   UNL     1       5.817   4.917  17.908  0.00  0.00    +0.000 A 
BRANCH   5  14
ATOM     11  C   UNL     1       1.213   4.189  20.604  0.00  0.00    +0.000 C 
ATOM     12  C   UNL     1       2.083   3.654  19.520  0.00  0.00    +0.000 A 
ATOM     13  N   UNL     1       3.078   4.314  18.969  0.00  0.00    +0.000 NA
ATOM     14  C   UNL     1       3.731   3.518  18.034  0.00  0.00    +0.000 A 
ATOM     15  C   UNL     1       3.172   2.266  17.860  0.00  0.00    +0.000 A 
ATOM     16  S   UNL     1       1.835   2.065  18.917  0.00  0.00    +0.000 S 
ENDBRANCH   5  14
ENDBRANCH   1   9
BRANCH   2  17
ATOM     17  C   UNL     1       8.567   8.588  18.371  0.00  0.00    +0.000 C 
BRANCH  17  18
ATOM     18  N   UNL     1       8.643   9.935  17.791  0.00  0.00    +0.000 N 
ATOM     19  C   UNL     1       9.204  10.961  18.518  0.00  0.00    +0.000 C 
ATOM     20  N   UNL     1      10.047  10.767  19.496  0.00  0.00    +0.000 NA
ATOM     21  S   UNL     1      10.367  12.183  20.269  0.00  0.00    +0.000 S 
ATOM     22  O   UNL     1      11.696  12.652  19.952  0.00  0.00    +0.000 OA
ATOM     23  O   UNL     1       9.857  12.103  21.623  0.00  0.00    +0.000 OA
ATOM     24  C   UNL     1       9.239  13.134  19.361  0.00  0.00    +0.000 A 
ATOM     25  C   UNL     1       8.779  14.407  19.617  0.00  0.00    +0.000 A 
ATOM     26  C   UNL     1       7.875  14.944  18.701  0.00  0.00    +0.000 A 
ATOM     27  C   UNL     1       7.484  14.213  17.561  0.00  0.00    +0.000 A 
ATOM     28  C   UNL     1       7.920  12.897  17.365  0.00  0.00    +0.000 A 
ATOM     29  C   UNL     1       8.767  12.359  18.318  0.00  0.00    +0.000 A 
ATOM     30  H   UNL     1       7.783  10.162  17.298  0.00  0.00    +0.000 HD
ENDBRANCH  17  18
ENDBRANCH   2  17
TORSDOF 4
ENDMDL
MODEL 4
REMARK VINA RESULT:      -8.5      3.143      4.789
REMARK  Name = 
REMARK  5 active torsions:
REMARK  status: ('A' for Active; 'I' for Inactive)
REMARK    1  A    between atoms: C_1  and  C_2
REMARK    2  A    between atoms: C_4  and  C_5
REMARK    3  A    between atoms: C_9  and  N_10
REMARK    4  A    between atoms: C_11  and  C_13
REMARK    5  A    between atoms: C_13  and  N_14
REMARK                            x       y       z     vdW  Elec       q    Type
REMARK                         _______ _______ _______ _____ _____    ______ ____
ROOT
ATOM      1  N   UNL     1       1.083   9.440  19.401  0.00  0.00    +0.000 N 
ATOM      2  C   UNL     1       1.857   9.486  18.243  0.00  0.00    +0.000 C 
ATOM      3  O   UNL     1       1.993  10.470  17.517  0.00  0.00    +0.000 OA
ATOM      4  H   UNL     1       1.550   8.914  20.140  0.00  0.00    +0.000 HD
ENDROOT
BRANCH   1   9
ATOM      5  C   UNL     1      -1.579  11.999  19.949  0.00  0.00    +0.000 A 
ATOM      6  C   UNL     1      -0.842  12.937  20.689  0.00  0.00    +0.000 A 
ATOM      7  C   UNL     1       0.502  12.714  20.992  0.00  0.00    +0.000 A 
ATOM      8  C   UNL     1       1.121  11.536  20.579  0.00  0.00    +0.000 A 
ATOM      9  C   UNL     1       0.405  10.598  19.835  0.00  0.00    +0.000 A 
ATOM     10  C   UNL     1      -0.932  10.836  19.495  0.00  0.00    +0.000 A 
BRANCH   5  14
ATOM     11  C   UNL     1      -5.880  11.739  17.523  0.00  0.00    +0.000 C 
ATOM     12  C   UNL     1      -4.913  12.087  18.601  0.00  0.00    +0.000 A 
ATOM     13  N   UNL     1      -3.657  11.698  18.629  0.00  0.00    +0.000 NA
ATOM     14  C   UNL     1      -3.005  12.240  19.731  0.00  0.00    +0.000 A 
ATOM     15  C   UNL     1      -3.812  13.000  20.555  0.00  0.00    +0.000 A 
ATOM     16  S   UNL     1      -5.403  13.077  19.916  0.00  0.00    +0.000 S 
ENDBRANCH   5  14
ENDBRANCH   1   9
BRANCH   2  17
ATOM     17  C   UNL     1       2.613   8.179  17.958  0.00  0.00    +0.000 C 
BRANCH  17  18
ATOM     18  N   UNL     1       2.460   7.229  19.067  0.00  0.00    +0.000 N 
ATOM     19  C   UNL     1       3.166   6.046  19.056  0.00  0.00    +0.000 C 
ATOM     20  N   UNL     1       4.265   5.876  18.373  0.00  0.00    +0.000 NA
ATOM     21  S   UNL     1       4.738   4.302  18.427  0.00  0.00    +0.000 S 
ATOM     22  O   UNL     1       5.895   4.143  19.276  0.00  0.00    +0.000 OA
ATOM     23  O   UNL     1       4.650   3.741  17.093  0.00  0.00    +0.000 OA
ATOM     24  C   UNL     1       3.355   3.736  19.303  0.00  0.00    +0.000 A 
ATOM     25  C   UNL     1       2.937   2.442  19.516  0.00  0.00    +0.000 A 
ATOM     26  C   UNL     1       1.783   2.272  20.281  0.00  0.00    +0.000 A 
ATOM     27  C   UNL     1       1.107   3.384  20.822  0.00  0.00    +0.000 A 
ATOM     28  C   UNL     1       1.521   4.689  20.532  0.00  0.00    +0.000 A 
ATOM     29  C   UNL     1       2.631   4.838  19.720  0.00  0.00    +0.000 A 
ATOM     30  H   UNL     1       1.485   7.158  19.347  0.00  0.00    +0.000 HD
ENDBRANCH  17  18
ENDBRANCH   2  17
TORSDOF 4
ENDMDL
MODEL 5
REMARK VINA RESULT:      -8.2      5.506      8.307
REMARK  Name = 
REMARK  5 active torsions:
REMARK  status: ('A' for Active; 'I' for Inactive)
REMARK    1  A    between atoms: C_1  and  C_2
REMARK    2  A    between atoms: C_4  and  C_5
REMARK    3  A    between atoms: C_9  and  N_10
REMARK    4  A    between atoms: C_11  and  C_13
REMARK    5  A    between atoms: C_13  and  N_14
REMARK                            x       y       z     vdW  Elec       q    Type
REMARK                         _______ _______ _______ _____ _____    ______ ____
ROOT
ATOM      1  N   UNL     1       7.844   6.751  18.335  0.00  0.00    +0.000 N 
ATOM      2  C   UNL     1       7.770   8.064  17.875  0.00  0.00    +0.000 C 
ATOM      3  O   UNL     1       6.952   8.487  17.060  0.00  0.00    +0.000 OA
ATOM      4  H   UNL     1       8.039   6.718  19.336  0.00  0.00    +0.000 HD
ENDROOT
BRANCH   1   9
ATOM      5  C   UNL     1       4.850   4.530  18.143  0.00  0.00    +0.000 A 
ATOM      6  C   UNL     1       5.138   3.864  16.942  0.00  0.00    +0.000 A 
ATOM      7  C   UNL     1       6.299   4.154  16.223  0.00  0.00    +0.000 A 
ATOM      8  C   UNL     1       7.176   5.133  16.685  0.00  0.00    +0.000 A 
ATOM      9  C   UNL     1       6.908   5.798  17.882  0.00  0.00    +0.000 A 
ATOM     10  C   UNL     1       5.765   5.482  18.627  0.00  0.00    +0.000 A 
BRANCH   5  14
ATOM     11  C   UNL     1       0.514   2.253  18.828  0.00  0.00    +0.000 C 
ATOM     12  C   UNL     1       1.645   3.189  19.077  0.00  0.00    +0.000 A 
ATOM     13  N   UNL     1       2.752   3.226  18.368  0.00  0.00    +0.000 NA
ATOM     14  C   UNL     1       3.581   4.250  18.814  0.00  0.00    +0.000 A 
ATOM     15  C   UNL     1       3.094   4.945  19.904  0.00  0.00    +0.000 A 
ATOM     16  S   UNL     1       1.552   4.338  20.351  0.00  0.00    +0.000 S 
ENDBRANCH   5  14
ENDBRANCH   1   9
BRANCH   2  17
ATOM     17  C   UNL     1       8.790   9.004  18.536  0.00  0.00    +0.000 C 
BRANCH  17  18
ATOM     18  N   UNL     1       8.745  10.341  17.929  0.00  0.00    +0.000 N 
ATOM     19  C   UNL     1       9.263  11.419  18.613  0.00  0.00    +0.000 C 
ATOM     20  N   UNL     1      10.158  11.305  19.555  0.00  0.00    +0.000 NA
ATOM     21  S   UNL     1      10.410  12.755  20.288  0.00  0.00    +0.000 S 
ATOM     22  O   UNL     1      11.687  13.309  19.904  0.00  0.00    +0.000 OA
ATOM     23  O   UNL     1       9.966  12.667  21.665  0.00  0.00    +0.000 OA
ATOM     24  C   UNL     1       9.179  13.606  19.415  0.00  0.00    +0.000 A 
ATOM     25  C   UNL     1       8.641  14.848  19.669  0.00  0.00    +0.000 A 
ATOM     26  C   UNL     1       7.662  15.301  18.785  0.00  0.00    +0.000 A 
ATOM     27  C   UNL     1       7.276  14.521  17.676  0.00  0.00    +0.000 A 
ATOM     28  C   UNL     1       7.795  13.236  17.484  0.00  0.00    +0.000 A 
ATOM     29  C   UNL     1       8.718  12.778  18.407  0.00  0.00    +0.000 A 
ATOM     30  H   UNL     1       7.850  10.497  17.471  0.00  0.00    +0.000 HD
ENDBRANCH  17  18
ENDBRANCH   2  17
TORSDOF 4
ENDMDL
MODEL 6
REMARK VINA RESULT:      -8.2      3.479      4.208
REMARK  Name = 
REMARK  5 active torsions:
REMARK  status: ('A' for Active; 'I' for Inactive)
REMARK    1  A    between atoms: C_1  and  C_2
REMARK    2  A    between atoms: C_4  and  C_5
REMARK    3  A    between atoms: C_9  and  N_10
REMARK    4  A    between atoms: C_11  and  C_13
REMARK    5  A    between atoms: C_13  and  N_14
REMARK                            x       y       z     vdW  Elec       q    Type
REMARK                         _______ _______ _______ _____ _____    ______ ____
ROOT
ATOM      1  N   UNL     1       1.109   9.566  19.284  0.00  0.00    +0.000 N 
ATOM      2  C   UNL     1       1.888   8.855  18.374  0.00  0.00    +0.000 C 
ATOM      3  O   UNL     1       2.156   9.220  17.230  0.00  0.00    +0.000 OA
ATOM      4  H   UNL     1       1.499   9.517  20.225  0.00  0.00    +0.000 HD
ENDROOT
BRANCH   1   9
ATOM      5  C   UNL     1       0.800  13.235  18.667  0.00  0.00    +0.000 A 
ATOM      6  C   UNL     1      -0.537  13.282  18.243  0.00  0.00    +0.000 A 
ATOM      7  C   UNL     1      -1.305  12.119  18.167  0.00  0.00    +0.000 A 
ATOM      8  C   UNL     1      -0.737  10.889  18.492  0.00  0.00    +0.000 A 
ATOM      9  C   UNL     1       0.587  10.827  18.924  0.00  0.00    +0.000 A 
ATOM     10  C   UNL     1       1.350  11.995  19.040  0.00  0.00    +0.000 A 
BRANCH   5  14
ATOM     11  C   UNL     1       4.929  15.953  18.519  0.00  0.00    +0.000 C 
ATOM     12  C   UNL     1       3.474  15.640  18.573  0.00  0.00    +0.000 A 
ATOM     13  N   UNL     1       2.969  14.427  18.507  0.00  0.00    +0.000 NA
ATOM     14  C   UNL     1       1.586  14.468  18.649  0.00  0.00    +0.000 A 
ATOM     15  C   UNL     1       1.062  15.741  18.769  0.00  0.00    +0.000 A 
ATOM     16  S   UNL     1       2.324  16.904  18.752  0.00  0.00    +0.000 S 
ENDBRANCH   5  14
ENDBRANCH   1   9
BRANCH   2  17
ATOM     17  C   UNL     1       2.466   7.552  18.947  0.00  0.00    +0.000 C 
BRANCH  17  18
ATOM     18  N   UNL     1       2.941   6.669  17.873  0.00  0.00    +0.000 N 
ATOM     19  C   UNL     1       3.980   5.799  18.115  0.00  0.00    +0.000 C 
ATOM     20  N   UNL     1       4.304   5.386  19.310  0.00  0.00    +0.000 NA
ATOM     21  S   UNL     1       5.700   4.517  19.259  0.00  0.00    +0.000 S 
ATOM     22  O   UNL     1       5.435   3.110  19.447  0.00  0.00    +0.000 OA
ATOM     23  O   UNL     1       6.725   5.235  19.991  0.00  0.00    +0.000 OA
ATOM     24  C   UNL     1       6.006   4.779  17.575  0.00  0.00    +0.000 A 
ATOM     25  C   UNL     1       7.156   4.536  16.857  0.00  0.00    +0.000 A 
ATOM     26  C   UNL     1       7.120   4.830  15.494  0.00  0.00    +0.000 A 
ATOM     27  C   UNL     1       5.944   5.327  14.895  0.00  0.00    +0.000 A 
ATOM     28  C   UNL     1       4.814   5.624  15.665  0.00  0.00    +0.000 A 
ATOM     29  C   UNL     1       4.890   5.385  17.025  0.00  0.00    +0.000 A 
ATOM     30  H   UNL     1       2.980   7.170  16.988  0.00  0.00    +0.000 HD
ENDBRANCH  17  18
ENDBRANCH   2  17
TORSDOF 4
ENDMDL
MODEL 7
REMARK VINA RESULT:      -8.2      2.985      4.502
REMARK  Name = 
REMARK  5 active torsions:
REMARK  status: ('A' for Active; 'I' for Inactive)
REMARK    1  A    between atoms: C_1  and  C_2
REMARK    2  A    between atoms: C_4  and  C_5
REMARK    3  A    between atoms: C_9  and  N_10
REMARK    4  A    between atoms: C_11  and  C_13
REMARK    5  A    between atoms: C_13  and  N_14
REMARK                            x       y       z     vdW  Elec       q    Type
REMARK                         _______ _______ _______ _____ _____    ______ ____
ROOT
ATOM      1  N   UNL     1       0.472   9.111  18.298  0.00  0.00    +0.000 N 
ATOM      2  C   UNL     1       1.780   9.454  17.966  0.00  0.00    +0.000 C 
ATOM      3  O   UNL     1       2.206  10.601  17.842  0.00  0.00    +0.000 OA
ATOM      4  H   UNL     1       0.447   8.328  18.952  0.00  0.00    +0.000 HD
ENDROOT
BRANCH   1   9
ATOM      5  C   UNL     1      -1.416  11.864  19.971  0.00  0.00    +0.000 A 
ATOM      6  C   UNL     1      -2.410  12.077  19.003  0.00  0.00    +0.000 A 
ATOM      7  C   UNL     1      -2.442  11.321  17.829  0.00  0.00    +0.000 A 
ATOM      8  C   UNL     1      -1.463  10.357  17.599  0.00  0.00    +0.000 A 
ATOM      9  C   UNL     1      -0.474  10.127  18.554  0.00  0.00    +0.000 A 
ATOM     10  C   UNL     1      -0.461  10.855  19.750  0.00  0.00    +0.000 A 
BRANCH   5  14
ATOM     11  C   UNL     1       0.136  15.684  22.699  0.00  0.00    +0.000 C 
ATOM     12  C   UNL     1      -0.647  14.475  22.322  0.00  0.00    +0.000 A 
ATOM     13  N   UNL     1      -0.570  13.871  21.157  0.00  0.00    +0.000 NA
ATOM     14  C   UNL     1      -1.377  12.738  21.142  0.00  0.00    +0.000 A 
ATOM     15  C   UNL     1      -2.101  12.537  22.301  0.00  0.00    +0.000 A 
ATOM     16  S   UNL     1      -1.729  13.758  23.449  0.00  0.00    +0.000 S 
ENDBRANCH   5  14
ENDBRANCH   1   9
BRANCH   2  17
ATOM     17  C   UNL     1       2.714   8.242  17.818  0.00  0.00    +0.000 C 
BRANCH  17  18
ATOM     18  N   UNL     1       2.548   7.309  18.941  0.00  0.00    +0.000 N 
ATOM     19  C   UNL     1       3.206   6.100  18.927  0.00  0.00    +0.000 C 
ATOM     20  N   UNL     1       4.283   5.880  18.222  0.00  0.00    +0.000 NA
ATOM     21  S   UNL     1       4.694   4.289  18.283  0.00  0.00    +0.000 S 
ATOM     22  O   UNL     1       5.863   4.093  19.108  0.00  0.00    +0.000 OA
ATOM     23  O   UNL     1       4.556   3.719  16.957  0.00  0.00    +0.000 OA
ATOM     24  C   UNL     1       3.311   3.787  19.195  0.00  0.00    +0.000 A 
ATOM     25  C   UNL     1       2.847   2.512  19.430  0.00  0.00    +0.000 A 
ATOM     26  C   UNL     1       1.704   2.395  20.221  0.00  0.00    +0.000 A 
ATOM     27  C   UNL     1       1.084   3.538  20.765  0.00  0.00    +0.000 A 
ATOM     28  C   UNL     1       1.542   4.823  20.452  0.00  0.00    +0.000 A 
ATOM     29  C   UNL     1       2.639   4.921  19.615  0.00  0.00    +0.000 A 
ATOM     30  H   UNL     1       1.576   7.280  19.242  0.00  0.00    +0.000 HD
ENDBRANCH  17  18
ENDBRANCH   2  17
TORSDOF 4
ENDMDL
MODEL 8
REMARK VINA RESULT:      -8.1      3.139      4.258
REMARK  Name = 
REMARK  5 active torsions:
REMARK  status: ('A' for Active; 'I' for Inactive)
REMARK    1  A    between atoms: C_1  and  C_2
REMARK    2  A    between atoms: C_4  and  C_5
REMARK    3  A    between atoms: C_9  and  N_10
REMARK    4  A    between atoms: C_11  and  C_13
REMARK    5  A    between atoms: C_13  and  N_14
REMARK                            x       y       z     vdW  Elec       q    Type
REMARK                         _______ _______ _______ _____ _____    ______ ____
ROOT
ATOM      1  N   UNL     1       1.469   9.036  19.896  0.00  0.00    +0.000 N 
ATOM      2  C   UNL     1       1.309   7.867  20.638  0.00  0.00    +0.000 C 
ATOM      3  O   UNL     1       0.350   7.612  21.365  0.00  0.00    +0.000 OA
ATOM      4  H   UNL     1       1.852   8.840  18.972  0.00  0.00    +0.000 HD
ENDROOT
BRANCH   1   9
ATOM      5  C   UNL     1      -1.508  11.098  18.987  0.00  0.00    +0.000 A 
ATOM      6  C   UNL     1      -1.455  12.042  20.025  0.00  0.00    +0.000 A 
ATOM      7  C   UNL     1      -0.452  11.984  20.995  0.00  0.00    +0.000 A 
ATOM      8  C   UNL     1       0.497  10.965  20.953  0.00  0.00    +0.000 A 
ATOM      9  C   UNL     1       0.463  10.025  19.924  0.00  0.00    +0.000 A 
ATOM     10  C   UNL     1      -0.516  10.102  18.927  0.00  0.00    +0.000 A 
BRANCH   5  14
ATOM     11  C   UNL     1      -3.807  10.386  14.667  0.00  0.00    +0.000 C 
ATOM     12  C   UNL     1      -3.611  10.801  16.084  0.00  0.00    +0.000 A 
ATOM     13  N   UNL     1      -2.514  10.589  16.778  0.00  0.00    +0.000 NA
ATOM     14  C   UNL     1      -2.625  11.152  18.046  0.00  0.00    +0.000 A 
ATOM     15  C   UNL     1      -3.847  11.743  18.304  0.00  0.00    +0.000 A 
ATOM     16  S   UNL     1      -4.858  11.636  16.921  0.00  0.00    +0.000 S 
ENDBRANCH   5  14
ENDBRANCH   1   9
BRANCH   2  17
ATOM     17  C   UNL     1       2.437   6.846  20.425  0.00  0.00    +0.000 C 
BRANCH  17  18
ATOM     18  N   UNL     1       2.833   6.786  19.012  0.00  0.00    +0.000 N 
ATOM     19  C   UNL     1       3.061   5.565  18.417  0.00  0.00    +0.000 C 
ATOM     20  N   UNL     1       2.557   4.447  18.864  0.00  0.00    +0.000 NA
ATOM     21  S   UNL     1       3.183   3.166  18.044  0.00  0.00    +0.000 S 
ATOM     22  O   UNL     1       2.202   2.605  17.144  0.00  0.00    +0.000 OA
ATOM     23  O   UNL     1       3.969   2.363  18.959  0.00  0.00    +0.000 OA
ATOM     24  C   UNL     1       4.299   4.093  17.100  0.00  0.00    +0.000 A 
ATOM     25  C   UNL     1       5.354   3.654  16.331  0.00  0.00    +0.000 A 
ATOM     26  C   UNL     1       6.088   4.630  15.656  0.00  0.00    +0.000 A 
ATOM     27  C   UNL     1       5.735   5.991  15.749  0.00  0.00    +0.000 A 
ATOM     28  C   UNL     1       4.697   6.409  16.591  0.00  0.00    +0.000 A 
ATOM     29  C   UNL     1       4.021   5.433  17.301  0.00  0.00    +0.000 A 
ATOM     30  H   UNL     1       3.510   7.514  18.798  0.00  0.00    +0.000 HD
ENDBRANCH  17  18
ENDBRANCH   2  17
TORSDOF 4
ENDMDL
MODEL 9
REMARK VINA RESULT:      -8.1      2.934      4.348
REMARK  Name = 
REMARK  5 active torsions:
REMARK  status: ('A' for Active; 'I' for Inactive)
REMARK    1  A    between atoms: C_1  and  C_2
REMARK    2  A    between atoms: C_4  and  C_5
REMARK    3  A    between atoms: C_9  and  N_10
REMARK    4  A    between atoms: C_11  and  C_13
REMARK    5  A    between atoms: C_13  and  N_14
REMARK                            x       y       z     vdW  Elec       q    Type
REMARK                         _______ _______ _______ _____ _____    ______ ____
ROOT
ATOM      1  N   UNL     1       0.801   9.133  19.005  0.00  0.00    +0.000 N 
ATOM      2  C   UNL     1       1.808   9.344  18.066  0.00  0.00    +0.000 C 
ATOM      3  O   UNL     1       1.890  10.316  17.317  0.00  0.00    +0.000 OA
ATOM      4  H   UNL     1       1.177   8.753  19.874  0.00  0.00    +0.000 HD
ENDROOT
BRANCH   1   9
ATOM      5  C   UNL     1      -1.414  11.732  20.513  0.00  0.00    +0.000 A 
ATOM      6  C   UNL     1      -2.278  11.951  19.429  0.00  0.00    +0.000 A 
ATOM      7  C   UNL     1      -2.118  11.248  18.233  0.00  0.00    +0.000 A 
ATOM      8  C   UNL     1      -1.076  10.334  18.099  0.00  0.00    +0.000 A 
ATOM      9  C   UNL     1      -0.214  10.099  19.170  0.00  0.00    +0.000 A 
ATOM     10  C   UNL     1      -0.394  10.772  20.384  0.00  0.00    +0.000 A 
BRANCH   5  14
ATOM     11  C   UNL     1      -3.799  13.604  24.420  0.00  0.00    +0.000 C 
ATOM     12  C   UNL     1      -2.689  13.358  23.457  0.00  0.00    +0.000 A 
ATOM     13  N   UNL     1      -2.742  12.502  22.461  0.00  0.00    +0.000 NA
ATOM     14  C   UNL     1      -1.571  12.554  21.713  0.00  0.00    +0.000 A 
ATOM     15  C   UNL     1      -0.620  13.429  22.200  0.00  0.00    +0.000 A 
ATOM     16  S   UNL     1      -1.218  14.236  23.591  0.00  0.00    +0.000 S 
ENDBRANCH   5  14
ENDBRANCH   1   9
BRANCH   2  17
ATOM     17  C   UNL     1       2.894   8.256  18.076  0.00  0.00    +0.000 C 
BRANCH  17  18
ATOM     18  N   UNL     1       2.564   7.190  19.031  0.00  0.00    +0.000 N 
ATOM     19  C   UNL     1       3.228   5.986  18.967  0.00  0.00    +0.000 C 
ATOM     20  N   UNL     1       4.403   5.846  18.416  0.00  0.00    +0.000 NA
ATOM     21  S   UNL     1       4.815   4.255  18.338  0.00  0.00    +0.000 S 
ATOM     22  O   UNL     1       5.842   3.943  19.304  0.00  0.00    +0.000 OA
ATOM     23  O   UNL     1       4.890   3.860  16.945  0.00  0.00    +0.000 OA
ATOM     24  C   UNL     1       3.311   3.656  18.952  0.00  0.00    +0.000 A 
ATOM     25  C   UNL     1       2.828   2.366  18.948  0.00  0.00    +0.000 A 
ATOM     26  C   UNL     1       1.576   2.162  19.530  0.00  0.00    +0.000 A 
ATOM     27  C   UNL     1       0.869   3.234  20.111  0.00  0.00    +0.000 A 
ATOM     28  C   UNL     1       1.358   4.543  20.039  0.00  0.00    +0.000 A 
ATOM     29  C   UNL     1       2.571   4.735  19.403  0.00  0.00    +0.000 A 
ATOM     30  H   UNL     1       1.558   7.133  19.171  0.00  0.00    +0.000 HD
ENDBRANCH  17  18
ENDBRANCH   2  17
TORSDOF 4
ENDMDL
