MODEL 1
REMARK VINA RESULT:      -7.6      0.000      0.000
REMARK  Name = 
REMARK  4 active torsions:
REMARK  status: ('A' for Active; 'I' for Inactive)
REMARK    1  A    between atoms: C_2  and  C_17
REMARK    2  A    between atoms: N_3  and  C_4
REMARK    3  A    between atoms: C_7  and  O_8
REMARK    4  A    between atoms: O_8  and  C_9
REMARK                            x       y       z     vdW  Elec       q    Type
REMARK                         _______ _______ _______ _____ _____    ______ ____
ROOT
ATOM      1  O   UNL     1       1.793   5.961  18.214  0.00  0.00    +0.000 OA
ATOM      2  C   UNL     1       2.523   6.910  18.468  0.00  0.00    +0.000 C 
ATOM      3  N   UNL     1       3.904   6.782  18.571  0.00  0.00    +0.000 N 
ATOM      4  H   UNL     1       4.420   7.652  18.679  0.00  0.00    +0.000 HD
ENDROOT
BRANCH   2   5
ATOM      5  C   UNL     1       2.004   8.309  18.691  0.00  0.00    +0.000 A 
ATOM      6  N   UNL     1       2.266   9.142  17.639  0.00  0.00    +0.000 NA
ATOM      7  N   UNL     1       1.884  10.439  17.688  0.00  0.00    +0.000 NA
ATOM      8  C   UNL     1       1.301  10.905  18.810  0.00  0.00    +0.000 A 
ATOM      9  C   UNL     1       1.058  10.125  19.934  0.00  0.00    +0.000 A 
ATOM     10  C   UNL     1       0.543  10.696  21.114  0.00  0.00    +0.000 A 
ATOM     11  C   UNL     1       0.285   9.908  22.230  0.00  0.00    +0.000 A 
ATOM     12  C   UNL     1       0.478   8.535  22.160  0.00  0.00    +0.000 A 
ATOM     13  C   UNL     1       1.005   7.960  20.998  0.00  0.00    +0.000 A 
ATOM     14  C   UNL     1       1.361   8.748  19.872  0.00  0.00    +0.000 A 
ENDBRANCH   2   5
BRANCH   3  15
ATOM     15  C   UNL     1       4.619   5.565  18.200  0.00  0.00    +0.000 C 
ATOM     16  C   UNL     1       4.426   5.257  16.711  0.00  0.00    +0.000 C 
ATOM     17  C   UNL     1       5.125   6.290  15.823  0.00  0.00    +0.000 C 
ATOM     18  C   UNL     1       6.624   6.404  16.125  0.00  0.00    +0.000 C 
ATOM     19  C   UNL     1       6.877   6.625  17.623  0.00  0.00    +0.000 C 
ATOM     20  C   UNL     1       6.111   5.665  18.535  0.00  0.00    +0.000 C 
BRANCH  18  21
ATOM     21  O   UNL     1       7.302   5.203  15.728  0.00  0.00    +0.000 OA
BRANCH  21  22
ATOM     22  C   UNL     1       7.106   4.722  14.459  0.00  0.00    +0.000 A 
ATOM     23  C   UNL     1       6.252   3.679  14.090  0.00  0.00    +0.000 A 
ATOM     24  C   UNL     1       6.156   3.285  12.746  0.00  0.00    +0.000 A 
ATOM     25  C   UNL     1       6.914   3.928  11.769  0.00  0.00    +0.000 A 
ATOM     26  C   UNL     1       7.763   4.968  12.131  0.00  0.00    +0.000 A 
ATOM     27  C   UNL     1       7.857   5.362  13.469  0.00  0.00    +0.000 A 
ENDBRANCH  21  22
ENDBRANCH  18  21
ENDBRANCH   3  15
TORSDOF 4
ENDMDL
MODEL 2
REMARK VINA RESULT:      -7.4      0.537      1.084
REMARK  Name = 
REMARK  4 active torsions:
REMARK  status: ('A' for Active; 'I' for Inactive)
REMARK    1  A    between atoms: C_2  and  C_17
REMARK    2  A    between atoms: N_3  and  C_4
REMARK    3  A    between atoms: C_7  and  O_8
REMARK    4  A    between atoms: O_8  and  C_9
REMARK                            x       y       z     vdW  Elec       q    Type
REMARK                         _______ _______ _______ _____ _____    ______ ____
ROOT
ATOM      1  O   UNL     1       1.952   6.082  19.748  0.00  0.00    +0.000 OA
ATOM      2  C   UNL     1       2.450   7.064  19.215  0.00  0.00    +0.000 C 
ATOM      3  N   UNL     1       3.647   7.004  18.508  0.00  0.00    +0.000 N 
ATOM      4  H   UNL     1       3.913   7.855  18.019  0.00  0.00    +0.000 HD
ENDROOT
BRANCH   2   5
ATOM      5  C   UNL     1       1.822   8.435  19.266  0.00  0.00    +0.000 A 
ATOM      6  N   UNL     1       2.113   9.189  18.164  0.00  0.00    +0.000 NA
ATOM      7  N   UNL     1       1.642  10.454  18.062  0.00  0.00    +0.000 NA
ATOM      8  C   UNL     1       0.939  10.972  19.088  0.00  0.00    +0.000 A 
ATOM      9  C   UNL     1       0.656  10.277  20.258  0.00  0.00    +0.000 A 
ATOM     10  C   UNL     1       0.008  10.910  21.336  0.00  0.00    +0.000 A 
ATOM     11  C   UNL     1      -0.288  10.206  22.499  0.00  0.00    +0.000 A 
ATOM     12  C   UNL     1       0.003   8.851  22.572  0.00  0.00    +0.000 A 
ATOM     13  C   UNL     1       0.661   8.217  21.513  0.00  0.00    +0.000 A 
ATOM     14  C   UNL     1       1.055   8.927  20.348  0.00  0.00    +0.000 A 
ENDBRANCH   2   5
BRANCH   3  15
ATOM     15  C   UNL     1       4.310   5.746  18.176  0.00  0.00    +0.000 C 
ATOM     16  C   UNL     1       4.208   5.463  16.673  0.00  0.00    +0.000 C 
ATOM     17  C   UNL     1       5.032   6.456  15.851  0.00  0.00    +0.000 C 
ATOM     18  C   UNL     1       6.510   6.473  16.262  0.00  0.00    +0.000 C 
ATOM     19  C   UNL     1       6.666   6.667  17.777  0.00  0.00    +0.000 C 
ATOM     20  C   UNL     1       5.777   5.750  18.619  0.00  0.00    +0.000 C 
BRANCH  18  21
ATOM     21  O   UNL     1       7.139   5.235  15.901  0.00  0.00    +0.000 OA
BRANCH  21  22
ATOM     22  C   UNL     1       7.101   4.832  14.590  0.00  0.00    +0.000 A 
ATOM     23  C   UNL     1       7.787   5.416  13.522  0.00  0.00    +0.000 A 
ATOM     24  C   UNL     1       7.649   4.901  12.224  0.00  0.00    +0.000 A 
ATOM     25  C   UNL     1       6.822   3.804  11.989  0.00  0.00    +0.000 A 
ATOM     26  C   UNL     1       6.139   3.217  13.048  0.00  0.00    +0.000 A 
ATOM     27  C   UNL     1       6.278   3.729  14.341  0.00  0.00    +0.000 A 
ENDBRANCH  21  22
ENDBRANCH  18  21
ENDBRANCH   3  15
TORSDOF 4
ENDMDL
MODEL 3
REMARK VINA RESULT:      -7.4      1.642      2.535
REMARK  Name = 
REMARK  4 active torsions:
REMARK  status: ('A' for Active; 'I' for Inactive)
REMARK    1  A    between atoms: C_2  and  C_17
REMARK    2  A    between atoms: N_3  and  C_4
REMARK    3  A    between atoms: C_7  and  O_8
REMARK    4  A    between atoms: O_8  and  C_9
REMARK                            x       y       z     vdW  Elec       q    Type
REMARK                         _______ _______ _______ _____ _____    ______ ____
ROOT
ATOM      1  O   UNL     1       1.803   4.696  19.747  0.00  0.00    +0.000 OA
ATOM      2  C   UNL     1       2.449   5.723  19.907  0.00  0.00    +0.000 C 
ATOM      3  N   UNL     1       3.831   5.765  19.759  0.00  0.00    +0.000 N 
ATOM      4  H   UNL     1       4.252   6.690  19.811  0.00  0.00    +0.000 HD
ENDROOT
BRANCH   2   5
ATOM      5  C   UNL     1       1.817   7.042  20.276  0.00  0.00    +0.000 A 
ATOM      6  N   UNL     1       1.189   7.004  21.490  0.00  0.00    +0.000 NA
ATOM      7  N   UNL     1       0.554   8.101  21.961  0.00  0.00    +0.000 NA
ATOM      8  C   UNL     1       0.499   9.205  21.189  0.00  0.00    +0.000 A 
ATOM      9  C   UNL     1       1.069   9.290  19.925  0.00  0.00    +0.000 A 
ATOM     10  C   UNL     1       0.887  10.435  19.125  0.00  0.00    +0.000 A 
ATOM     11  C   UNL     1       1.473  10.523  17.867  0.00  0.00    +0.000 A 
ATOM     12  C   UNL     1       2.297   9.498  17.422  0.00  0.00    +0.000 A 
ATOM     13  C   UNL     1       2.472   8.350  18.202  0.00  0.00    +0.000 A 
ATOM     14  C   UNL     1       1.817   8.191  19.452  0.00  0.00    +0.000 A 
ENDBRANCH   2   5
BRANCH   3  15
ATOM     15  C   UNL     1       4.607   4.653  19.219  0.00  0.00    +0.000 C 
ATOM     16  C   UNL     1       4.066   4.234  17.847  0.00  0.00    +0.000 C 
ATOM     17  C   UNL     1       4.315   5.309  16.786  0.00  0.00    +0.000 C 
ATOM     18  C   UNL     1       5.801   5.669  16.655  0.00  0.00    +0.000 C 
ATOM     19  C   UNL     1       6.415   6.013  18.020  0.00  0.00    +0.000 C 
ATOM     20  C   UNL     1       6.096   5.001  19.121  0.00  0.00    +0.000 C 
BRANCH  18  21
ATOM     21  O   UNL     1       6.531   4.566  16.099  0.00  0.00    +0.000 OA
BRANCH  21  22
ATOM     22  C   UNL     1       6.770   4.545  14.749  0.00  0.00    +0.000 A 
ATOM     23  C   UNL     1       7.686   5.341  14.056  0.00  0.00    +0.000 A 
ATOM     24  C   UNL     1       7.821   5.217  12.664  0.00  0.00    +0.000 A 
ATOM     25  C   UNL     1       7.040   4.301  11.961  0.00  0.00    +0.000 A 
ATOM     26  C   UNL     1       6.129   3.505  12.647  0.00  0.00    +0.000 A 
ATOM     27  C   UNL     1       5.996   3.627  14.032  0.00  0.00    +0.000 A 
ENDBRANCH  21  22
ENDBRANCH  18  21
ENDBRANCH   3  15
TORSDOF 4
ENDMDL
MODEL 4
REMARK VINA RESULT:      -7.3      3.726      6.098
REMARK  Name = 
REMARK  4 active torsions:
REMARK  status: ('A' for Active; 'I' for Inactive)
REMARK    1  A    between atoms: C_2  and  C_17
REMARK    2  A    between atoms: N_3  and  C_4
REMARK    3  A    between atoms: C_7  and  O_8
REMARK    4  A    between atoms: O_8  and  C_9
REMARK                            x       y       z     vdW  Elec       q    Type
REMARK                         _______ _______ _______ _____ _____    ______ ____
ROOT
ATOM      1  O   UNL     1       4.536   4.137  15.844  0.00  0.00    +0.000 OA
ATOM      2  C   UNL     1       4.705   3.855  17.022  0.00  0.00    +0.000 C 
ATOM      3  N   UNL     1       5.933   4.006  17.657  0.00  0.00    +0.000 N 
ATOM      4  H   UNL     1       5.934   3.842  18.661  0.00  0.00    +0.000 HD
ENDROOT
BRANCH   2   5
ATOM      5  C   UNL     1       3.605   3.320  17.906  0.00  0.00    +0.000 A 
ATOM      6  N   UNL     1       3.331   2.003  17.666  0.00  0.00    +0.000 NA
ATOM      7  N   UNL     1       2.355   1.374  18.361  0.00  0.00    +0.000 NA
ATOM      8  C   UNL     1       1.623   2.082  19.243  0.00  0.00    +0.000 A 
ATOM      9  C   UNL     1       1.814   3.436  19.492  0.00  0.00    +0.000 A 
ATOM     10  C   UNL     1       0.947   4.144  20.347  0.00  0.00    +0.000 A 
ATOM     11  C   UNL     1       1.152   5.495  20.607  0.00  0.00    +0.000 A 
ATOM     12  C   UNL     1       2.259   6.136  20.068  0.00  0.00    +0.000 A 
ATOM     13  C   UNL     1       3.118   5.446  19.205  0.00  0.00    +0.000 A 
ATOM     14  C   UNL     1       2.886   4.090  18.849  0.00  0.00    +0.000 A 
ENDBRANCH   2   5
BRANCH   3  15
ATOM     15  C   UNL     1       7.068   4.686  17.039  0.00  0.00    +0.000 C 
ATOM     16  C   UNL     1       6.599   5.923  16.265  0.00  0.00    +0.000 C 
ATOM     17  C   UNL     1       6.077   7.015  17.202  0.00  0.00    +0.000 C 
ATOM     18  C   UNL     1       7.117   7.438  18.247  0.00  0.00    +0.000 C 
ATOM     19  C   UNL     1       7.685   6.221  18.993  0.00  0.00    +0.000 C 
ATOM     20  C   UNL     1       8.124   5.076  18.079  0.00  0.00    +0.000 C 
BRANCH  18  21
ATOM     21  O   UNL     1       8.206   8.124  17.613  0.00  0.00    +0.000 OA
BRANCH  21  22
ATOM     22  C   UNL     1       8.518   9.393  18.028  0.00  0.00    +0.000 A 
ATOM     23  C   UNL     1       8.212  10.582  17.360  0.00  0.00    +0.000 A 
ATOM     24  C   UNL     1       8.602  11.818  17.900  0.00  0.00    +0.000 A 
ATOM     25  C   UNL     1       9.301  11.869  19.105  0.00  0.00    +0.000 A 
ATOM     26  C   UNL     1       9.605  10.688  19.774  0.00  0.00    +0.000 A 
ATOM     27  C   UNL     1       9.215   9.458  19.238  0.00  0.00    +0.000 A 
ENDBRANCH  21  22
ENDBRANCH  18  21
ENDBRANCH   3  15
TORSDOF 4
ENDMDL
MODEL 5
REMARK VINA RESULT:      -7.2      5.398      8.612
REMARK  Name = 
REMARK  4 active torsions:
REMARK  status: ('A' for Active; 'I' for Inactive)
REMARK    1  A    between atoms: C_2  and  C_17
REMARK    2  A    between atoms: N_3  and  C_4
REMARK    3  A    between atoms: C_7  and  O_8
REMARK    4  A    between atoms: O_8  and  C_9
REMARK                            x       y       z     vdW  Elec       q    Type
REMARK                         _______ _______ _______ _____ _____    ______ ____
ROOT
ATOM      1  O   UNL     1      -2.014  13.543  21.749  0.00  0.00    +0.000 OA
ATOM      2  C   UNL     1      -2.596  12.588  22.246  0.00  0.00    +0.000 C 
ATOM      3  N   UNL     1      -1.951  11.390  22.536  0.00  0.00    +0.000 N 
ATOM      4  H   UNL     1      -2.504  10.704  23.044  0.00  0.00    +0.000 HD
ENDROOT
BRANCH   2   5
ATOM      5  C   UNL     1      -4.063  12.611  22.596  0.00  0.00    +0.000 A 
ATOM      6  N   UNL     1      -4.289  12.423  23.931  0.00  0.00    +0.000 NA
ATOM      7  N   UNL     1      -5.554  12.396  24.409  0.00  0.00    +0.000 NA
ATOM      8  C   UNL     1      -6.581  12.495  23.542  0.00  0.00    +0.000 A 
ATOM      9  C   UNL     1      -6.419  12.634  22.169  0.00  0.00    +0.000 A 
ATOM     10  C   UNL     1      -7.532  12.626  21.305  0.00  0.00    +0.000 A 
ATOM     11  C   UNL     1      -7.367  12.781  19.933  0.00  0.00    +0.000 A 
ATOM     12  C   UNL     1      -6.098  13.009  19.417  0.00  0.00    +0.000 A 
ATOM     13  C   UNL     1      -4.985  13.002  20.264  0.00  0.00    +0.000 A 
ATOM     14  C   UNL     1      -5.110  12.759  21.657  0.00  0.00    +0.000 A 
ENDBRANCH   2   5
BRANCH   3  15
ATOM     15  C   UNL     1      -0.503  11.229  22.457  0.00  0.00    +0.000 C 
ATOM     16  C   UNL     1      -0.069   9.914  23.116  0.00  0.00    +0.000 C 
ATOM     17  C   UNL     1      -0.545   8.696  22.321  0.00  0.00    +0.000 C 
ATOM     18  C   UNL     1      -0.055   8.717  20.867  0.00  0.00    +0.000 C 
ATOM     19  C   UNL     1      -0.388  10.052  20.185  0.00  0.00    +0.000 C 
ATOM     20  C   UNL     1      -0.009  11.286  21.007  0.00  0.00    +0.000 C 
BRANCH  18  21
ATOM     21  O   UNL     1       1.367   8.532  20.821  0.00  0.00    +0.000 OA
BRANCH  21  22
ATOM     22  C   UNL     1       1.878   7.532  20.034  0.00  0.00    +0.000 A 
ATOM     23  C   UNL     1       2.447   7.684  18.766  0.00  0.00    +0.000 A 
ATOM     24  C   UNL     1       2.926   6.565  18.067  0.00  0.00    +0.000 A 
ATOM     25  C   UNL     1       2.835   5.293  18.629  0.00  0.00    +0.000 A 
ATOM     26  C   UNL     1       2.272   5.137  19.891  0.00  0.00    +0.000 A 
ATOM     27  C   UNL     1       1.797   6.252  20.588  0.00  0.00    +0.000 A 
ENDBRANCH  21  22
ENDBRANCH  18  21
ENDBRANCH   3  15
TORSDOF 4
ENDMDL
MODEL 6
REMARK VINA RESULT:      -7.2      1.692      2.407
REMARK  Name = 
REMARK  4 active torsions:
REMARK  status: ('A' for Active; 'I' for Inactive)
REMARK    1  A    between atoms: C_2  and  C_17
REMARK    2  A    between atoms: N_3  and  C_4
REMARK    3  A    between atoms: C_7  and  O_8
REMARK    4  A    between atoms: O_8  and  C_9
REMARK                            x       y       z     vdW  Elec       q    Type
REMARK                         _______ _______ _______ _____ _____    ______ ____
ROOT
ATOM      1  O   UNL     1       2.710   4.314  18.928  0.00  0.00    +0.000 OA
ATOM      2  C   UNL     1       3.213   5.347  19.348  0.00  0.00    +0.000 C 
ATOM      3  N   UNL     1       4.588   5.552  19.371  0.00  0.00    +0.000 N 
ATOM      4  H   UNL     1       4.890   6.485  19.641  0.00  0.00    +0.000 HD
ENDROOT
BRANCH   2   5
ATOM      5  C   UNL     1       2.398   6.501  19.879  0.00  0.00    +0.000 A 
ATOM      6  N   UNL     1       1.810   6.220  21.081  0.00  0.00    +0.000 NA
ATOM      7  N   UNL     1       1.027   7.144  21.686  0.00  0.00    +0.000 NA
ATOM      8  C   UNL     1       0.791   8.311  21.056  0.00  0.00    +0.000 A 
ATOM      9  C   UNL     1       1.314   8.635  19.811  0.00  0.00    +0.000 A 
ATOM     10  C   UNL     1       0.945   9.828  19.158  0.00  0.00    +0.000 A 
ATOM     11  C   UNL     1       1.483  10.156  17.919  0.00  0.00    +0.000 A 
ATOM     12  C   UNL     1       2.442   9.330  17.348  0.00  0.00    +0.000 A 
ATOM     13  C   UNL     1       2.804   8.135  17.980  0.00  0.00    +0.000 A 
ATOM     14  C   UNL     1       2.208   7.728  19.203  0.00  0.00    +0.000 A 
ENDBRANCH   2   5
BRANCH   3  15
ATOM     15  C   UNL     1       5.536   4.648  18.727  0.00  0.00    +0.000 C 
ATOM     16  C   UNL     1       5.092   4.329  17.295  0.00  0.00    +0.000 C 
ATOM     17  C   UNL     1       5.190   5.555  16.384  0.00  0.00    +0.000 C 
ATOM     18  C   UNL     1       6.603   6.150  16.353  0.00  0.00    +0.000 C 
ATOM     19  C   UNL     1       7.132   6.408  17.772  0.00  0.00    +0.000 C 
ATOM     20  C   UNL     1       6.955   5.227  18.729  0.00  0.00    +0.000 C 
BRANCH  18  21
ATOM     21  O   UNL     1       7.505   5.251  15.694  0.00  0.00    +0.000 OA
BRANCH  21  22
ATOM     22  C   UNL     1       7.199   4.816  14.430  0.00  0.00    +0.000 A 
ATOM     23  C   UNL     1       6.312   3.788  14.098  0.00  0.00    +0.000 A 
ATOM     24  C   UNL     1       6.100   3.443  12.754  0.00  0.00    +0.000 A 
ATOM     25  C   UNL     1       6.774   4.120  11.739  0.00  0.00    +0.000 A 
ATOM     26  C   UNL     1       7.656   5.145  12.065  0.00  0.00    +0.000 A 
ATOM     27  C   UNL     1       7.866   5.490  13.402  0.00  0.00    +0.000 A 
ENDBRANCH  21  22
ENDBRANCH  18  21
ENDBRANCH   3  15
TORSDOF 4
ENDMDL
MODEL 7
REMARK VINA RESULT:      -7.2      3.037      9.955
REMARK  Name = 
REMARK  4 active torsions:
REMARK  status: ('A' for Active; 'I' for Inactive)
REMARK    1  A    between atoms: C_2  and  C_17
REMARK    2  A    between atoms: N_3  and  C_4
REMARK    3  A    between atoms: C_7  and  O_8
REMARK    4  A    between atoms: O_8  and  C_9
REMARK                            x       y       z     vdW  Elec       q    Type
REMARK                         _______ _______ _______ _____ _____    ______ ____
ROOT
ATOM      1  O   UNL     1       2.539   8.847  17.077  0.00  0.00    +0.000 OA
ATOM      2  C   UNL     1       2.257   8.329  18.149  0.00  0.00    +0.000 C 
ATOM      3  N   UNL     1       1.406   8.933  19.069  0.00  0.00    +0.000 N 
ATOM      4  H   UNL     1       1.158   8.368  19.878  0.00  0.00    +0.000 HD
ENDROOT
BRANCH   2   5
ATOM      5  C   UNL     1       2.798   6.989  18.583  0.00  0.00    +0.000 A 
ATOM      6  N   UNL     1       2.218   6.535  19.735  0.00  0.00    +0.000 NA
ATOM      7  N   UNL     1       2.605   5.354  20.271  0.00  0.00    +0.000 NA
ATOM      8  C   UNL     1       3.609   4.671  19.685  0.00  0.00    +0.000 A 
ATOM      9  C   UNL     1       4.275   5.104  18.546  0.00  0.00    +0.000 A 
ATOM     10  C   UNL     1       5.385   4.398  18.044  0.00  0.00    +0.000 A 
ATOM     11  C   UNL     1       6.039   4.826  16.894  0.00  0.00    +0.000 A 
ATOM     12  C   UNL     1       5.553   5.925  16.198  0.00  0.00    +0.000 A 
ATOM     13  C   UNL     1       4.461   6.643  16.697  0.00  0.00    +0.000 A 
ATOM     14  C   UNL     1       3.826   6.284  17.916  0.00  0.00    +0.000 A 
ENDBRANCH   2   5
BRANCH   3  15
ATOM     15  C   UNL     1       0.629  10.130  18.764  0.00  0.00    +0.000 C 
ATOM     16  C   UNL     1      -0.787  10.016  19.340  0.00  0.00    +0.000 C 
ATOM     17  C   UNL     1      -0.782  10.052  20.871  0.00  0.00    +0.000 C 
ATOM     18  C   UNL     1      -0.111  11.315  21.426  0.00  0.00    +0.000 C 
ATOM     19  C   UNL     1       1.281  11.524  20.811  0.00  0.00    +0.000 C 
ATOM     20  C   UNL     1       1.317  11.396  19.287  0.00  0.00    +0.000 C 
BRANCH  18  21
ATOM     21  O   UNL     1      -0.910  12.469  21.131  0.00  0.00    +0.000 OA
BRANCH  21  22
ATOM     22  C   UNL     1      -2.122  12.612  21.757  0.00  0.00    +0.000 A 
ATOM     23  C   UNL     1      -2.373  12.459  23.124  0.00  0.00    +0.000 A 
ATOM     24  C   UNL     1      -3.672  12.628  23.628  0.00  0.00    +0.000 A 
ATOM     25  C   UNL     1      -4.723  12.946  22.770  0.00  0.00    +0.000 A 
ATOM     26  C   UNL     1      -4.478  13.101  21.410  0.00  0.00    +0.000 A 
ATOM     27  C   UNL     1      -3.184  12.935  20.908  0.00  0.00    +0.000 A 
ENDBRANCH  21  22
ENDBRANCH  18  21
ENDBRANCH   3  15
TORSDOF 4
ENDMDL
MODEL 8
REMARK VINA RESULT:      -7.0      3.925      9.210
REMARK  Name = 
REMARK  4 active torsions:
REMARK  status: ('A' for Active; 'I' for Inactive)
REMARK    1  A    between atoms: C_2  and  C_17
REMARK    2  A    between atoms: N_3  and  C_4
REMARK    3  A    between atoms: C_7  and  O_8
REMARK    4  A    between atoms: O_8  and  C_9
REMARK                            x       y       z     vdW  Elec       q    Type
REMARK                         _______ _______ _______ _____ _____    ______ ____
ROOT
ATOM      1  O   UNL     1       1.434   8.324  21.683  0.00  0.00    +0.000 OA
ATOM      2  C   UNL     1       1.410   8.411  20.463  0.00  0.00    +0.000 C 
ATOM      3  N   UNL     1       0.728   9.426  19.801  0.00  0.00    +0.000 N 
ATOM      4  H   UNL     1       0.862   9.464  18.793  0.00  0.00    +0.000 HD
ENDROOT
BRANCH   2   5
ATOM      5  C   UNL     1       2.116   7.435  19.555  0.00  0.00    +0.000 A 
ATOM      6  N   UNL     1       2.793   8.054  18.542  0.00  0.00    +0.000 NA
ATOM      7  N   UNL     1       3.465   7.319  17.625  0.00  0.00    +0.000 NA
ATOM      8  C   UNL     1       3.401   5.974  17.694  0.00  0.00    +0.000 A 
ATOM      9  C   UNL     1       2.686   5.285  18.666  0.00  0.00    +0.000 A 
ATOM     10  C   UNL     1       2.572   3.882  18.622  0.00  0.00    +0.000 A 
ATOM     11  C   UNL     1       1.868   3.195  19.605  0.00  0.00    +0.000 A 
ATOM     12  C   UNL     1       1.327   3.895  20.675  0.00  0.00    +0.000 A 
ATOM     13  C   UNL     1       1.421   5.290  20.720  0.00  0.00    +0.000 A 
ATOM     14  C   UNL     1       2.056   6.028  19.687  0.00  0.00    +0.000 A 
ENDBRANCH   2   5
BRANCH   3  15
ATOM     15  C   UNL     1       0.148  10.575  20.491  0.00  0.00    +0.000 C 
ATOM     16  C   UNL     1       1.208  11.658  20.721  0.00  0.00    +0.000 C 
ATOM     17  C   UNL     1       1.657  12.301  19.407  0.00  0.00    +0.000 C 
ATOM     18  C   UNL     1       0.486  12.900  18.617  0.00  0.00    +0.000 C 
ATOM     19  C   UNL     1      -0.645  11.878  18.434  0.00  0.00    +0.000 C 
ATOM     20  C   UNL     1      -1.045  11.151  19.720  0.00  0.00    +0.000 C 
BRANCH  18  21
ATOM     21  O   UNL     1      -0.046  14.040  19.308  0.00  0.00    +0.000 OA
BRANCH  21  22
ATOM     22  C   UNL     1       0.332  15.294  18.902  0.00  0.00    +0.000 A 
ATOM     23  C   UNL     1       1.629  15.710  18.589  0.00  0.00    +0.000 A 
ATOM     24  C   UNL     1       1.872  17.034  18.192  0.00  0.00    +0.000 A 
ATOM     25  C   UNL     1       0.822  17.946  18.109  0.00  0.00    +0.000 A 
ATOM     26  C   UNL     1      -0.471  17.537  18.416  0.00  0.00    +0.000 A 
ATOM     27  C   UNL     1      -0.714  16.218  18.810  0.00  0.00    +0.000 A 
ENDBRANCH  21  22
ENDBRANCH  18  21
ENDBRANCH   3  15
TORSDOF 4
ENDMDL
MODEL 9
REMARK VINA RESULT:      -7.0      3.596      6.308
REMARK  Name = 
REMARK  4 active torsions:
REMARK  status: ('A' for Active; 'I' for Inactive)
REMARK    1  A    between atoms: C_2  and  C_17
REMARK    2  A    between atoms: N_3  and  C_4
REMARK    3  A    between atoms: C_7  and  O_8
REMARK    4  A    between atoms: O_8  and  C_9
REMARK                            x       y       z     vdW  Elec       q    Type
REMARK                         _______ _______ _______ _____ _____    ______ ____
ROOT
ATOM      1  O   UNL     1      -0.445  12.750  19.217  0.00  0.00    +0.000 OA
ATOM      2  C   UNL     1       0.565  12.461  19.843  0.00  0.00    +0.000 C 
ATOM      3  N   UNL     1       0.922  11.145  20.117  0.00  0.00    +0.000 N 
ATOM      4  H   UNL     1       1.834  11.017  20.550  0.00  0.00    +0.000 HD
ENDROOT
BRANCH   2   5
ATOM      5  C   UNL     1       1.525  13.496  20.379  0.00  0.00    +0.000 A 
ATOM      6  N   UNL     1       1.303  13.787  21.696  0.00  0.00    +0.000 NA
ATOM      7  N   UNL     1       2.066  14.711  22.325  0.00  0.00    +0.000 NA
ATOM      8  C   UNL     1       2.999  15.377  21.617  0.00  0.00    +0.000 A 
ATOM      9  C   UNL     1       3.236  15.167  20.264  0.00  0.00    +0.000 A 
ATOM     10  C   UNL     1       4.152  15.970  19.557  0.00  0.00    +0.000 A 
ATOM     11  C   UNL     1       4.398  15.745  18.207  0.00  0.00    +0.000 A 
ATOM     12  C   UNL     1       3.782  14.679  17.566  0.00  0.00    +0.000 A 
ATOM     13  C   UNL     1       2.859  13.886  18.255  0.00  0.00    +0.000 A 
ATOM     14  C   UNL     1       2.519  14.143  19.609  0.00  0.00    +0.000 A 
ENDBRANCH   2   5
BRANCH   3  15
ATOM     15  C   UNL     1       0.240   9.998  19.526  0.00  0.00    +0.000 C 
ATOM     16  C   UNL     1       0.718   9.769  18.087  0.00  0.00    +0.000 C 
ATOM     17  C   UNL     1       2.174   9.301  18.040  0.00  0.00    +0.000 C 
ATOM     18  C   UNL     1       2.407   8.025  18.858  0.00  0.00    +0.000 C 
ATOM     19  C   UNL     1       1.865   8.171  20.288  0.00  0.00    +0.000 C 
ATOM     20  C   UNL     1       0.443   8.730  20.363  0.00  0.00    +0.000 C 
BRANCH  18  21
ATOM     21  O   UNL     1       1.745   6.912  18.239  0.00  0.00    +0.000 OA
BRANCH  21  22
ATOM     22  C   UNL     1       2.479   5.795  17.930  0.00  0.00    +0.000 A 
ATOM     23  C   UNL     1       3.857   5.746  17.697  0.00  0.00    +0.000 A 
ATOM     24  C   UNL     1       4.478   4.528  17.382  0.00  0.00    +0.000 A 
ATOM     25  C   UNL     1       3.726   3.358  17.294  0.00  0.00    +0.000 A 
ATOM     26  C   UNL     1       2.356   3.401  17.527  0.00  0.00    +0.000 A 
ATOM     27  C   UNL     1       1.737   4.614  17.844  0.00  0.00    +0.000 A 
ENDBRANCH  21  22
ENDBRANCH  18  21
ENDBRANCH   3  15
TORSDOF 4
ENDMDL
