MODEL 1
REMARK VINA RESULT:      -8.9      0.000      0.000
REMARK  Name = 
REMARK  8 active torsions:
REMARK  status: ('A' for Active; 'I' for Inactive)
REMARK    1  A    between atoms: C_1  and  C_2
REMARK    2  A    between atoms: C_2  and  C_3
REMARK    3  A    between atoms: C_6  and  C_7
REMARK    4  A    between atoms: N_9  and  C_10
REMARK    5  A    between atoms: N_9  and  C_14
REMARK    6  A    between atoms: C_10  and  C_11
REMARK    7  A    between atoms: C_11  and  O_13
REMARK    8  A    between atoms: C_14  and  C_15
REMARK                            x       y       z     vdW  Elec       q    Type
REMARK                         _______ _______ _______ _____ _____    ______ ____
ROOT
ATOM      1  C   UNL     1       3.694   5.106  18.161  0.00  0.00    +0.000 A 
ATOM      2  C   UNL     1       2.611   5.326  19.022  0.00  0.00    +0.000 A 
ATOM      3  C   UNL     1       2.075   6.599  19.203  0.00  0.00    +0.000 A 
ATOM      4  C   UNL     1       2.502   7.675  18.430  0.00  0.00    +0.000 A 
ATOM      5  C   UNL     1       3.620   7.489  17.606  0.00  0.00    +0.000 A 
ATOM      6  C   UNL     1       4.213   6.220  17.478  0.00  0.00    +0.000 A 
ENDROOT
BRANCH   1   8
ATOM      7  C   UNL     1       4.965   3.549  16.633  0.00  0.00    +0.000 C 
ATOM      8  C   UNL     1       4.246   3.693  17.972  0.00  0.00    +0.000 C 
ATOM      9  N   UNL     1       5.076   3.290  19.087  0.00  0.00    +0.000 N 
ATOM     10  C   UNL     1       4.462   2.371  19.901  0.00  0.00    +0.000 C 
ATOM     11  O   UNL     1       4.935   1.934  20.933  0.00  0.00    +0.000 OA
ATOM     12  N   UNL     1       3.286   2.010  19.347  0.00  0.00    +0.000 N 
ATOM     13  C   UNL     1       3.151   2.593  18.128  0.00  0.00    +0.000 C 
ATOM     14  O   UNL     1       2.278   2.310  17.321  0.00  0.00    +0.000 OA
ATOM     15  H   UNL     1       5.961   3.702  19.350  0.00  0.00    +0.000 HD
ATOM     16  H   UNL     1       2.690   1.284  19.703  0.00  0.00    +0.000 HD
ENDBRANCH   1   8
BRANCH   4  17
ATOM     17  C   UNL     1       1.854   9.022  18.490  0.00  0.00    +0.000 C 
ATOM     18  O   UNL     1       1.983   9.742  17.500  0.00  0.00    +0.000 OA
ATOM     19  N   UNL     1       1.145   9.455  19.625  0.00  0.00    +0.000 N 
BRANCH  19  20
ATOM     20  C   UNL     1       0.841   8.645  20.824  0.00  0.00    +0.000 C 
BRANCH  20  21
ATOM     21  C   UNL     1       1.108   9.401  22.134  0.00  0.00    +0.000 C 
ATOM     22  O   UNL     1       0.266  10.066  22.718  0.00  0.00    +0.000 OA
BRANCH  21  23
ATOM     23  O   UNL     1       2.356   9.228  22.633  0.00  0.00    +0.000 OA
ATOM     24  H   UNL     1       2.348   8.667  23.437  0.00  0.00    +0.000 HD
ENDBRANCH  21  23
ENDBRANCH  20  21
ENDBRANCH  19  20
BRANCH  19  25
ATOM     25  C   UNL     1       0.603  10.820  19.620  0.00  0.00    +0.000 C 
BRANCH  25  26
ATOM     26  C   UNL     1      -0.865  10.965  19.295  0.00  0.00    +0.000 A 
ATOM     27  C   UNL     1      -1.667  11.912  19.952  0.00  0.00    +0.000 A 
ATOM     28  C   UNL     1      -2.959  12.192  19.494  0.00  0.00    +0.000 A 
ATOM     29  C   UNL     1      -3.469  11.519  18.386  0.00  0.00    +0.000 A 
ATOM     30  C   UNL     1      -2.705  10.536  17.759  0.00  0.00    +0.000 A 
ATOM     31  C   UNL     1      -1.417  10.253  18.219  0.00  0.00    +0.000 A 
ENDBRANCH  25  26
ENDBRANCH  19  25
ENDBRANCH   4  17
TORSDOF 7
ENDMDL
MODEL 2
REMARK VINA RESULT:      -8.6      2.090      8.366
REMARK  Name = 
REMARK  8 active torsions:
REMARK  status: ('A' for Active; 'I' for Inactive)
REMARK    1  A    between atoms: C_1  and  C_2
REMARK    2  A    between atoms: C_2  and  C_3
REMARK    3  A    between atoms: C_6  and  C_7
REMARK    4  A    between atoms: N_9  and  C_10
REMARK    5  A    between atoms: N_9  and  C_14
REMARK    6  A    between atoms: C_10  and  C_11
REMARK    7  A    between atoms: C_11  and  O_13
REMARK    8  A    between atoms: C_14  and  C_15
REMARK                            x       y       z     vdW  Elec       q    Type
REMARK                         _______ _______ _______ _____ _____    ______ ____
ROOT
ATOM      1  C   UNL     1       0.826   9.482  19.348  0.00  0.00    +0.000 A 
ATOM      2  C   UNL     1       1.033   8.630  20.440  0.00  0.00    +0.000 A 
ATOM      3  C   UNL     1       1.797   7.471  20.322  0.00  0.00    +0.000 A 
ATOM      4  C   UNL     1       2.500   7.189  19.154  0.00  0.00    +0.000 A 
ATOM      5  C   UNL     1       2.261   7.997  18.033  0.00  0.00    +0.000 A 
ATOM      6  C   UNL     1       1.429   9.126  18.128  0.00  0.00    +0.000 A 
ENDROOT
BRANCH   1   8
ATOM      7  C   UNL     1      -1.000  10.928  18.373  0.00  0.00    +0.000 C 
ATOM      8  C   UNL     1      -0.003  10.755  19.516  0.00  0.00    +0.000 C 
ATOM      9  N   UNL     1      -0.641  10.810  20.814  0.00  0.00    +0.000 N 
ATOM     10  C   UNL     1      -0.049  11.715  21.658  0.00  0.00    +0.000 C 
ATOM     11  O   UNL     1      -0.368  11.891  22.819  0.00  0.00    +0.000 OA
ATOM     12  N   UNL     1       0.897  12.396  20.980  0.00  0.00    +0.000 N 
ATOM     13  C   UNL     1       0.880  12.032  19.672  0.00  0.00    +0.000 C 
ATOM     14  O   UNL     1       1.497  12.606  18.787  0.00  0.00    +0.000 OA
ATOM     15  H   UNL     1      -1.361  10.184  21.151  0.00  0.00    +0.000 HD
ATOM     16  H   UNL     1       1.412  13.175  21.350  0.00  0.00    +0.000 HD
ENDBRANCH   1   8
BRANCH   4  17
ATOM     17  C   UNL     1       3.444   6.036  19.037  0.00  0.00    +0.000 C 
ATOM     18  O   UNL     1       4.593   6.219  19.438  0.00  0.00    +0.000 OA
ATOM     19  N   UNL     1       3.048   4.806  18.480  0.00  0.00    +0.000 N 
BRANCH  19  20
ATOM     20  C   UNL     1       1.679   4.440  18.059  0.00  0.00    +0.000 C 
BRANCH  20  21
ATOM     21  C   UNL     1       1.022   3.421  19.000  0.00  0.00    +0.000 C 
ATOM     22  O   UNL     1       0.888   2.237  18.733  0.00  0.00    +0.000 OA
BRANCH  21  23
ATOM     23  O   UNL     1       0.639   3.932  20.196  0.00  0.00    +0.000 OA
ATOM     24  H   UNL     1       1.401   4.032  20.804  0.00  0.00    +0.000 HD
ENDBRANCH  21  23
ENDBRANCH  20  21
ENDBRANCH  19  20
BRANCH  19  25
ATOM     25  C   UNL     1       4.064   3.753  18.341  0.00  0.00    +0.000 C 
BRANCH  25  26
ATOM     26  C   UNL     1       5.105   3.954  17.264  0.00  0.00    +0.000 A 
ATOM     27  C   UNL     1       4.751   3.986  15.906  0.00  0.00    +0.000 A 
ATOM     28  C   UNL     1       5.677   4.391  14.939  0.00  0.00    +0.000 A 
ATOM     29  C   UNL     1       6.968   4.753  15.315  0.00  0.00    +0.000 A 
ATOM     30  C   UNL     1       7.349   4.671  16.652  0.00  0.00    +0.000 A 
ATOM     31  C   UNL     1       6.427   4.262  17.619  0.00  0.00    +0.000 A 
ENDBRANCH  25  26
ENDBRANCH  19  25
ENDBRANCH   4  17
TORSDOF 7
ENDMDL
MODEL 3
REMARK VINA RESULT:      -8.6      2.313      8.386
REMARK  Name = 
REMARK  8 active torsions:
REMARK  status: ('A' for Active; 'I' for Inactive)
REMARK    1  A    between atoms: C_1  and  C_2
REMARK    2  A    between atoms: C_2  and  C_3
REMARK    3  A    between atoms: C_6  and  C_7
REMARK    4  A    between atoms: N_9  and  C_10
REMARK    5  A    between atoms: N_9  and  C_14
REMARK    6  A    between atoms: C_10  and  C_11
REMARK    7  A    between atoms: C_11  and  O_13
REMARK    8  A    between atoms: C_14  and  C_15
REMARK                            x       y       z     vdW  Elec       q    Type
REMARK                         _______ _______ _______ _____ _____    ______ ____
ROOT
ATOM      1  C   UNL     1       1.046   9.247  19.629  0.00  0.00    +0.000 A 
ATOM      2  C   UNL     1       1.256   8.274  20.614  0.00  0.00    +0.000 A 
ATOM      3  C   UNL     1       2.014   7.134  20.359  0.00  0.00    +0.000 A 
ATOM      4  C   UNL     1       2.708   6.985  19.162  0.00  0.00    +0.000 A 
ATOM      5  C   UNL     1       2.466   7.917  18.143  0.00  0.00    +0.000 A 
ATOM      6  C   UNL     1       1.639   9.031  18.372  0.00  0.00    +0.000 A 
ENDROOT
BRANCH   1   8
ATOM      7  C   UNL     1      -0.497  10.362  21.287  0.00  0.00    +0.000 C 
ATOM      8  C   UNL     1       0.224  10.495  19.948  0.00  0.00    +0.000 C 
ATOM      9  N   UNL     1       1.027  11.697  19.874  0.00  0.00    +0.000 N 
ATOM     10  C   UNL     1       0.756  12.448  18.758  0.00  0.00    +0.000 C 
ATOM     11  O   UNL     1       1.347  13.465  18.447  0.00  0.00    +0.000 OA
ATOM     12  N   UNL     1      -0.289  11.901  18.103  0.00  0.00    +0.000 N 
ATOM     13  C   UNL     1      -0.786  10.857  18.815  0.00  0.00    +0.000 C 
ATOM     14  O   UNL     1      -1.836  10.286  18.562  0.00  0.00    +0.000 OA
ATOM     15  H   UNL     1       1.799  11.936  20.481  0.00  0.00    +0.000 HD
ATOM     16  H   UNL     1      -0.738  12.314  17.304  0.00  0.00    +0.000 HD
ENDBRANCH   1   8
BRANCH   4  17
ATOM     17  C   UNL     1       3.646   5.849  18.906  0.00  0.00    +0.000 C 
ATOM     18  O   UNL     1       4.807   5.994  19.287  0.00  0.00    +0.000 OA
ATOM     19  N   UNL     1       3.231   4.677  18.248  0.00  0.00    +0.000 N 
BRANCH  19  20
ATOM     20  C   UNL     1       1.849   4.351  17.838  0.00  0.00    +0.000 C 
BRANCH  20  21
ATOM     21  C   UNL     1       1.169   3.351  18.783  0.00  0.00    +0.000 C 
ATOM     22  O   UNL     1       0.770   3.637  19.901  0.00  0.00    +0.000 OA
BRANCH  21  23
ATOM     23  O   UNL     1       0.992   2.115  18.255  0.00  0.00    +0.000 OA
ATOM     24  H   UNL     1       0.695   2.161  17.323  0.00  0.00    +0.000 HD
ENDBRANCH  21  23
ENDBRANCH  20  21
ENDBRANCH  19  20
BRANCH  19  25
ATOM     25  C   UNL     1       4.240   3.643  17.978  0.00  0.00    +0.000 C 
BRANCH  25  26
ATOM     26  C   UNL     1       5.216   3.925  16.860  0.00  0.00    +0.000 A 
ATOM     27  C   UNL     1       4.788   4.014  15.526  0.00  0.00    +0.000 A 
ATOM     28  C   UNL     1       5.650   4.490  14.532  0.00  0.00    +0.000 A 
ATOM     29  C   UNL     1       6.950   4.868  14.857  0.00  0.00    +0.000 A 
ATOM     30  C   UNL     1       7.406   4.731  16.166  0.00  0.00    +0.000 A 
ATOM     31  C   UNL     1       6.547   4.250  17.158  0.00  0.00    +0.000 A 
ENDBRANCH  25  26
ENDBRANCH  19  25
ENDBRANCH   4  17
TORSDOF 7
ENDMDL
MODEL 4
REMARK VINA RESULT:      -8.5      2.301      3.661
REMARK  Name = 
REMARK  8 active torsions:
REMARK  status: ('A' for Active; 'I' for Inactive)
REMARK    1  A    between atoms: C_1  and  C_2
REMARK    2  A    between atoms: C_2  and  C_3
REMARK    3  A    between atoms: C_6  and  C_7
REMARK    4  A    between atoms: N_9  and  C_10
REMARK    5  A    between atoms: N_9  and  C_14
REMARK    6  A    between atoms: C_10  and  C_11
REMARK    7  A    between atoms: C_11  and  O_13
REMARK    8  A    between atoms: C_14  and  C_15
REMARK                            x       y       z     vdW  Elec       q    Type
REMARK                         _______ _______ _______ _____ _____    ______ ____
ROOT
ATOM      1  C   UNL     1       2.306   6.979  19.159  0.00  0.00    +0.000 A 
ATOM      2  C   UNL     1       1.750   7.476  20.344  0.00  0.00    +0.000 A 
ATOM      3  C   UNL     1       1.231   8.767  20.417  0.00  0.00    +0.000 A 
ATOM      4  C   UNL     1       1.116   9.560  19.279  0.00  0.00    +0.000 A 
ATOM      5  C   UNL     1       1.717   9.105  18.097  0.00  0.00    +0.000 A 
ATOM      6  C   UNL     1       2.310   7.831  18.040  0.00  0.00    +0.000 A 
ENDROOT
BRANCH   1   8
ATOM      7  C   UNL     1       4.060   5.447  18.183  0.00  0.00    +0.000 C 
ATOM      8  C   UNL     1       2.850   5.551  19.109  0.00  0.00    +0.000 C 
ATOM      9  N   UNL     1       3.128   5.039  20.434  0.00  0.00    +0.000 N 
ATOM     10  C   UNL     1       2.206   4.109  20.846  0.00  0.00    +0.000 C 
ATOM     11  O   UNL     1       2.193   3.586  21.944  0.00  0.00    +0.000 OA
ATOM     12  N   UNL     1       1.361   3.845  19.827  0.00  0.00    +0.000 N 
ATOM     13  C   UNL     1       1.763   4.506  18.711  0.00  0.00    +0.000 C 
ATOM     14  O   UNL     1       1.301   4.320  17.595  0.00  0.00    +0.000 OA
ATOM     15  H   UNL     1       3.832   5.385  21.072  0.00  0.00    +0.000 HD
ATOM     16  H   UNL     1       0.652   3.134  19.847  0.00  0.00    +0.000 HD
ENDBRANCH   1   8
BRANCH   4  17
ATOM     17  C   UNL     1       0.434  10.891  19.286  0.00  0.00    +0.000 C 
ATOM     18  O   UNL     1       1.121  11.863  19.596  0.00  0.00    +0.000 OA
ATOM     19  N   UNL     1      -0.930  11.027  18.969  0.00  0.00    +0.000 N 
BRANCH  19  20
ATOM     20  C   UNL     1      -1.825   9.953  18.488  0.00  0.00    +0.000 C 
BRANCH  20  21
ATOM     21  C   UNL     1      -2.704  10.396  17.310  0.00  0.00    +0.000 C 
ATOM     22  O   UNL     1      -3.912  10.558  17.386  0.00  0.00    +0.000 OA
BRANCH  21  23
ATOM     23  O   UNL     1      -2.019  10.651  16.169  0.00  0.00    +0.000 OA
ATOM     24  H   UNL     1      -2.116  11.585  15.891  0.00  0.00    +0.000 HD
ENDBRANCH  21  23
ENDBRANCH  20  21
ENDBRANCH  19  20
BRANCH  19  25
ATOM     25  C   UNL     1      -1.532  12.364  19.071  0.00  0.00    +0.000 C 
BRANCH  25  26
ATOM     26  C   UNL     1      -2.385  12.632  20.289  0.00  0.00    +0.000 A 
ATOM     27  C   UNL     1      -3.773  12.810  20.181  0.00  0.00    +0.000 A 
ATOM     28  C   UNL     1      -4.578  12.835  21.325  0.00  0.00    +0.000 A 
ATOM     29  C   UNL     1      -4.006  12.700  22.587  0.00  0.00    +0.000 A 
ATOM     30  C   UNL     1      -2.623  12.580  22.711  0.00  0.00    +0.000 A 
ATOM     31  C   UNL     1      -1.817  12.560  21.570  0.00  0.00    +0.000 A 
ENDBRANCH  25  26
ENDBRANCH  19  25
ENDBRANCH   4  17
TORSDOF 7
ENDMDL
MODEL 5
REMARK VINA RESULT:      -8.4      1.438      1.978
REMARK  Name = 
REMARK  8 active torsions:
REMARK  status: ('A' for Active; 'I' for Inactive)
REMARK    1  A    between atoms: C_1  and  C_2
REMARK    2  A    between atoms: C_2  and  C_3
REMARK    3  A    between atoms: C_6  and  C_7
REMARK    4  A    between atoms: N_9  and  C_10
REMARK    5  A    between atoms: N_9  and  C_14
REMARK    6  A    between atoms: C_10  and  C_11
REMARK    7  A    between atoms: C_11  and  O_13
REMARK    8  A    between atoms: C_14  and  C_15
REMARK                            x       y       z     vdW  Elec       q    Type
REMARK                         _______ _______ _______ _____ _____    ______ ____
ROOT
ATOM      1  C   UNL     1       2.573   5.806  19.072  0.00  0.00    +0.000 A 
ATOM      2  C   UNL     1       2.134   6.357  20.282  0.00  0.00    +0.000 A 
ATOM      3  C   UNL     1       1.758   7.695  20.378  0.00  0.00    +0.000 A 
ATOM      4  C   UNL     1       1.670   8.499  19.246  0.00  0.00    +0.000 A 
ATOM      5  C   UNL     1       2.158   7.986  18.036  0.00  0.00    +0.000 A 
ATOM      6  C   UNL     1       2.610   6.657  17.952  0.00  0.00    +0.000 A 
ENDROOT
BRANCH   1   8
ATOM      7  C   UNL     1       3.963   4.071  17.876  0.00  0.00    +0.000 C 
ATOM      8  C   UNL     1       2.960   4.330  18.998  0.00  0.00    +0.000 C 
ATOM      9  N   UNL     1       3.426   3.835  20.275  0.00  0.00    +0.000 N 
ATOM     10  C   UNL     1       2.511   3.019  20.893  0.00  0.00    +0.000 C 
ATOM     11  O   UNL     1       2.650   2.537  22.001  0.00  0.00    +0.000 OA
ATOM     12  N   UNL     1       1.472   2.811  20.058  0.00  0.00    +0.000 N 
ATOM     13  C   UNL     1       1.723   3.390  18.855  0.00  0.00    +0.000 C 
ATOM     14  O   UNL     1       1.048   3.215  17.851  0.00  0.00    +0.000 OA
ATOM     15  H   UNL     1       4.264   4.127  20.758  0.00  0.00    +0.000 HD
ATOM     16  H   UNL     1       0.714   2.177  20.241  0.00  0.00    +0.000 HD
ENDBRANCH   1   8
BRANCH   4  17
ATOM     17  C   UNL     1       1.134   9.894  19.284  0.00  0.00    +0.000 C 
ATOM     18  O   UNL     1       1.530  10.664  18.409  0.00  0.00    +0.000 OA
ATOM     19  N   UNL     1       0.232  10.316  20.278  0.00  0.00    +0.000 N 
BRANCH  19  20
ATOM     20  C   UNL     1      -0.387   9.460  21.313  0.00  0.00    +0.000 C 
BRANCH  20  21
ATOM     21  C   UNL     1      -0.025   9.896  22.739  0.00  0.00    +0.000 C 
ATOM     22  O   UNL     1       1.064   9.697  23.254  0.00  0.00    +0.000 OA
BRANCH  21  23
ATOM     23  O   UNL     1      -1.005  10.579  23.379  0.00  0.00    +0.000 OA
ATOM     24  H   UNL     1      -1.855  10.093  23.359  0.00  0.00    +0.000 HD
ENDBRANCH  21  23
ENDBRANCH  20  21
ENDBRANCH  19  20
BRANCH  19  25
ATOM     25  C   UNL     1      -0.187  11.724  20.278  0.00  0.00    +0.000 C 
BRANCH  25  26
ATOM     26  C   UNL     1      -1.603  12.010  19.837  0.00  0.00    +0.000 A 
ATOM     27  C   UNL     1      -2.121  11.464  18.651  0.00  0.00    +0.000 A 
ATOM     28  C   UNL     1      -3.487  11.549  18.366  0.00  0.00    +0.000 A 
ATOM     29  C   UNL     1      -4.348  12.192  19.252  0.00  0.00    +0.000 A 
ATOM     30  C   UNL     1      -3.839  12.788  20.403  0.00  0.00    +0.000 A 
ATOM     31  C   UNL     1      -2.473  12.708  20.687  0.00  0.00    +0.000 A 
ENDBRANCH  25  26
ENDBRANCH  19  25
ENDBRANCH   4  17
TORSDOF 7
ENDMDL
MODEL 6
REMARK VINA RESULT:      -8.4      2.136      8.365
REMARK  Name = 
REMARK  8 active torsions:
REMARK  status: ('A' for Active; 'I' for Inactive)
REMARK    1  A    between atoms: C_1  and  C_2
REMARK    2  A    between atoms: C_2  and  C_3
REMARK    3  A    between atoms: C_6  and  C_7
REMARK    4  A    between atoms: N_9  and  C_10
REMARK    5  A    between atoms: N_9  and  C_14
REMARK    6  A    between atoms: C_10  and  C_11
REMARK    7  A    between atoms: C_11  and  O_13
REMARK    8  A    between atoms: C_14  and  C_15
REMARK                            x       y       z     vdW  Elec       q    Type
REMARK                         _______ _______ _______ _____ _____    ______ ____
ROOT
ATOM      1  C   UNL     1       0.738   9.515  19.329  0.00  0.00    +0.000 A 
ATOM      2  C   UNL     1       1.049   8.627  20.367  0.00  0.00    +0.000 A 
ATOM      3  C   UNL     1       1.856   7.513  20.151  0.00  0.00    +0.000 A 
ATOM      4  C   UNL     1       2.499   7.317  18.932  0.00  0.00    +0.000 A 
ATOM      5  C   UNL     1       2.157   8.160  17.866  0.00  0.00    +0.000 A 
ATOM      6  C   UNL     1       1.282   9.243  18.061  0.00  0.00    +0.000 A 
ENDROOT
BRANCH   1   8
ATOM      7  C   UNL     1      -1.163  10.952  18.495  0.00  0.00    +0.000 C 
ATOM      8  C   UNL     1      -0.136  10.738  19.605  0.00  0.00    +0.000 C 
ATOM      9  N   UNL     1      -0.749  10.673  20.915  0.00  0.00    +0.000 N 
ATOM     10  C   UNL     1      -0.175  11.539  21.812  0.00  0.00    +0.000 C 
ATOM     11  O   UNL     1      -0.476  11.618  22.988  0.00  0.00    +0.000 OA
ATOM     12  N   UNL     1       0.730  12.304  21.168  0.00  0.00    +0.000 N 
ATOM     13  C   UNL     1       0.699  12.035  19.837  0.00  0.00    +0.000 C 
ATOM     14  O   UNL     1       1.275  12.696  18.986  0.00  0.00    +0.000 OA
ATOM     15  H   UNL     1      -1.436   9.997  21.218  0.00  0.00    +0.000 HD
ATOM     16  H   UNL     1       1.221  13.076  21.584  0.00  0.00    +0.000 HD
ENDBRANCH   1   8
BRANCH   4  17
ATOM     17  C   UNL     1       3.486   6.216  18.706  0.00  0.00    +0.000 C 
ATOM     18  O   UNL     1       4.651   6.442  19.033  0.00  0.00    +0.000 OA
ATOM     19  N   UNL     1       3.110   4.988  18.133  0.00  0.00    +0.000 N 
BRANCH  19  20
ATOM     20  C   UNL     1       1.734   4.569  17.795  0.00  0.00    +0.000 C 
BRANCH  20  21
ATOM     21  C   UNL     1       1.112   3.658  18.862  0.00  0.00    +0.000 C 
ATOM     22  O   UNL     1       0.906   4.004  20.015  0.00  0.00    +0.000 OA
BRANCH  21  23
ATOM     23  O   UNL     1       0.750   2.433  18.408  0.00  0.00    +0.000 OA
ATOM     24  H   UNL     1      -0.081   2.125  18.826  0.00  0.00    +0.000 HD
ENDBRANCH  21  23
ENDBRANCH  20  21
ENDBRANCH  19  20
BRANCH  19  25
ATOM     25  C   UNL     1       4.162   3.992  17.884  0.00  0.00    +0.000 C 
BRANCH  25  26
ATOM     26  C   UNL     1       5.157   4.316  16.794  0.00  0.00    +0.000 A 
ATOM     27  C   UNL     1       6.518   4.502  17.083  0.00  0.00    +0.000 A 
ATOM     28  C   UNL     1       7.461   4.579  16.052  0.00  0.00    +0.000 A 
ATOM     29  C   UNL     1       7.053   4.487  14.723  0.00  0.00    +0.000 A 
ATOM     30  C   UNL     1       5.699   4.360  14.421  0.00  0.00    +0.000 A 
ATOM     31  C   UNL     1       4.756   4.288  15.450  0.00  0.00    +0.000 A 
ENDBRANCH  25  26
ENDBRANCH  19  25
ENDBRANCH   4  17
TORSDOF 7
ENDMDL
MODEL 7
REMARK VINA RESULT:      -8.3      2.363      8.430
REMARK  Name = 
REMARK  8 active torsions:
REMARK  status: ('A' for Active; 'I' for Inactive)
REMARK    1  A    between atoms: C_1  and  C_2
REMARK    2  A    between atoms: C_2  and  C_3
REMARK    3  A    between atoms: C_6  and  C_7
REMARK    4  A    between atoms: N_9  and  C_10
REMARK    5  A    between atoms: N_9  and  C_14
REMARK    6  A    between atoms: C_10  and  C_11
REMARK    7  A    between atoms: C_11  and  O_13
REMARK    8  A    between atoms: C_14  and  C_15
REMARK                            x       y       z     vdW  Elec       q    Type
REMARK                         _______ _______ _______ _____ _____    ______ ____
ROOT
ATOM      1  C   UNL     1       0.929   9.475  19.501  0.00  0.00    +0.000 A 
ATOM      2  C   UNL     1       1.198   8.508  20.477  0.00  0.00    +0.000 A 
ATOM      3  C   UNL     1       1.961   7.378  20.189  0.00  0.00    +0.000 A 
ATOM      4  C   UNL     1       2.602   7.238  18.961  0.00  0.00    +0.000 A 
ATOM      5  C   UNL     1       2.300   8.164  17.954  0.00  0.00    +0.000 A 
ATOM      6  C   UNL     1       1.468   9.267  18.219  0.00  0.00    +0.000 A 
ENDROOT
BRANCH   1   8
ATOM      7  C   UNL     1      -0.583  10.555  21.211  0.00  0.00    +0.000 C 
ATOM      8  C   UNL     1       0.103  10.712  19.856  0.00  0.00    +0.000 C 
ATOM      9  N   UNL     1       0.893  11.922  19.778  0.00  0.00    +0.000 N 
ATOM     10  C   UNL     1       0.587  12.684  18.679  0.00  0.00    +0.000 C 
ATOM     11  O   UNL     1       1.161  13.710  18.366  0.00  0.00    +0.000 OA
ATOM     12  N   UNL     1      -0.468  12.136  18.043  0.00  0.00    +0.000 N 
ATOM     13  C   UNL     1      -0.937  11.078  18.753  0.00  0.00    +0.000 C 
ATOM     14  O   UNL     1      -1.988  10.500  18.519  0.00  0.00    +0.000 OA
ATOM     15  H   UNL     1       1.678  12.161  20.369  0.00  0.00    +0.000 HD
ATOM     16  H   UNL     1      -0.940  12.554  17.260  0.00  0.00    +0.000 HD
ENDBRANCH   1   8
BRANCH   4  17
ATOM     17  C   UNL     1       3.545   6.116  18.664  0.00  0.00    +0.000 C 
ATOM     18  O   UNL     1       4.729   6.301  18.943  0.00  0.00    +0.000 OA
ATOM     19  N   UNL     1       3.107   4.914  18.080  0.00  0.00    +0.000 N 
BRANCH  19  20
ATOM     20  C   UNL     1       1.704   4.542  17.797  0.00  0.00    +0.000 C 
BRANCH  20  21
ATOM     21  C   UNL     1       1.168   3.471  18.757  0.00  0.00    +0.000 C 
ATOM     22  O   UNL     1       0.613   2.447  18.390  0.00  0.00    +0.000 OA
BRANCH  21  23
ATOM     23  O   UNL     1       1.409   3.725  20.066  0.00  0.00    +0.000 OA
ATOM     24  H   UNL     1       2.362   3.873  20.235  0.00  0.00    +0.000 HD
ENDBRANCH  21  23
ENDBRANCH  20  21
ENDBRANCH  19  20
BRANCH  19  25
ATOM     25  C   UNL     1       4.116   3.895  17.760  0.00  0.00    +0.000 C 
BRANCH  25  26
ATOM     26  C   UNL     1       5.131   4.256  16.700  0.00  0.00    +0.000 A 
ATOM     27  C   UNL     1       6.488   4.421  17.018  0.00  0.00    +0.000 A 
ATOM     28  C   UNL     1       7.447   4.534  16.006  0.00  0.00    +0.000 A 
ATOM     29  C   UNL     1       7.061   4.499  14.669  0.00  0.00    +0.000 A 
ATOM     30  C   UNL     1       5.711   4.392  14.340  0.00  0.00    +0.000 A 
ATOM     31  C   UNL     1       4.752   4.284  15.350  0.00  0.00    +0.000 A 
ENDBRANCH  25  26
ENDBRANCH  19  25
ENDBRANCH   4  17
TORSDOF 7
ENDMDL
MODEL 8
REMARK VINA RESULT:      -8.3      1.459      1.870
REMARK  Name = 
REMARK  8 active torsions:
REMARK  status: ('A' for Active; 'I' for Inactive)
REMARK    1  A    between atoms: C_1  and  C_2
REMARK    2  A    between atoms: C_2  and  C_3
REMARK    3  A    between atoms: C_6  and  C_7
REMARK    4  A    between atoms: N_9  and  C_10
REMARK    5  A    between atoms: N_9  and  C_14
REMARK    6  A    between atoms: C_10  and  C_11
REMARK    7  A    between atoms: C_11  and  O_13
REMARK    8  A    between atoms: C_14  and  C_15
REMARK                            x       y       z     vdW  Elec       q    Type
REMARK                         _______ _______ _______ _____ _____    ______ ____
ROOT
ATOM      1  C   UNL     1       3.561   5.899  18.115  0.00  0.00    +0.000 A 
ATOM      2  C   UNL     1       2.701   6.042  19.211  0.00  0.00    +0.000 A 
ATOM      3  C   UNL     1       2.117   7.268  19.521  0.00  0.00    +0.000 A 
ATOM      4  C   UNL     1       2.254   8.364  18.673  0.00  0.00    +0.000 A 
ATOM      5  C   UNL     1       3.155   8.259  17.604  0.00  0.00    +0.000 A 
ATOM      6  C   UNL     1       3.805   7.042  17.332  0.00  0.00    +0.000 A 
ENDROOT
BRANCH   1   8
ATOM      7  C   UNL     1       3.115   3.560  17.274  0.00  0.00    +0.000 C 
ATOM      8  C   UNL     1       4.170   4.535  17.792  0.00  0.00    +0.000 C 
ATOM      9  N   UNL     1       5.298   4.652  16.893  0.00  0.00    +0.000 N 
ATOM     10  C   UNL     1       6.501   4.450  17.522  0.00  0.00    +0.000 C 
ATOM     11  O   UNL     1       7.589   4.561  16.988  0.00  0.00    +0.000 OA
ATOM     12  N   UNL     1       6.273   4.071  18.796  0.00  0.00    +0.000 N 
ATOM     13  C   UNL     1       4.939   3.918  19.001  0.00  0.00    +0.000 C 
ATOM     14  O   UNL     1       4.448   3.411  19.999  0.00  0.00    +0.000 OA
ATOM     15  H   UNL     1       5.264   4.968  15.933  0.00  0.00    +0.000 HD
ATOM     16  H   UNL     1       6.988   3.778  19.438  0.00  0.00    +0.000 HD
ENDBRANCH   1   8
BRANCH   4  17
ATOM     17  C   UNL     1       1.527   9.652  18.893  0.00  0.00    +0.000 C 
ATOM     18  O   UNL     1       1.637  10.506  18.013  0.00  0.00    +0.000 OA
ATOM     19  N   UNL     1       0.768   9.887  20.053  0.00  0.00    +0.000 N 
BRANCH  19  20
ATOM     20  C   UNL     1       0.484   8.907  21.123  0.00  0.00    +0.000 C 
BRANCH  20  21
ATOM     21  C   UNL     1       0.944   9.388  22.506  0.00  0.00    +0.000 C 
ATOM     22  O   UNL     1       0.189   9.831  23.358  0.00  0.00    +0.000 OA
BRANCH  21  23
ATOM     23  O   UNL     1       2.270   9.232  22.738  0.00  0.00    +0.000 OA
ATOM     24  H   UNL     1       2.752  10.081  22.660  0.00  0.00    +0.000 HD
ENDBRANCH  21  23
ENDBRANCH  20  21
ENDBRANCH  19  20
BRANCH  19  25
ATOM     25  C   UNL     1       0.147  11.209  20.215  0.00  0.00    +0.000 C 
BRANCH  25  26
ATOM     26  C   UNL     1      -1.298  11.335  19.793  0.00  0.00    +0.000 A 
ATOM     27  C   UNL     1      -2.166  12.239  20.426  0.00  0.00    +0.000 A 
ATOM     28  C   UNL     1      -3.429  12.508  19.890  0.00  0.00    +0.000 A 
ATOM     29  C   UNL     1      -3.846  11.866  18.726  0.00  0.00    +0.000 A 
ATOM     30  C   UNL     1      -3.018  10.924  18.119  0.00  0.00    +0.000 A 
ATOM     31  C   UNL     1      -1.758  10.651  18.657  0.00  0.00    +0.000 A 
ENDBRANCH  25  26
ENDBRANCH  19  25
ENDBRANCH   4  17
TORSDOF 7
ENDMDL
MODEL 9
REMARK VINA RESULT:      -8.3      1.513      2.425
REMARK  Name = 
REMARK  8 active torsions:
REMARK  status: ('A' for Active; 'I' for Inactive)
REMARK    1  A    between atoms: C_1  and  C_2
REMARK    2  A    between atoms: C_2  and  C_3
REMARK    3  A    between atoms: C_6  and  C_7
REMARK    4  A    between atoms: N_9  and  C_10
REMARK    5  A    between atoms: N_9  and  C_14
REMARK    6  A    between atoms: C_10  and  C_11
REMARK    7  A    between atoms: C_11  and  O_13
REMARK    8  A    between atoms: C_14  and  C_15
REMARK                            x       y       z     vdW  Elec       q    Type
REMARK                         _______ _______ _______ _____ _____    ______ ____
ROOT
ATOM      1  C   UNL     1       3.672   5.814  18.682  0.00  0.00    +0.000 A 
ATOM      2  C   UNL     1       2.833   6.110  19.763  0.00  0.00    +0.000 A 
ATOM      3  C   UNL     1       2.156   7.325  19.846  0.00  0.00    +0.000 A 
ATOM      4  C   UNL     1       2.176   8.232  18.791  0.00  0.00    +0.000 A 
ATOM      5  C   UNL     1       3.053   7.981  17.726  0.00  0.00    +0.000 A 
ATOM      6  C   UNL     1       3.797   6.789  17.675  0.00  0.00    +0.000 A 
ENDROOT
BRANCH   1   8
ATOM      7  C   UNL     1       3.832   3.486  19.648  0.00  0.00    +0.000 C 
ATOM      8  C   UNL     1       4.386   4.464  18.613  0.00  0.00    +0.000 C 
ATOM      9  N   UNL     1       4.365   3.916  17.274  0.00  0.00    +0.000 N 
ATOM     10  C   UNL     1       5.585   3.996  16.650  0.00  0.00    +0.000 C 
ATOM     11  O   UNL     1       5.799   3.661  15.500  0.00  0.00    +0.000 OA
ATOM     12  N   UNL     1       6.499   4.459  17.528  0.00  0.00    +0.000 N 
ATOM     13  C   UNL     1       5.934   4.594  18.755  0.00  0.00    +0.000 C 
ATOM     14  O   UNL     1       6.558   4.820  19.781  0.00  0.00    +0.000 OA
ATOM     15  H   UNL     1       3.545   3.614  16.766  0.00  0.00    +0.000 HD
ATOM     16  H   UNL     1       7.484   4.524  17.341  0.00  0.00    +0.000 HD
ENDBRANCH   1   8
BRANCH   4  17
ATOM     17  C   UNL     1       1.349   9.477  18.779  0.00  0.00    +0.000 C 
ATOM     18  O   UNL     1       1.554  10.269  17.859  0.00  0.00    +0.000 OA
ATOM     19  N   UNL     1       0.393   9.743  19.776  0.00  0.00    +0.000 N 
BRANCH  19  20
ATOM     20  C   UNL     1      -0.008   8.828  20.865  0.00  0.00    +0.000 C 
BRANCH  20  21
ATOM     21  C   UNL     1       0.277   9.402  22.260  0.00  0.00    +0.000 C 
ATOM     22  O   UNL     1      -0.581   9.583  23.109  0.00  0.00    +0.000 OA
BRANCH  21  23
ATOM     23  O   UNL     1       1.588   9.649  22.503  0.00  0.00    +0.000 OA
ATOM     24  H   UNL     1       2.123   8.830  22.458  0.00  0.00    +0.000 HD
ENDBRANCH  21  23
ENDBRANCH  20  21
ENDBRANCH  19  20
BRANCH  19  25
ATOM     25  C   UNL     1      -0.323  11.025  19.721  0.00  0.00    +0.000 C 
BRANCH  25  26
ATOM     26  C   UNL     1      -1.623  11.043  18.953  0.00  0.00    +0.000 A 
ATOM     27  C   UNL     1      -1.919  10.056  18.000  0.00  0.00    +0.000 A 
ATOM     28  C   UNL     1      -3.205   9.951  17.458  0.00  0.00    +0.000 A 
ATOM     29  C   UNL     1      -4.203  10.839  17.851  0.00  0.00    +0.000 A 
ATOM     30  C   UNL     1      -3.908  11.859  18.753  0.00  0.00    +0.000 A 
ATOM     31  C   UNL     1      -2.623  11.967  19.291  0.00  0.00    +0.000 A 
ENDBRANCH  25  26
ENDBRANCH  19  25
ENDBRANCH   4  17
TORSDOF 7
ENDMDL
