MODEL 1
REMARK VINA RESULT:      -9.0      0.000      0.000
REMARK  Name = 
REMARK  6 active torsions:
REMARK  status: ('A' for Active; 'I' for Inactive)
REMARK    1  A    between atoms: C_1  and  N_2
REMARK    2  A    between atoms: C_6  and  C_7
REMARK    3  A    between atoms: C_7  and  C_8
REMARK    4  A    between atoms: C_8  and  C_9
REMARK    5  A    between atoms: C_13  and  N_14
REMARK    6  A    between atoms: C_18  and  C_19
REMARK                            x       y       z     vdW  Elec       q    Type
REMARK                         _______ _______ _______ _____ _____    ______ ____
ROOT
ATOM      1  C   UNL     1       4.535   4.848  17.186  0.00  0.00    +0.000 A 
ATOM      2  C   UNL     1       3.700   3.735  17.006  0.00  0.00    +0.000 A 
ATOM      3  C   UNL     1       2.393   3.711  17.494  0.00  0.00    +0.000 A 
ATOM      4  C   UNL     1       1.874   4.819  18.166  0.00  0.00    +0.000 A 
ATOM      5  C   UNL     1       2.638   5.973  18.332  0.00  0.00    +0.000 A 
ATOM      6  C   UNL     1       3.952   5.963  17.834  0.00  0.00    +0.000 A 
ENDROOT
BRANCH   5   7
ATOM      7  N   UNL     1       2.121   7.133  18.969  0.00  0.00    +0.000 N 
ATOM      8  C   UNL     1       1.666   7.104  20.346  0.00  0.00    +0.000 C 
ATOM      9  C   UNL     1       1.362   8.540  20.737  0.00  0.00    +0.000 C 
ATOM     10  C   UNL     1       1.397   9.271  19.438  0.00  0.00    +0.000 C 
ATOM     11  C   UNL     1       0.998  10.524  19.173  0.00  0.00    +0.000 C 
ATOM     12  C   UNL     1       1.951   8.381  18.381  0.00  0.00    +0.000 C 
ATOM     13  O   UNL     1       2.161   8.758  17.241  0.00  0.00    +0.000 OA
BRANCH  11  14
ATOM     14  C   UNL     1       0.435  11.463  20.170  0.00  0.00    +0.000 C 
ATOM     15  F   UNL     1      -0.740  11.013  20.673  0.00  0.00    +0.000 F 
ATOM     16  F   UNL     1       1.274  11.644  21.221  0.00  0.00    +0.000 F 
ATOM     17  F   UNL     1       0.200  12.685  19.634  0.00  0.00    +0.000 F 
ENDBRANCH  11  14
ENDBRANCH   5   7
BRANCH   1  18
ATOM     18  C   UNL     1       6.085   4.854  16.736  0.00  0.00    +0.000 C 
ATOM     19  C   UNL     1       6.798   6.233  16.625  0.00  0.00    +0.000 C 
ATOM     20  O   UNL     1       7.797   5.861  17.601  0.00  0.00    +0.000 OA
ATOM     21  C   UNL     1       7.111   4.627  17.884  0.00  0.00    +0.000 C 
BRANCH  18  22
ATOM     22  C   UNL     1       6.341   3.907  15.544  0.00  0.00    +0.000 C 
BRANCH  22  28
ATOM     23  C   UNL     1       5.772   3.300  12.514  0.00  0.00    +0.000 C 
ATOM     24  N   UNL     1       6.703   4.262  13.044  0.00  0.00    +0.000 N 
ATOM     25  C   UNL     1       7.518   5.057  12.297  0.00  0.00    +0.000 A 
ATOM     26  N   UNL     1       8.253   5.798  13.090  0.00  0.00    +0.000 NA
ATOM     27  N   UNL     1       7.926   5.472  14.382  0.00  0.00    +0.000 NA
ATOM     28  C   UNL     1       6.975   4.558  14.357  0.00  0.00    +0.000 A 
ENDBRANCH  22  28
ENDBRANCH  18  22
ENDBRANCH   1  18
TORSDOF 5
ENDMDL
MODEL 2
REMARK VINA RESULT:      -8.9      0.987      1.469
REMARK  Name = 
REMARK  6 active torsions:
REMARK  status: ('A' for Active; 'I' for Inactive)
REMARK    1  A    between atoms: C_1  and  N_2
REMARK    2  A    between atoms: C_6  and  C_7
REMARK    3  A    between atoms: C_7  and  C_8
REMARK    4  A    between atoms: C_8  and  C_9
REMARK    5  A    between atoms: C_13  and  N_14
REMARK    6  A    between atoms: C_18  and  C_19
REMARK                            x       y       z     vdW  Elec       q    Type
REMARK                         _______ _______ _______ _____ _____    ______ ____
ROOT
ATOM      1  C   UNL     1       4.461   4.991  17.253  0.00  0.00    +0.000 A 
ATOM      2  C   UNL     1       3.629   3.861  17.271  0.00  0.00    +0.000 A 
ATOM      3  C   UNL     1       2.331   3.914  17.779  0.00  0.00    +0.000 A 
ATOM      4  C   UNL     1       1.817   5.115  18.271  0.00  0.00    +0.000 A 
ATOM      5  C   UNL     1       2.579   6.282  18.235  0.00  0.00    +0.000 A 
ATOM      6  C   UNL     1       3.885   6.195  17.722  0.00  0.00    +0.000 A 
ENDROOT
BRANCH   5   7
ATOM      7  N   UNL     1       2.067   7.529  18.684  0.00  0.00    +0.000 N 
ATOM      8  C   UNL     1       2.004   8.684  17.807  0.00  0.00    +0.000 C 
ATOM      9  C   UNL     1       1.243   9.763  18.558  0.00  0.00    +0.000 C 
ATOM     10  C   UNL     1       1.168   9.233  19.950  0.00  0.00    +0.000 C 
ATOM     11  C   UNL     1       0.787   9.870  21.067  0.00  0.00    +0.000 C 
ATOM     12  C   UNL     1       1.617   7.814  19.968  0.00  0.00    +0.000 C 
ATOM     13  O   UNL     1       1.578   7.120  20.969  0.00  0.00    +0.000 OA
BRANCH  11  14
ATOM     14  C   UNL     1       0.333  11.279  21.126  0.00  0.00    +0.000 C 
ATOM     15  F   UNL     1       1.305  12.135  20.727  0.00  0.00    +0.000 F 
ATOM     16  F   UNL     1      -0.741  11.496  20.327  0.00  0.00    +0.000 F 
ATOM     17  F   UNL     1      -0.027  11.640  22.382  0.00  0.00    +0.000 F 
ENDBRANCH  11  14
ENDBRANCH   5   7
BRANCH   1  18
ATOM     18  C   UNL     1       6.003   4.926  16.781  0.00  0.00    +0.000 C 
ATOM     19  C   UNL     1       6.781   6.271  16.672  0.00  0.00    +0.000 C 
ATOM     20  O   UNL     1       7.774   5.843  17.630  0.00  0.00    +0.000 OA
ATOM     21  C   UNL     1       7.033   4.640  17.912  0.00  0.00    +0.000 C 
BRANCH  18  22
ATOM     22  C   UNL     1       6.197   3.979  15.578  0.00  0.00    +0.000 C 
BRANCH  22  28
ATOM     23  C   UNL     1       5.834   3.277  12.537  0.00  0.00    +0.000 C 
ATOM     24  N   UNL     1       6.734   4.250  13.098  0.00  0.00    +0.000 N 
ATOM     25  C   UNL     1       7.606   5.015  12.384  0.00  0.00    +0.000 A 
ATOM     26  N   UNL     1       8.290   5.777  13.202  0.00  0.00    +0.000 NA
ATOM     27  N   UNL     1       7.872   5.496  14.478  0.00  0.00    +0.000 NA
ATOM     28  C   UNL     1       6.917   4.587  14.417  0.00  0.00    +0.000 A 
ENDBRANCH  22  28
ENDBRANCH  18  22
ENDBRANCH   1  18
TORSDOF 5
ENDMDL
MODEL 3
REMARK VINA RESULT:      -8.8      2.843      4.221
REMARK  Name = 
REMARK  6 active torsions:
REMARK  status: ('A' for Active; 'I' for Inactive)
REMARK    1  A    between atoms: C_1  and  N_2
REMARK    2  A    between atoms: C_6  and  C_7
REMARK    3  A    between atoms: C_7  and  C_8
REMARK    4  A    between atoms: C_8  and  C_9
REMARK    5  A    between atoms: C_13  and  N_14
REMARK    6  A    between atoms: C_18  and  C_19
REMARK                            x       y       z     vdW  Elec       q    Type
REMARK                         _______ _______ _______ _____ _____    ______ ____
ROOT
ATOM      1  C   UNL     1       2.905   5.899  18.761  0.00  0.00    +0.000 A 
ATOM      2  C   UNL     1       3.449   6.527  17.630  0.00  0.00    +0.000 A 
ATOM      3  C   UNL     1       3.231   7.881  17.368  0.00  0.00    +0.000 A 
ATOM      4  C   UNL     1       2.472   8.654  18.246  0.00  0.00    +0.000 A 
ATOM      5  C   UNL     1       1.948   8.098  19.412  0.00  0.00    +0.000 A 
ATOM      6  C   UNL     1       2.180   6.731  19.646  0.00  0.00    +0.000 A 
ENDROOT
BRANCH   5   7
ATOM      7  N   UNL     1       1.212   8.871  20.350  0.00  0.00    +0.000 N 
ATOM      8  C   UNL     1       1.297   8.616  21.776  0.00  0.00    +0.000 C 
ATOM      9  C   UNL     1       0.536   9.735  22.467  0.00  0.00    +0.000 C 
ATOM     10  C   UNL     1      -0.184  10.410  21.349  0.00  0.00    +0.000 C 
ATOM     11  C   UNL     1      -1.158  11.329  21.417  0.00  0.00    +0.000 C 
ATOM     12  C   UNL     1       0.324   9.897  20.048  0.00  0.00    +0.000 C 
ATOM     13  O   UNL     1      -0.041  10.341  18.973  0.00  0.00    +0.000 OA
BRANCH  11  14
ATOM     14  C   UNL     1      -1.716  11.881  22.673  0.00  0.00    +0.000 C 
ATOM     15  F   UNL     1      -0.831  12.693  23.300  0.00  0.00    +0.000 F 
ATOM     16  F   UNL     1      -2.837  12.612  22.448  0.00  0.00    +0.000 F 
ATOM     17  F   UNL     1      -2.050  10.902  23.549  0.00  0.00    +0.000 F 
ENDBRANCH  11  14
ENDBRANCH   5   7
BRANCH   1  18
ATOM     18  C   UNL     1       3.044   4.313  19.024  0.00  0.00    +0.000 C 
ATOM     19  C   UNL     1       2.799   3.798  20.473  0.00  0.00    +0.000 C 
ATOM     20  O   UNL     1       1.720   2.936  20.048  0.00  0.00    +0.000 OA
ATOM     21  C   UNL     1       1.770   3.474  18.713  0.00  0.00    +0.000 C 
BRANCH  18  22
ATOM     22  C   UNL     1       4.297   3.724  18.342  0.00  0.00    +0.000 C 
BRANCH  22  28
ATOM     23  C   UNL     1       6.632   4.421  16.359  0.00  0.00    +0.000 C 
ATOM     24  N   UNL     1       6.574   4.722  17.765  0.00  0.00    +0.000 N 
ATOM     25  C   UNL     1       7.555   5.345  18.475  0.00  0.00    +0.000 A 
ATOM     26  N   UNL     1       7.192   5.442  19.730  0.00  0.00    +0.000 NA
ATOM     27  N   UNL     1       5.956   4.858  19.852  0.00  0.00    +0.000 NA
ATOM     28  C   UNL     1       5.572   4.438  18.661  0.00  0.00    +0.000 A 
ENDBRANCH  22  28
ENDBRANCH  18  22
ENDBRANCH   1  18
TORSDOF 5
ENDMDL
MODEL 4
REMARK VINA RESULT:      -8.6      1.513      1.951
REMARK  Name = 
REMARK  6 active torsions:
REMARK  status: ('A' for Active; 'I' for Inactive)
REMARK    1  A    between atoms: C_1  and  N_2
REMARK    2  A    between atoms: C_6  and  C_7
REMARK    3  A    between atoms: C_7  and  C_8
REMARK    4  A    between atoms: C_8  and  C_9
REMARK    5  A    between atoms: C_13  and  N_14
REMARK    6  A    between atoms: C_18  and  C_19
REMARK                            x       y       z     vdW  Elec       q    Type
REMARK                         _______ _______ _______ _____ _____    ______ ____
ROOT
ATOM      1  C   UNL     1       5.333   5.538  18.412  0.00  0.00    +0.000 A 
ATOM      2  C   UNL     1       4.772   4.290  18.724  0.00  0.00    +0.000 A 
ATOM      3  C   UNL     1       3.441   4.165  19.126  0.00  0.00    +0.000 A 
ATOM      4  C   UNL     1       2.622   5.292  19.209  0.00  0.00    +0.000 A 
ATOM      5  C   UNL     1       3.110   6.551  18.864  0.00  0.00    +0.000 A 
ATOM      6  C   UNL     1       4.455   6.646  18.468  0.00  0.00    +0.000 A 
ENDROOT
BRANCH   5   7
ATOM      7  N   UNL     1       2.288   7.710  18.891  0.00  0.00    +0.000 N 
ATOM      8  C   UNL     1       2.128   8.556  17.724  0.00  0.00    +0.000 C 
ATOM      9  C   UNL     1       1.052   9.573  18.063  0.00  0.00    +0.000 C 
ATOM     10  C   UNL     1       0.869   9.410  19.534  0.00  0.00    +0.000 C 
ATOM     11  C   UNL     1       0.193  10.197  20.384  0.00  0.00    +0.000 C 
ATOM     12  C   UNL     1       1.591   8.193  19.994  0.00  0.00    +0.000 C 
ATOM     13  O   UNL     1       1.539   7.785  21.141  0.00  0.00    +0.000 OA
BRANCH  11  14
ATOM     14  C   UNL     1      -0.544  11.423  20.000  0.00  0.00    +0.000 C 
ATOM     15  F   UNL     1      -1.481  11.169  19.055  0.00  0.00    +0.000 F 
ATOM     16  F   UNL     1      -1.187  11.977  21.059  0.00  0.00    +0.000 F 
ATOM     17  F   UNL     1       0.284  12.372  19.498  0.00  0.00    +0.000 F 
ENDBRANCH  11  14
ENDBRANCH   5   7
BRANCH   1  18
ATOM     18  C   UNL     1       6.897   5.722  18.060  0.00  0.00    +0.000 C 
ATOM     19  C   UNL     1       7.370   7.131  17.593  0.00  0.00    +0.000 C 
ATOM     20  O   UNL     1       8.309   7.243  18.685  0.00  0.00    +0.000 OA
ATOM     21  C   UNL     1       7.820   6.024  19.277  0.00  0.00    +0.000 C 
BRANCH  18  22
ATOM     22  C   UNL     1       7.437   4.554  17.209  0.00  0.00    +0.000 C 
BRANCH  22  28
ATOM     23  C   UNL     1       5.210   2.948  15.681  0.00  0.00    +0.000 C 
ATOM     24  N   UNL     1       6.119   3.913  15.120  0.00  0.00    +0.000 N 
ATOM     25  C   UNL     1       6.173   4.267  13.806  0.00  0.00    +0.000 A 
ATOM     26  N   UNL     1       7.125   5.150  13.630  0.00  0.00    +0.000 NA
ATOM     27  N   UNL     1       7.719   5.369  14.848  0.00  0.00    +0.000 NA
ATOM     28  C   UNL     1       7.099   4.636  15.754  0.00  0.00    +0.000 A 
ENDBRANCH  22  28
ENDBRANCH  18  22
ENDBRANCH   1  18
TORSDOF 5
ENDMDL
MODEL 5
REMARK VINA RESULT:      -8.4      2.107      3.285
REMARK  Name = 
REMARK  6 active torsions:
REMARK  status: ('A' for Active; 'I' for Inactive)
REMARK    1  A    between atoms: C_1  and  N_2
REMARK    2  A    between atoms: C_6  and  C_7
REMARK    3  A    between atoms: C_7  and  C_8
REMARK    4  A    between atoms: C_8  and  C_9
REMARK    5  A    between atoms: C_13  and  N_14
REMARK    6  A    between atoms: C_18  and  C_19
REMARK                            x       y       z     vdW  Elec       q    Type
REMARK                         _______ _______ _______ _____ _____    ______ ____
ROOT
ATOM      1  C   UNL     1       4.468   4.724  17.508  0.00  0.00    +0.000 A 
ATOM      2  C   UNL     1       4.048   3.693  18.362  0.00  0.00    +0.000 A 
ATOM      3  C   UNL     1       3.104   3.912  19.367  0.00  0.00    +0.000 A 
ATOM      4  C   UNL     1       2.534   5.174  19.533  0.00  0.00    +0.000 A 
ATOM      5  C   UNL     1       2.874   6.226  18.683  0.00  0.00    +0.000 A 
ATOM      6  C   UNL     1       3.832   5.976  17.685  0.00  0.00    +0.000 A 
ENDROOT
BRANCH   5   7
ATOM      7  N   UNL     1       2.275   7.509  18.796  0.00  0.00    +0.000 N 
ATOM      8  C   UNL     1       2.312   8.463  17.704  0.00  0.00    +0.000 C 
ATOM      9  C   UNL     1       1.428   9.629  18.111  0.00  0.00    +0.000 C 
ATOM     10  C   UNL     1       1.166   9.382  19.558  0.00  0.00    +0.000 C 
ATOM     11  C   UNL     1       0.614  10.206  20.460  0.00  0.00    +0.000 C 
ATOM     12  C   UNL     1       1.639   8.018  19.923  0.00  0.00    +0.000 C 
ATOM     13  O   UNL     1       1.473   7.534  21.029  0.00  0.00    +0.000 OA
BRANCH  11  14
ATOM     14  C   UNL     1       0.126  11.574  20.170  0.00  0.00    +0.000 C 
ATOM     15  F   UNL     1       1.123  12.380  19.734  0.00  0.00    +0.000 F 
ATOM     16  F   UNL     1      -0.834  11.574  19.212  0.00  0.00    +0.000 F 
ATOM     17  F   UNL     1      -0.411  12.160  21.269  0.00  0.00    +0.000 F 
ENDBRANCH  11  14
ENDBRANCH   5   7
BRANCH   1  18
ATOM     18  C   UNL     1       5.642   4.526  16.419  0.00  0.00    +0.000 C 
ATOM     19  C   UNL     1       5.477   3.376  15.382  0.00  0.00    +0.000 C 
ATOM     20  O   UNL     1       5.540   4.292  14.267  0.00  0.00    +0.000 OA
ATOM     21  C   UNL     1       5.535   5.427  15.155  0.00  0.00    +0.000 C 
BRANCH  18  22
ATOM     22  C   UNL     1       7.043   4.607  17.062  0.00  0.00    +0.000 C 
BRANCH  22  28
ATOM     23  C   UNL     1       8.050   5.603  19.867  0.00  0.00    +0.000 C 
ATOM     24  N   UNL     1       7.911   6.389  18.670  0.00  0.00    +0.000 N 
ATOM     25  C   UNL     1       8.174   7.722  18.572  0.00  0.00    +0.000 A 
ATOM     26  N   UNL     1       7.922   8.129  17.352  0.00  0.00    +0.000 NA
ATOM     27  N   UNL     1       7.469   7.048  16.639  0.00  0.00    +0.000 NA
ATOM     28  C   UNL     1       7.480   5.990  17.428  0.00  0.00    +0.000 A 
ENDBRANCH  22  28
ENDBRANCH  18  22
ENDBRANCH   1  18
TORSDOF 5
ENDMDL
MODEL 6
REMARK VINA RESULT:      -8.4      3.039      4.496
REMARK  Name = 
REMARK  6 active torsions:
REMARK  status: ('A' for Active; 'I' for Inactive)
REMARK    1  A    between atoms: C_1  and  N_2
REMARK    2  A    between atoms: C_6  and  C_7
REMARK    3  A    between atoms: C_7  and  C_8
REMARK    4  A    between atoms: C_8  and  C_9
REMARK    5  A    between atoms: C_13  and  N_14
REMARK    6  A    between atoms: C_18  and  C_19
REMARK                            x       y       z     vdW  Elec       q    Type
REMARK                         _______ _______ _______ _____ _____    ______ ____
ROOT
ATOM      1  C   UNL     1       2.606   6.552  18.869  0.00  0.00    +0.000 A 
ATOM      2  C   UNL     1       3.063   7.215  17.720  0.00  0.00    +0.000 A 
ATOM      3  C   UNL     1       2.742   8.550  17.468  0.00  0.00    +0.000 A 
ATOM      4  C   UNL     1       1.965   9.270  18.375  0.00  0.00    +0.000 A 
ATOM      5  C   UNL     1       1.524   8.680  19.559  0.00  0.00    +0.000 A 
ATOM      6  C   UNL     1       1.858   7.333  19.782  0.00  0.00    +0.000 A 
ENDROOT
BRANCH   5   7
ATOM      7  N   UNL     1       0.772   9.401  20.525  0.00  0.00    +0.000 N 
ATOM      8  C   UNL     1       0.754   9.008  21.921  0.00  0.00    +0.000 C 
ATOM      9  C   UNL     1       0.011  10.097  22.674  0.00  0.00    +0.000 C 
ATOM     10  C   UNL     1      -0.604  10.915  21.589  0.00  0.00    +0.000 C 
ATOM     11  C   UNL     1      -1.532  11.878  21.691  0.00  0.00    +0.000 C 
ATOM     12  C   UNL     1      -0.042  10.500  20.274  0.00  0.00    +0.000 C 
ATOM     13  O   UNL     1      -0.316  11.064  19.229  0.00  0.00    +0.000 OA
BRANCH  11  14
ATOM     14  C   UNL     1      -2.137  12.339  22.961  0.00  0.00    +0.000 C 
ATOM     15  F   UNL     1      -3.172  13.187  22.744  0.00  0.00    +0.000 F 
ATOM     16  F   UNL     1      -2.618  11.304  23.695  0.00  0.00    +0.000 F 
ATOM     17  F   UNL     1      -1.240  12.994  23.738  0.00  0.00    +0.000 F 
ENDBRANCH  11  14
ENDBRANCH   5   7
BRANCH   1  18
ATOM     18  C   UNL     1       2.864   4.979  19.124  0.00  0.00    +0.000 C 
ATOM     19  C   UNL     1       2.873   4.480  20.599  0.00  0.00    +0.000 C 
ATOM     20  O   UNL     1       1.786   3.559  20.357  0.00  0.00    +0.000 OA
ATOM     21  C   UNL     1       1.601   4.075  19.025  0.00  0.00    +0.000 C 
BRANCH  18  22
ATOM     22  C   UNL     1       4.024   4.439  18.261  0.00  0.00    +0.000 C 
BRANCH  22  28
ATOM     23  C   UNL     1       6.142   5.831  16.404  0.00  0.00    +0.000 C 
ATOM     24  N   UNL     1       6.279   5.545  17.808  0.00  0.00    +0.000 N 
ATOM     25  C   UNL     1       7.382   5.814  18.559  0.00  0.00    +0.000 A 
ATOM     26  N   UNL     1       7.184   5.407  19.789  0.00  0.00    +0.000 NA
ATOM     27  N   UNL     1       5.934   4.844  19.844  0.00  0.00    +0.000 NA
ATOM     28  C   UNL     1       5.376   4.944  18.652  0.00  0.00    +0.000 A 
ENDBRANCH  22  28
ENDBRANCH  18  22
ENDBRANCH   1  18
TORSDOF 5
ENDMDL
MODEL 7
REMARK VINA RESULT:      -8.4      1.812      3.012
REMARK  Name = 
REMARK  6 active torsions:
REMARK  status: ('A' for Active; 'I' for Inactive)
REMARK    1  A    between atoms: C_1  and  N_2
REMARK    2  A    between atoms: C_6  and  C_7
REMARK    3  A    between atoms: C_7  and  C_8
REMARK    4  A    between atoms: C_8  and  C_9
REMARK    5  A    between atoms: C_13  and  N_14
REMARK    6  A    between atoms: C_18  and  C_19
REMARK                            x       y       z     vdW  Elec       q    Type
REMARK                         _______ _______ _______ _____ _____    ______ ____
ROOT
ATOM      1  C   UNL     1       4.504   4.400  17.196  0.00  0.00    +0.000 A 
ATOM      2  C   UNL     1       3.972   3.194  17.678  0.00  0.00    +0.000 A 
ATOM      3  C   UNL     1       2.952   3.171  18.630  0.00  0.00    +0.000 A 
ATOM      4  C   UNL     1       2.418   4.364  19.118  0.00  0.00    +0.000 A 
ATOM      5  C   UNL     1       2.871   5.593  18.640  0.00  0.00    +0.000 A 
ATOM      6  C   UNL     1       3.902   5.584  17.686  0.00  0.00    +0.000 A 
ENDROOT
BRANCH   5   7
ATOM      7  N   UNL     1       2.314   6.824  19.081  0.00  0.00    +0.000 N 
ATOM      8  C   UNL     1       1.735   6.964  20.404  0.00  0.00    +0.000 C 
ATOM      9  C   UNL     1       1.415   8.438  20.588  0.00  0.00    +0.000 C 
ATOM     10  C   UNL     1       1.578   9.005  19.218  0.00  0.00    +0.000 C 
ATOM     11  C   UNL     1       1.222  10.216  18.767  0.00  0.00    +0.000 C 
ATOM     12  C   UNL     1       2.214   7.991  18.333  0.00  0.00    +0.000 C 
ATOM     13  O   UNL     1       2.532   8.226  17.180  0.00  0.00    +0.000 OA
BRANCH  11  14
ATOM     14  C   UNL     1       0.583  11.271  19.588  0.00  0.00    +0.000 C 
ATOM     15  F   UNL     1       1.394  11.686  20.591  0.00  0.00    +0.000 F 
ATOM     16  F   UNL     1       0.273  12.366  18.848  0.00  0.00    +0.000 F 
ATOM     17  F   UNL     1      -0.569  10.838  20.157  0.00  0.00    +0.000 F 
ENDBRANCH  11  14
ENDBRANCH   5   7
BRANCH   1  18
ATOM     18  C   UNL     1       5.761   4.453  16.186  0.00  0.00    +0.000 C 
ATOM     19  C   UNL     1       5.767   3.456  14.990  0.00  0.00    +0.000 C 
ATOM     20  O   UNL     1       5.824   4.527  14.021  0.00  0.00    +0.000 OA
ATOM     21  C   UNL     1       5.660   5.517  15.055  0.00  0.00    +0.000 C 
BRANCH  18  22
ATOM     22  C   UNL     1       7.103   4.548  16.942  0.00  0.00    +0.000 C 
BRANCH  22  28
ATOM     23  C   UNL     1       7.860   5.555  19.821  0.00  0.00    +0.000 C 
ATOM     24  N   UNL     1       7.816   6.339  18.614  0.00  0.00    +0.000 N 
ATOM     25  C   UNL     1       8.075   7.674  18.537  0.00  0.00    +0.000 A 
ATOM     26  N   UNL     1       7.924   8.077  17.300  0.00  0.00    +0.000 NA
ATOM     27  N   UNL     1       7.542   6.991  16.552  0.00  0.00    +0.000 NA
ATOM     28  C   UNL     1       7.495   5.934  17.342  0.00  0.00    +0.000 A 
ENDBRANCH  22  28
ENDBRANCH  18  22
ENDBRANCH   1  18
TORSDOF 5
ENDMDL
MODEL 8
REMARK VINA RESULT:      -8.4      2.236      3.347
REMARK  Name = 
REMARK  6 active torsions:
REMARK  status: ('A' for Active; 'I' for Inactive)
REMARK    1  A    between atoms: C_1  and  N_2
REMARK    2  A    between atoms: C_6  and  C_7
REMARK    3  A    between atoms: C_7  and  C_8
REMARK    4  A    between atoms: C_8  and  C_9
REMARK    5  A    between atoms: C_13  and  N_14
REMARK    6  A    between atoms: C_18  and  C_19
REMARK                            x       y       z     vdW  Elec       q    Type
REMARK                         _______ _______ _______ _____ _____    ______ ____
ROOT
ATOM      1  C   UNL     1       4.377   4.855  16.835  0.00  0.00    +0.000 A 
ATOM      2  C   UNL     1       3.832   3.674  17.364  0.00  0.00    +0.000 A 
ATOM      3  C   UNL     1       2.832   3.700  18.337  0.00  0.00    +0.000 A 
ATOM      4  C   UNL     1       2.331   4.918  18.798  0.00  0.00    +0.000 A 
ATOM      5  C   UNL     1       2.797   6.123  18.274  0.00  0.00    +0.000 A 
ATOM      6  C   UNL     1       3.808   6.064  17.300  0.00  0.00    +0.000 A 
ENDROOT
BRANCH   5   7
ATOM      7  N   UNL     1       2.272   7.377  18.688  0.00  0.00    +0.000 N 
ATOM      8  C   UNL     1       2.325   8.543  17.828  0.00  0.00    +0.000 C 
ATOM      9  C   UNL     1       1.519   9.632  18.515  0.00  0.00    +0.000 C 
ATOM     10  C   UNL     1       1.292   9.087  19.884  0.00  0.00    +0.000 C 
ATOM     11  C   UNL     1       0.815   9.719  20.966  0.00  0.00    +0.000 C 
ATOM     12  C   UNL     1       1.702   7.656  19.925  0.00  0.00    +0.000 C 
ATOM     13  O   UNL     1       1.546   6.951  20.906  0.00  0.00    +0.000 OA
BRANCH  11  14
ATOM     14  C   UNL     1       0.391  11.138  21.001  0.00  0.00    +0.000 C 
ATOM     15  F   UNL     1      -0.551  11.402  20.064  0.00  0.00    +0.000 F 
ATOM     16  F   UNL     1      -0.136  11.477  22.204  0.00  0.00    +0.000 F 
ATOM     17  F   UNL     1       1.430  11.978  20.772  0.00  0.00    +0.000 F 
ENDBRANCH  11  14
ENDBRANCH   5   7
BRANCH   1  18
ATOM     18  C   UNL     1       5.614   4.852  15.798  0.00  0.00    +0.000 C 
ATOM     19  C   UNL     1       6.240   3.476  15.428  0.00  0.00    +0.000 C 
ATOM     20  O   UNL     1       5.958   3.658  14.023  0.00  0.00    +0.000 OA
ATOM     21  C   UNL     1       5.218   4.864  14.293  0.00  0.00    +0.000 C 
BRANCH  18  22
ATOM     22  C   UNL     1       6.643   5.953  16.128  0.00  0.00    +0.000 C 
BRANCH  22  28
ATOM     23  C   UNL     1       7.892   8.280  17.831  0.00  0.00    +0.000 C 
ATOM     24  N   UNL     1       7.787   6.894  18.206  0.00  0.00    +0.000 N 
ATOM     25  C   UNL     1       8.247   6.361  19.371  0.00  0.00    +0.000 A 
ATOM     26  N   UNL     1       8.012   5.072  19.385  0.00  0.00    +0.000 NA
ATOM     27  N   UNL     1       7.400   4.749  18.200  0.00  0.00    +0.000 NA
ATOM     28  C   UNL     1       7.246   5.853  17.493  0.00  0.00    +0.000 A 
ENDBRANCH  22  28
ENDBRANCH  18  22
ENDBRANCH   1  18
TORSDOF 5
ENDMDL
MODEL 9
REMARK VINA RESULT:      -8.3      2.026      3.096
REMARK  Name = 
REMARK  6 active torsions:
REMARK  status: ('A' for Active; 'I' for Inactive)
REMARK    1  A    between atoms: C_1  and  N_2
REMARK    2  A    between atoms: C_6  and  C_7
REMARK    3  A    between atoms: C_7  and  C_8
REMARK    4  A    between atoms: C_8  and  C_9
REMARK    5  A    between atoms: C_13  and  N_14
REMARK    6  A    between atoms: C_18  and  C_19
REMARK                            x       y       z     vdW  Elec       q    Type
REMARK                         _______ _______ _______ _____ _____    ______ ____
ROOT
ATOM      1  C   UNL     1       4.239   4.784  16.829  0.00  0.00    +0.000 A 
ATOM      2  C   UNL     1       3.580   3.571  17.081  0.00  0.00    +0.000 A 
ATOM      3  C   UNL     1       2.503   3.491  17.966  0.00  0.00    +0.000 A 
ATOM      4  C   UNL     1       2.041   4.637  18.615  0.00  0.00    +0.000 A 
ATOM      5  C   UNL     1       2.623   5.879  18.367  0.00  0.00    +0.000 A 
ATOM      6  C   UNL     1       3.708   5.926  17.475  0.00  0.00    +0.000 A 
ENDROOT
BRANCH   5   7
ATOM      7  N   UNL     1       2.143   7.070  18.975  0.00  0.00    +0.000 N 
ATOM      8  C   UNL     1       1.709   7.094  20.359  0.00  0.00    +0.000 C 
ATOM      9  C   UNL     1       1.445   8.548  20.710  0.00  0.00    +0.000 C 
ATOM     10  C   UNL     1       1.477   9.238  19.388  0.00  0.00    +0.000 C 
ATOM     11  C   UNL     1       1.103  10.491  19.091  0.00  0.00    +0.000 C 
ATOM     12  C   UNL     1       1.993   8.304  18.351  0.00  0.00    +0.000 C 
ATOM     13  O   UNL     1       2.194   8.640  17.198  0.00  0.00    +0.000 OA
BRANCH  11  14
ATOM     14  C   UNL     1       0.578  11.473  20.067  0.00  0.00    +0.000 C 
ATOM     15  F   UNL     1      -0.561  11.035  20.655  0.00  0.00    +0.000 F 
ATOM     16  F   UNL     1       1.468  11.722  21.060  0.00  0.00    +0.000 F 
ATOM     17  F   UNL     1       0.295  12.663  19.482  0.00  0.00    +0.000 F 
ENDBRANCH  11  14
ENDBRANCH   5   7
BRANCH   1  18
ATOM     18  C   UNL     1       5.557   4.880  15.903  0.00  0.00    +0.000 C 
ATOM     19  C   UNL     1       6.335   3.561  15.618  0.00  0.00    +0.000 C 
ATOM     20  O   UNL     1       6.161   3.698  14.190  0.00  0.00    +0.000 OA
ATOM     21  C   UNL     1       5.296   4.835  14.369  0.00  0.00    +0.000 C 
BRANCH  18  22
ATOM     22  C   UNL     1       6.451   6.075  16.297  0.00  0.00    +0.000 C 
BRANCH  22  28
ATOM     23  C   UNL     1       8.000   8.299  17.887  0.00  0.00    +0.000 C 
ATOM     24  N   UNL     1       7.807   6.928  18.283  0.00  0.00    +0.000 N 
ATOM     25  C   UNL     1       8.299   6.364  19.421  0.00  0.00    +0.000 A 
ATOM     26  N   UNL     1       7.960   5.099  19.464  0.00  0.00    +0.000 NA
ATOM     27  N   UNL     1       7.245   4.822  18.326  0.00  0.00    +0.000 NA
ATOM     28  C   UNL     1       7.134   5.932  17.619  0.00  0.00    +0.000 A 
ENDBRANCH  22  28
ENDBRANCH  18  22
ENDBRANCH   1  18
TORSDOF 5
ENDMDL
